MODEL 1
REMARK VINA RESULT:      -7.8      0.000      0.000
REMARK  Name = 
REMARK  9 active torsions:
REMARK  status: ('A' for Active; 'I' for Inactive)
REMARK    1  A    between atoms: C_1  and  C_2
REMARK    2  A    between atoms: C_6  and  O_7
REMARK    3  A    between atoms: O_7  and  C_8
REMARK    4  A    between atoms: C_8  and  C_9
REMARK    5  A    between atoms: C_12  and  S_13
REMARK    6  A    between atoms: S_13  and  C_14
REMARK    7  A    between atoms: C_14  and  C_15
REMARK    8  A    between atoms: N_17  and  C_18
REMARK    9  A    between atoms: C_21  and  C_22
REMARK                            x       y       z     vdW  Elec       q    Type
REMARK                         _______ _______ _______ _____ _____    ______ ____
ROOT
ATOM      1  C   UNL     1       5.802   4.499  17.989  0.00  0.00    +0.000 A 
ATOM      2  N   UNL     1       5.689   5.381  18.963  0.00  0.00    +0.000 NA
ATOM      3  N   UNL     1       4.808   4.843  19.874  0.00  0.00    +0.000 NA
ATOM      4  C   UNL     1       4.435   3.671  19.397  0.00  0.00    +0.000 A 
ATOM      5  O   UNL     1       5.039   3.379  18.204  0.00  0.00    +0.000 OA
ENDROOT
BRANCH   1   6
ATOM      6  C   UNL     1       6.649   4.533  16.769  0.00  0.00    +0.000 C 
BRANCH   6   7
ATOM      7  O   UNL     1       5.838   5.018  15.701  0.00  0.00    +0.000 OA
BRANCH   7  13
ATOM      8  C   UNL     1       5.271   2.439  11.471  0.00  0.00    +0.000 C 
ATOM      9  C   UNL     1       5.996   3.438  12.328  0.00  0.00    +0.000 A 
ATOM     10  C   UNL     1       7.144   4.084  11.853  0.00  0.00    +0.000 A 
ATOM     11  C   UNL     1       7.813   5.003  12.657  0.00  0.00    +0.000 A 
ATOM     12  C   UNL     1       7.338   5.283  13.940  0.00  0.00    +0.000 A 
ATOM     13  C   UNL     1       6.195   4.649  14.430  0.00  0.00    +0.000 A 
ATOM     14  C   UNL     1       5.528   3.725  13.621  0.00  0.00    +0.000 A 
ENDBRANCH   7  13
ENDBRANCH   6   7
ENDBRANCH   1   6
BRANCH   4  15
ATOM     15  S   UNL     1       3.296   2.619  20.171  0.00  0.00    +0.000 S 
BRANCH  15  16
ATOM     16  C   UNL     1       2.505   3.770  21.334  0.00  0.00    +0.000 C 
BRANCH  16  17
ATOM     17  C   UNL     1       1.798   4.882  20.582  0.00  0.00    +0.000 C 
ATOM     18  O   UNL     1       0.893   4.606  19.792  0.00  0.00    +0.000 OA
ATOM     19  N   UNL     1       2.284   6.154  20.847  0.00  0.00    +0.000 N 
ATOM     20  H   UNL     1       3.171   6.216  21.349  0.00  0.00    +0.000 HD
BRANCH  19  21
ATOM     21  C   UNL     1       1.840   7.347  20.234  0.00  0.00    +0.000 A 
ATOM     22  C   UNL     1       2.148   7.678  18.913  0.00  0.00    +0.000 A 
ATOM     23  C   UNL     1       1.769   8.909  18.376  0.00  0.00    +0.000 A 
ATOM     24  C   UNL     1       1.062   9.837  19.143  0.00  0.00    +0.000 A 
ATOM     25  C   UNL     1       0.744  11.182  18.551  0.00  0.00    +0.000 C 
ATOM     26  C   UNL     1       0.708   9.485  20.455  0.00  0.00    +0.000 A 
ATOM     27 CL   UNL     1      -0.173  10.573  21.469  0.00  0.00    +0.000 Cl
ATOM     28  C   UNL     1       1.081   8.243  20.991  0.00  0.00    +0.000 A 
ENDBRANCH  19  21
ENDBRANCH  16  17
ENDBRANCH  15  16
ENDBRANCH   4  15
TORSDOF 7
ENDMDL
MODEL 2
REMARK VINA RESULT:      -7.7      4.599      5.804
REMARK  Name = 
REMARK  9 active torsions:
REMARK  status: ('A' for Active; 'I' for Inactive)
REMARK    1  A    between atoms: C_1  and  C_2
REMARK    2  A    between atoms: C_6  and  O_7
REMARK    3  A    between atoms: O_7  and  C_8
REMARK    4  A    between atoms: C_8  and  C_9
REMARK    5  A    between atoms: C_12  and  S_13
REMARK    6  A    between atoms: S_13  and  C_14
REMARK    7  A    between atoms: C_14  and  C_15
REMARK    8  A    between atoms: N_17  and  C_18
REMARK    9  A    between atoms: C_21  and  C_22
REMARK                            x       y       z     vdW  Elec       q    Type
REMARK                         _______ _______ _______ _____ _____    ______ ____
ROOT
ATOM      1  C   UNL     1       7.663   7.180  18.005  0.00  0.00    +0.000 A 
ATOM      2  N   UNL     1       7.990   6.455  19.057  0.00  0.00    +0.000 NA
ATOM      3  N   UNL     1       7.156   5.360  19.047  0.00  0.00    +0.000 NA
ATOM      4  C   UNL     1       6.372   5.488  17.995  0.00  0.00    +0.000 A 
ATOM      5  O   UNL     1       6.647   6.619  17.275  0.00  0.00    +0.000 OA
ENDROOT
BRANCH   1   6
ATOM      6  C   UNL     1       8.260   8.443  17.499  0.00  0.00    +0.000 C 
BRANCH   6   7
ATOM      7  O   UNL     1       7.996   9.457  18.467  0.00  0.00    +0.000 OA
BRANCH   7  13
ATOM      8  C   UNL     1      11.645  12.622  17.230  0.00  0.00    +0.000 C 
ATOM      9  C   UNL     1      10.811  11.891  18.244  0.00  0.00    +0.000 A 
ATOM     10  C   UNL     1      11.041  12.065  19.614  0.00  0.00    +0.000 A 
ATOM     11  C   UNL     1      10.267  11.378  20.546  0.00  0.00    +0.000 A 
ATOM     12  C   UNL     1       9.259  10.514  20.114  0.00  0.00    +0.000 A 
ATOM     13  C   UNL     1       9.014  10.329  18.752  0.00  0.00    +0.000 A 
ATOM     14  C   UNL     1       9.795  11.017  17.820  0.00  0.00    +0.000 A 
ENDBRANCH   7  13
ENDBRANCH   6   7
ENDBRANCH   1   6
BRANCH   4  15
ATOM     15  S   UNL     1       5.118   4.368  17.570  0.00  0.00    +0.000 S 
BRANCH  15  16
ATOM     16  C   UNL     1       4.157   4.331  19.112  0.00  0.00    +0.000 C 
BRANCH  16  17
ATOM     17  C   UNL     1       2.965   5.266  19.018  0.00  0.00    +0.000 C 
ATOM     18  O   UNL     1       1.970   4.923  18.377  0.00  0.00    +0.000 OA
ATOM     19  N   UNL     1       3.135   6.480  19.665  0.00  0.00    +0.000 N 
ATOM     20  H   UNL     1       4.081   6.717  19.967  0.00  0.00    +0.000 HD
BRANCH  19  21
ATOM     21  C   UNL     1       2.204   7.543  19.677  0.00  0.00    +0.000 A 
ATOM     22  C   UNL     1       1.969   8.354  18.565  0.00  0.00    +0.000 A 
ATOM     23  C   UNL     1       1.110   9.451  18.647  0.00  0.00    +0.000 A 
ATOM     24  C   UNL     1       0.453   9.758  19.840  0.00  0.00    +0.000 A 
ATOM     25  C   UNL     1      -0.400  10.993  19.907  0.00  0.00    +0.000 C 
ATOM     26  C   UNL     1       0.649   8.912  20.944  0.00  0.00    +0.000 A 
ATOM     27 CL   UNL     1      -0.132   9.218  22.456  0.00  0.00    +0.000 Cl
ATOM     28  C   UNL     1       1.505   7.805  20.858  0.00  0.00    +0.000 A 
ENDBRANCH  19  21
ENDBRANCH  16  17
ENDBRANCH  15  16
ENDBRANCH   4  15
TORSDOF 7
ENDMDL
MODEL 3
REMARK VINA RESULT:      -7.7      1.235      1.318
REMARK  Name = 
REMARK  9 active torsions:
REMARK  status: ('A' for Active; 'I' for Inactive)
REMARK    1  A    between atoms: C_1  and  C_2
REMARK    2  A    between atoms: C_6  and  O_7
REMARK    3  A    between atoms: O_7  and  C_8
REMARK    4  A    between atoms: C_8  and  C_9
REMARK    5  A    between atoms: C_12  and  S_13
REMARK    6  A    between atoms: S_13  and  C_14
REMARK    7  A    between atoms: C_14  and  C_15
REMARK    8  A    between atoms: N_17  and  C_18
REMARK    9  A    between atoms: C_21  and  C_22
REMARK                            x       y       z     vdW  Elec       q    Type
REMARK                         _______ _______ _______ _____ _____    ______ ____
ROOT
ATOM      1  C   UNL     1       6.569   4.884  17.837  0.00  0.00    +0.000 A 
ATOM      2  N   UNL     1       6.646   5.513  18.993  0.00  0.00    +0.000 NA
ATOM      3  N   UNL     1       5.777   4.868  19.844  0.00  0.00    +0.000 NA
ATOM      4  C   UNL     1       5.222   3.891  19.153  0.00  0.00    +0.000 A 
ATOM      5  O   UNL     1       5.690   3.832  17.868  0.00  0.00    +0.000 OA
ENDROOT
BRANCH   1   6
ATOM      6  C   UNL     1       7.317   5.121  16.575  0.00  0.00    +0.000 C 
BRANCH   6   7
ATOM      7  O   UNL     1       6.362   5.471  15.574  0.00  0.00    +0.000 OA
BRANCH   7  13
ATOM      8  C   UNL     1       5.257   2.453  11.761  0.00  0.00    +0.000 C 
ATOM      9  C   UNL     1       6.091   3.523  12.406  0.00  0.00    +0.000 A 
ATOM     10  C   UNL     1       7.178   4.085  11.726  0.00  0.00    +0.000 A 
ATOM     11  C   UNL     1       7.950   5.073  12.335  0.00  0.00    +0.000 A 
ATOM     12  C   UNL     1       7.638   5.503  13.626  0.00  0.00    +0.000 A 
ATOM     13  C   UNL     1       6.557   4.955  14.319  0.00  0.00    +0.000 A 
ATOM     14  C   UNL     1       5.788   3.963  13.706  0.00  0.00    +0.000 A 
ENDBRANCH   7  13
ENDBRANCH   6   7
ENDBRANCH   1   6
BRANCH   4  15
ATOM     15  S   UNL     1       4.022   2.808  19.781  0.00  0.00    +0.000 S 
BRANCH  15  16
ATOM     16  C   UNL     1       2.845   2.765  18.398  0.00  0.00    +0.000 C 
BRANCH  16  17
ATOM     17  C   UNL     1       2.145   4.104  18.254  0.00  0.00    +0.000 C 
ATOM     18  O   UNL     1       1.174   4.207  17.503  0.00  0.00    +0.000 OA
ATOM     19  N   UNL     1       2.714   5.131  18.992  0.00  0.00    +0.000 N 
ATOM     20  H   UNL     1       3.636   4.958  19.395  0.00  0.00    +0.000 HD
BRANCH  19  21
ATOM     21  C   UNL     1       2.290   6.479  18.986  0.00  0.00    +0.000 A 
ATOM     22  C   UNL     1       2.380   7.295  17.856  0.00  0.00    +0.000 A 
ATOM     23  C   UNL     1       2.038   8.646  17.918  0.00  0.00    +0.000 A 
ATOM     24  C   UNL     1       1.586   9.215  19.110  0.00  0.00    +0.000 A 
ATOM     25  C   UNL     1       1.304  10.691  19.154  0.00  0.00    +0.000 C 
ATOM     26  C   UNL     1       1.446   8.384  20.234  0.00  0.00    +0.000 A 
ATOM     27 CL   UNL     1       0.887   9.008  21.745  0.00  0.00    +0.000 Cl
ATOM     28  C   UNL     1       1.781   7.024  20.168  0.00  0.00    +0.000 A 
ENDBRANCH  19  21
ENDBRANCH  16  17
ENDBRANCH  15  16
ENDBRANCH   4  15
TORSDOF 7
ENDMDL
MODEL 4
REMARK VINA RESULT:      -7.6      1.672      1.945
REMARK  Name = 
REMARK  9 active torsions:
REMARK  status: ('A' for Active; 'I' for Inactive)
REMARK    1  A    between atoms: C_1  and  C_2
REMARK    2  A    between atoms: C_6  and  O_7
REMARK    3  A    between atoms: O_7  and  C_8
REMARK    4  A    between atoms: C_8  and  C_9
REMARK    5  A    between atoms: C_12  and  S_13
REMARK    6  A    between atoms: S_13  and  C_14
REMARK    7  A    between atoms: C_14  and  C_15
REMARK    8  A    between atoms: N_17  and  C_18
REMARK    9  A    between atoms: C_21  and  C_22
REMARK                            x       y       z     vdW  Elec       q    Type
REMARK                         _______ _______ _______ _____ _____    ______ ____
ROOT
ATOM      1  C   UNL     1       4.380   3.898  17.381  0.00  0.00    +0.000 A 
ATOM      2  N   UNL     1       3.731   2.800  17.045  0.00  0.00    +0.000 NA
ATOM      3  N   UNL     1       3.448   2.142  18.221  0.00  0.00    +0.000 NA
ATOM      4  C   UNL     1       3.945   2.876  19.198  0.00  0.00    +0.000 A 
ATOM      5  O   UNL     1       4.543   4.019  18.737  0.00  0.00    +0.000 OA
ENDROOT
BRANCH   1   6
ATOM      6  C   UNL     1       4.889   5.000  16.525  0.00  0.00    +0.000 C 
BRANCH   6   7
ATOM      7  O   UNL     1       6.211   4.649  16.121  0.00  0.00    +0.000 OA
BRANCH   7  13
ATOM      8  C   UNL     1       5.238   2.640  11.663  0.00  0.00    +0.000 C 
ATOM      9  C   UNL     1       6.025   3.548  12.564  0.00  0.00    +0.000 A 
ATOM     10  C   UNL     1       7.086   4.308  12.059  0.00  0.00    +0.000 A 
ATOM     11  C   UNL     1       7.814   5.142  12.903  0.00  0.00    +0.000 A 
ATOM     12  C   UNL     1       7.485   5.222  14.257  0.00  0.00    +0.000 A 
ATOM     13  C   UNL     1       6.428   4.474  14.780  0.00  0.00    +0.000 A 
ATOM     14  C   UNL     1       5.703   3.635  13.929  0.00  0.00    +0.000 A 
ENDBRANCH   7  13
ENDBRANCH   6   7
ENDBRANCH   1   6
BRANCH   4  15
ATOM     15  S   UNL     1       3.875   2.447  20.876  0.00  0.00    +0.000 S 
BRANCH  15  16
ATOM     16  C   UNL     1       2.099   2.647  21.204  0.00  0.00    +0.000 C 
BRANCH  16  17
ATOM     17  C   UNL     1       1.588   3.939  20.592  0.00  0.00    +0.000 C 
ATOM     18  O   UNL     1       0.689   3.902  19.750  0.00  0.00    +0.000 OA
ATOM     19  N   UNL     1       2.236   5.081  21.038  0.00  0.00    +0.000 N 
ATOM     20  H   UNL     1       3.100   4.949  21.566  0.00  0.00    +0.000 HD
BRANCH  19  21
ATOM     21  C   UNL     1       1.991   6.396  20.581  0.00  0.00    +0.000 A 
ATOM     22  C   UNL     1       1.242   7.322  21.310  0.00  0.00    +0.000 A 
ATOM     23  C   UNL     1       0.946   8.578  20.780  0.00  0.00    +0.000 A 
ATOM     24  C   UNL     1       1.401   8.946  19.512  0.00  0.00    +0.000 A 
ATOM     25  C   UNL     1       0.992  10.278  18.948  0.00  0.00    +0.000 C 
ATOM     26  C   UNL     1       2.198   8.035  18.801  0.00  0.00    +0.000 A 
ATOM     27 CL   UNL     1       2.807   8.415  17.229  0.00  0.00    +0.000 Cl
ATOM     28  C   UNL     1       2.503   6.775  19.338  0.00  0.00    +0.000 A 
ENDBRANCH  19  21
ENDBRANCH  16  17
ENDBRANCH  15  16
ENDBRANCH   4  15
TORSDOF 7
ENDMDL
MODEL 5
REMARK VINA RESULT:      -7.4      1.425      1.701
REMARK  Name = 
REMARK  9 active torsions:
REMARK  status: ('A' for Active; 'I' for Inactive)
REMARK    1  A    between atoms: C_1  and  C_2
REMARK    2  A    between atoms: C_6  and  O_7
REMARK    3  A    between atoms: O_7  and  C_8
REMARK    4  A    between atoms: C_8  and  C_9
REMARK    5  A    between atoms: C_12  and  S_13
REMARK    6  A    between atoms: S_13  and  C_14
REMARK    7  A    between atoms: C_14  and  C_15
REMARK    8  A    between atoms: N_17  and  C_18
REMARK    9  A    between atoms: C_21  and  C_22
REMARK                            x       y       z     vdW  Elec       q    Type
REMARK                         _______ _______ _______ _____ _____    ______ ____
ROOT
ATOM      1  C   UNL     1       4.968   4.631  17.322  0.00  0.00    +0.000 A 
ATOM      2  N   UNL     1       3.781   4.907  16.817  0.00  0.00    +0.000 NA
ATOM      3  N   UNL     1       2.875   4.138  17.513  0.00  0.00    +0.000 NA
ATOM      4  C   UNL     1       3.566   3.439  18.393  0.00  0.00    +0.000 A 
ATOM      5  O   UNL     1       4.906   3.712  18.338  0.00  0.00    +0.000 OA
ENDROOT
BRANCH   1   6
ATOM      6  C   UNL     1       6.299   5.198  16.986  0.00  0.00    +0.000 C 
BRANCH   6   7
ATOM      7  O   UNL     1       7.015   4.202  16.257  0.00  0.00    +0.000 OA
BRANCH   7  13
ATOM      8  C   UNL     1       5.154   2.915  11.814  0.00  0.00    +0.000 C 
ATOM      9  C   UNL     1       6.101   3.698  12.678  0.00  0.00    +0.000 A 
ATOM     10  C   UNL     1       7.025   4.580  12.105  0.00  0.00    +0.000 A 
ATOM     11  C   UNL     1       7.904   5.296  12.913  0.00  0.00    +0.000 A 
ATOM     12  C   UNL     1       7.864   5.135  14.300  0.00  0.00    +0.000 A 
ATOM     13  C   UNL     1       6.949   4.262  14.890  0.00  0.00    +0.000 A 
ATOM     14  C   UNL     1       6.071   3.542  14.074  0.00  0.00    +0.000 A 
ENDBRANCH   7  13
ENDBRANCH   6   7
ENDBRANCH   1   6
BRANCH   4  15
ATOM     15  S   UNL     1       2.870   2.289  19.488  0.00  0.00    +0.000 S 
BRANCH  15  16
ATOM     16  C   UNL     1       2.684   3.309  20.980  0.00  0.00    +0.000 C 
BRANCH  16  17
ATOM     17  C   UNL     1       1.804   4.512  20.694  0.00  0.00    +0.000 C 
ATOM     18  O   UNL     1       0.650   4.344  20.298  0.00  0.00    +0.000 OA
ATOM     19  N   UNL     1       2.426   5.737  20.886  0.00  0.00    +0.000 N 
ATOM     20  H   UNL     1       3.440   5.729  21.004  0.00  0.00    +0.000 HD
BRANCH  19  21
ATOM     21  C   UNL     1       1.847   7.001  20.633  0.00  0.00    +0.000 A 
ATOM     22  C   UNL     1       0.946   7.609  21.509  0.00  0.00    +0.000 A 
ATOM     23  C   UNL     1       0.327   8.814  21.177  0.00  0.00    +0.000 A 
ATOM     24  C   UNL     1       0.601   9.449  19.964  0.00  0.00    +0.000 A 
ATOM     25  C   UNL     1      -0.148  10.704  19.612  0.00  0.00    +0.000 C 
ATOM     26  C   UNL     1       1.546   8.865  19.105  0.00  0.00    +0.000 A 
ATOM     27 CL   UNL     1       1.947   9.590  17.588  0.00  0.00    +0.000 Cl
ATOM     28  C   UNL     1       2.175   7.658  19.444  0.00  0.00    +0.000 A 
ENDBRANCH  19  21
ENDBRANCH  16  17
ENDBRANCH  15  16
ENDBRANCH   4  15
TORSDOF 7
ENDMDL
MODEL 6
REMARK VINA RESULT:      -7.4      3.514      7.902
REMARK  Name = 
REMARK  9 active torsions:
REMARK  status: ('A' for Active; 'I' for Inactive)
REMARK    1  A    between atoms: C_1  and  C_2
REMARK    2  A    between atoms: C_6  and  O_7
REMARK    3  A    between atoms: O_7  and  C_8
REMARK    4  A    between atoms: C_8  and  C_9
REMARK    5  A    between atoms: C_12  and  S_13
REMARK    6  A    between atoms: S_13  and  C_14
REMARK    7  A    between atoms: C_14  and  C_15
REMARK    8  A    between atoms: N_17  and  C_18
REMARK    9  A    between atoms: C_21  and  C_22
REMARK                            x       y       z     vdW  Elec       q    Type
REMARK                         _______ _______ _______ _____ _____    ______ ____
ROOT
ATOM      1  C   UNL     1       1.852   5.611  20.375  0.00  0.00    +0.000 A 
ATOM      2  N   UNL     1       1.898   4.804  21.417  0.00  0.00    +0.000 NA
ATOM      3  N   UNL     1       1.760   3.526  20.924  0.00  0.00    +0.000 NA
ATOM      4  C   UNL     1       1.633   3.635  19.615  0.00  0.00    +0.000 A 
ATOM      5  O   UNL     1       1.695   4.935  19.193  0.00  0.00    +0.000 OA
ENDROOT
BRANCH   1   6
ATOM      6  C   UNL     1       1.992   7.089  20.311  0.00  0.00    +0.000 C 
BRANCH   6   7
ATOM      7  O   UNL     1       1.451   7.621  21.518  0.00  0.00    +0.000 OA
BRANCH   7  13
ATOM      8  C   UNL     1      -0.614  11.399  19.002  0.00  0.00    +0.000 C 
ATOM      9  C   UNL     1      -0.336  10.648  20.273  0.00  0.00    +0.000 A 
ATOM     10  C   UNL     1      -0.839  11.106  21.496  0.00  0.00    +0.000 A 
ATOM     11  C   UNL     1      -0.570  10.407  22.670  0.00  0.00    +0.000 A 
ATOM     12  C   UNL     1       0.204   9.245  22.628  0.00  0.00    +0.000 A 
ATOM     13  C   UNL     1       0.713   8.771  21.417  0.00  0.00    +0.000 A 
ATOM     14  C   UNL     1       0.443   9.478  20.242  0.00  0.00    +0.000 A 
ENDBRANCH   7  13
ENDBRANCH   6   7
ENDBRANCH   1   6
BRANCH   4  15
ATOM     15  S   UNL     1       1.394   2.293  18.543  0.00  0.00    +0.000 S 
BRANCH  15  16
ATOM     16  C   UNL     1       3.066   1.583  18.509  0.00  0.00    +0.000 C 
BRANCH  16  17
ATOM     17  C   UNL     1       4.108   2.668  18.708  0.00  0.00    +0.000 C 
ATOM     18  O   UNL     1       4.810   2.661  19.721  0.00  0.00    +0.000 OA
ATOM     19  N   UNL     1       4.146   3.620  17.701  0.00  0.00    +0.000 N 
ATOM     20  H   UNL     1       3.369   3.626  17.038  0.00  0.00    +0.000 HD
BRANCH  19  21
ATOM     21  C   UNL     1       4.980   4.760  17.679  0.00  0.00    +0.000 A 
ATOM     22  C   UNL     1       4.773   5.831  16.807  0.00  0.00    +0.000 A 
ATOM     23  C   UNL     1       5.674   6.895  16.752  0.00  0.00    +0.000 A 
ATOM     24  C   UNL     1       6.800   6.922  17.578  0.00  0.00    +0.000 A 
ATOM     25  C   UNL     1       7.786   8.047  17.431  0.00  0.00    +0.000 C 
ATOM     26  C   UNL     1       6.982   5.870  18.491  0.00  0.00    +0.000 A 
ATOM     27 CL   UNL     1       8.345   5.831  19.553  0.00  0.00    +0.000 Cl
ATOM     28  C   UNL     1       6.070   4.806  18.551  0.00  0.00    +0.000 A 
ENDBRANCH  19  21
ENDBRANCH  16  17
ENDBRANCH  15  16
ENDBRANCH   4  15
TORSDOF 7
ENDMDL
MODEL 7
REMARK VINA RESULT:      -7.3      4.919      6.134
REMARK  Name = 
REMARK  9 active torsions:
REMARK  status: ('A' for Active; 'I' for Inactive)
REMARK    1  A    between atoms: C_1  and  C_2
REMARK    2  A    between atoms: C_6  and  O_7
REMARK    3  A    between atoms: O_7  and  C_8
REMARK    4  A    between atoms: C_8  and  C_9
REMARK    5  A    between atoms: C_12  and  S_13
REMARK    6  A    between atoms: S_13  and  C_14
REMARK    7  A    between atoms: C_14  and  C_15
REMARK    8  A    between atoms: N_17  and  C_18
REMARK    9  A    between atoms: C_21  and  C_22
REMARK                            x       y       z     vdW  Elec       q    Type
REMARK                         _______ _______ _______ _____ _____    ______ ____
ROOT
ATOM      1  C   UNL     1       7.757   7.307  18.023  0.00  0.00    +0.000 A 
ATOM      2  N   UNL     1       7.424   7.330  16.747  0.00  0.00    +0.000 NA
ATOM      3  N   UNL     1       6.515   6.311  16.565  0.00  0.00    +0.000 NA
ATOM      4  C   UNL     1       6.355   5.730  17.739  0.00  0.00    +0.000 A 
ATOM      5  O   UNL     1       7.106   6.321  18.719  0.00  0.00    +0.000 OA
ENDROOT
BRANCH   1   6
ATOM      6  C   UNL     1       8.665   8.204  18.784  0.00  0.00    +0.000 C 
BRANCH   6   7
ATOM      7  O   UNL     1       8.423   9.535  18.334  0.00  0.00    +0.000 OA
BRANCH   7  13
ATOM      8  C   UNL     1      11.932  12.947  17.380  0.00  0.00    +0.000 C 
ATOM      9  C   UNL     1      11.054  12.177  18.325  0.00  0.00    +0.000 A 
ATOM     10  C   UNL     1      11.125  12.400  19.705  0.00  0.00    +0.000 A 
ATOM     11  C   UNL     1      10.312  11.677  20.573  0.00  0.00    +0.000 A 
ATOM     12  C   UNL     1       9.423  10.726  20.068  0.00  0.00    +0.000 A 
ATOM     13  C   UNL     1       9.337  10.491  18.694  0.00  0.00    +0.000 A 
ATOM     14  C   UNL     1      10.158  11.217  17.826  0.00  0.00    +0.000 A 
ENDBRANCH   7  13
ENDBRANCH   6   7
ENDBRANCH   1   6
BRANCH   4  15
ATOM     15  S   UNL     1       5.329   4.360  18.018  0.00  0.00    +0.000 S 
BRANCH  15  16
ATOM     16  C   UNL     1       3.723   5.026  17.490  0.00  0.00    +0.000 C 
BRANCH  16  17
ATOM     17  C   UNL     1       3.259   6.113  18.442  0.00  0.00    +0.000 C 
ATOM     18  O   UNL     1       3.497   6.012  19.647  0.00  0.00    +0.000 OA
ATOM     19  N   UNL     1       2.554   7.143  17.838  0.00  0.00    +0.000 N 
ATOM     20  H   UNL     1       2.243   6.991  16.877  0.00  0.00    +0.000 HD
BRANCH  19  21
ATOM     21  C   UNL     1       1.965   8.239  18.507  0.00  0.00    +0.000 A 
ATOM     22  C   UNL     1       1.748   9.473  17.891  0.00  0.00    +0.000 A 
ATOM     23  C   UNL     1       1.250  10.557  18.615  0.00  0.00    +0.000 A 
ATOM     24  C   UNL     1       0.945  10.432  19.972  0.00  0.00    +0.000 A 
ATOM     25  C   UNL     1       0.486  11.645  20.731  0.00  0.00    +0.000 C 
ATOM     26  C   UNL     1       1.114   9.178  20.580  0.00  0.00    +0.000 A 
ATOM     27 CL   UNL     1       0.754   8.937  22.253  0.00  0.00    +0.000 Cl
ATOM     28  C   UNL     1       1.606   8.086  19.849  0.00  0.00    +0.000 A 
ENDBRANCH  19  21
ENDBRANCH  16  17
ENDBRANCH  15  16
ENDBRANCH   4  15
TORSDOF 7
ENDMDL
MODEL 8
REMARK VINA RESULT:      -7.3      3.028      7.627
REMARK  Name = 
REMARK  9 active torsions:
REMARK  status: ('A' for Active; 'I' for Inactive)
REMARK    1  A    between atoms: C_1  and  C_2
REMARK    2  A    between atoms: C_6  and  O_7
REMARK    3  A    between atoms: O_7  and  C_8
REMARK    4  A    between atoms: C_8  and  C_9
REMARK    5  A    between atoms: C_12  and  S_13
REMARK    6  A    between atoms: S_13  and  C_14
REMARK    7  A    between atoms: C_14  and  C_15
REMARK    8  A    between atoms: N_17  and  C_18
REMARK    9  A    between atoms: C_21  and  C_22
REMARK                            x       y       z     vdW  Elec       q    Type
REMARK                         _______ _______ _______ _____ _____    ______ ____
ROOT
ATOM      1  C   UNL     1       1.852   5.453  18.140  0.00  0.00    +0.000 A 
ATOM      2  N   UNL     1       1.300   4.533  17.370  0.00  0.00    +0.000 NA
ATOM      3  N   UNL     1       1.084   3.436  18.173  0.00  0.00    +0.000 NA
ATOM      4  C   UNL     1       1.521   3.752  19.377  0.00  0.00    +0.000 A 
ATOM      5  O   UNL     1       2.012   5.028  19.434  0.00  0.00    +0.000 OA
ENDROOT
BRANCH   1   6
ATOM      6  C   UNL     1       2.256   6.845  17.815  0.00  0.00    +0.000 C 
BRANCH   6   7
ATOM      7  O   UNL     1       2.609   7.483  19.041  0.00  0.00    +0.000 OA
BRANCH   7  13
ATOM      8  C   UNL     1      -0.163   9.359  22.737  0.00  0.00    +0.000 C 
ATOM      9  C   UNL     1       0.315   9.348  21.313  0.00  0.00    +0.000 A 
ATOM     10  C   UNL     1      -0.168  10.284  20.392  0.00  0.00    +0.000 A 
ATOM     11  C   UNL     1       0.276  10.262  19.072  0.00  0.00    +0.000 A 
ATOM     12  C   UNL     1       1.206   9.304  18.666  0.00  0.00    +0.000 A 
ATOM     13  C   UNL     1       1.701   8.362  19.570  0.00  0.00    +0.000 A 
ATOM     14  C   UNL     1       1.250   8.386  20.893  0.00  0.00    +0.000 A 
ENDBRANCH   7  13
ENDBRANCH   6   7
ENDBRANCH   1   6
BRANCH   4  15
ATOM     15  S   UNL     1       1.500   2.677  20.737  0.00  0.00    +0.000 S 
BRANCH  15  16
ATOM     16  C   UNL     1       3.279   2.499  21.058  0.00  0.00    +0.000 C 
BRANCH  16  17
ATOM     17  C   UNL     1       4.060   2.534  19.757  0.00  0.00    +0.000 C 
ATOM     18  O   UNL     1       4.202   1.499  19.102  0.00  0.00    +0.000 OA
ATOM     19  N   UNL     1       4.586   3.776  19.437  0.00  0.00    +0.000 N 
ATOM     20  H   UNL     1       4.578   4.487  20.170  0.00  0.00    +0.000 HD
BRANCH  19  21
ATOM     21  C   UNL     1       5.398   4.060  18.316  0.00  0.00    +0.000 A 
ATOM     22  C   UNL     1       6.700   4.552  18.431  0.00  0.00    +0.000 A 
ATOM     23  C   UNL     1       7.435   4.908  17.300  0.00  0.00    +0.000 A 
ATOM     24  C   UNL     1       6.891   4.769  16.021  0.00  0.00    +0.000 A 
ATOM     25  C   UNL     1       7.686   5.238  14.835  0.00  0.00    +0.000 C 
ATOM     26  C   UNL     1       5.601   4.227  15.901  0.00  0.00    +0.000 A 
ATOM     27 CL   UNL     1       4.858   4.016  14.355  0.00  0.00    +0.000 Cl
ATOM     28  C   UNL     1       4.867   3.861  17.039  0.00  0.00    +0.000 A 
ENDBRANCH  19  21
ENDBRANCH  16  17
ENDBRANCH  15  16
ENDBRANCH   4  15
TORSDOF 7
ENDMDL
MODEL 9
REMARK VINA RESULT:      -7.2      7.185      8.442
REMARK  Name = 
REMARK  9 active torsions:
REMARK  status: ('A' for Active; 'I' for Inactive)
REMARK    1  A    between atoms: C_1  and  C_2
REMARK    2  A    between atoms: C_6  and  O_7
REMARK    3  A    between atoms: O_7  and  C_8
REMARK    4  A    between atoms: C_8  and  C_9
REMARK    5  A    between atoms: C_12  and  S_13
REMARK    6  A    between atoms: S_13  and  C_14
REMARK    7  A    between atoms: C_14  and  C_15
REMARK    8  A    between atoms: N_17  and  C_18
REMARK    9  A    between atoms: C_21  and  C_22
REMARK                            x       y       z     vdW  Elec       q    Type
REMARK                         _______ _______ _______ _____ _____    ______ ____
ROOT
ATOM      1  C   UNL     1       7.289   5.880  17.101  0.00  0.00    +0.000 A 
ATOM      2  N   UNL     1       7.716   5.731  18.340  0.00  0.00    +0.000 NA
ATOM      3  N   UNL     1       8.067   6.986  18.783  0.00  0.00    +0.000 NA
ATOM      4  C   UNL     1       7.837   7.820  17.787  0.00  0.00    +0.000 A 
ATOM      5  O   UNL     1       7.327   7.187  16.686  0.00  0.00    +0.000 OA
ENDROOT
BRANCH   1   6
ATOM      6  C   UNL     1       6.746   4.871  16.155  0.00  0.00    +0.000 C 
BRANCH   6   7
ATOM      7  O   UNL     1       5.445   5.308  15.767  0.00  0.00    +0.000 OA
BRANCH   7  13
ATOM      8  C   UNL     1       2.178   2.353  18.102  0.00  0.00    +0.000 C 
ATOM      9  C   UNL     1       2.790   3.697  17.830  0.00  0.00    +0.000 A 
ATOM     10  C   UNL     1       2.320   4.840  18.487  0.00  0.00    +0.000 A 
ATOM     11  C   UNL     1       2.890   6.083  18.224  0.00  0.00    +0.000 A 
ATOM     12  C   UNL     1       3.934   6.191  17.303  0.00  0.00    +0.000 A 
ATOM     13  C   UNL     1       4.418   5.061  16.639  0.00  0.00    +0.000 A 
ATOM     14  C   UNL     1       3.841   3.817  16.904  0.00  0.00    +0.000 A 
ENDBRANCH   7  13
ENDBRANCH   6   7
ENDBRANCH   1   6
BRANCH   4  15
ATOM     15  S   UNL     1       8.156   9.523  17.845  0.00  0.00    +0.000 S 
BRANCH  15  16
ATOM     16  C   UNL     1       9.270   9.611  19.278  0.00  0.00    +0.000 C 
BRANCH  16  17
ATOM     17  C   UNL     1       9.602  11.056  19.605  0.00  0.00    +0.000 C 
ATOM     18  O   UNL     1       9.086  11.594  20.586  0.00  0.00    +0.000 OA
ATOM     19  N   UNL     1      10.467  11.664  18.707  0.00  0.00    +0.000 N 
ATOM     20  H   UNL     1      10.643  11.174  17.828  0.00  0.00    +0.000 HD
BRANCH  19  21
ATOM     21  C   UNL     1      10.882  13.013  18.752  0.00  0.00    +0.000 A 
ATOM     22  C   UNL     1      12.000  13.437  19.475  0.00  0.00    +0.000 A 
ATOM     23  C   UNL     1      12.321  14.791  19.569  0.00  0.00    +0.000 A 
ATOM     24  C   UNL     1      11.539  15.758  18.933  0.00  0.00    +0.000 A 
ATOM     25  C   UNL     1      11.875  17.210  19.125  0.00  0.00    +0.000 C 
ATOM     26  C   UNL     1      10.446  15.329  18.163  0.00  0.00    +0.000 A 
ATOM     27 CL   UNL     1       9.432  16.460  17.339  0.00  0.00    +0.000 Cl
ATOM     28  C   UNL     1      10.129  13.966  18.062  0.00  0.00    +0.000 A 
ENDBRANCH  19  21
ENDBRANCH  16  17
ENDBRANCH  15  16
ENDBRANCH   4  15
TORSDOF 7
ENDMDL
