MODEL 1
REMARK VINA RESULT:      -7.9      0.000      0.000
REMARK  Name = 
REMARK  1 active torsions:
REMARK  status: ('A' for Active; 'I' for Inactive)
REMARK    1  A    between atoms: N_1  and  N_2
REMARK                            x       y       z     vdW  Elec       q    Type
REMARK                         _______ _______ _______ _____ _____    ______ ____
ROOT
ATOM      1  N   UNL     1       6.823   4.841  15.119  0.00  0.00    +0.000 NA
ATOM      2  C   UNL     1       6.552   5.228  16.331  0.00  0.00    +0.000 C 
ATOM      3  C   UNL     1       7.220   6.347  17.128  0.00  0.00    +0.000 C 
ATOM      4  C   UNL     1       7.551   5.847  18.544  0.00  0.00    +0.000 C 
ATOM      5  C   UNL     1       6.307   5.366  19.316  0.00  0.00    +0.000 C 
ATOM      6  C   UNL     1       5.359   4.620  18.436  0.00  0.00    +0.000 A 
ATOM      7  C   UNL     1       5.502   4.563  17.062  0.00  0.00    +0.000 A 
ATOM      8  N   UNL     1       4.486   3.798  16.557  0.00  0.00    +0.000 N 
ATOM      9  C   UNL     1       3.629   3.432  17.575  0.00  0.00    +0.000 A 
ATOM     10  C   UNL     1       2.420   2.726  17.525  0.00  0.00    +0.000 A 
ATOM     11  C   UNL     1       1.754   2.502  18.737  0.00  0.00    +0.000 A 
ATOM     12  C   UNL     1       2.286   2.961  19.941  0.00  0.00    +0.000 A 
ATOM     13 CL   UNL     1       1.440   2.664  21.412  0.00  0.00    +0.000 Cl
ATOM     14  C   UNL     1       3.493   3.663  19.978  0.00  0.00    +0.000 A 
ATOM     15  C   UNL     1       4.171   3.916  18.769  0.00  0.00    +0.000 A 
ATOM     16  H   UNL     1       4.365   3.591  15.576  0.00  0.00    +0.000 HD
ENDROOT
BRANCH   1  17
ATOM     17  N   UNL     1       7.841   5.461  14.482  0.00  0.00    +0.000 N 
ATOM     18  H   UNL     1       8.267   4.817  13.811  0.00  0.00    +0.000 HD
ATOM     19  H   UNL     1       8.594   5.736  15.116  0.00  0.00    +0.000 HD
ENDBRANCH   1  17
TORSDOF 1
ENDMDL
MODEL 2
REMARK VINA RESULT:      -7.6      3.311      5.920
REMARK  Name = 
REMARK  1 active torsions:
REMARK  status: ('A' for Active; 'I' for Inactive)
REMARK    1  A    between atoms: N_1  and  N_2
REMARK                            x       y       z     vdW  Elec       q    Type
REMARK                         _______ _______ _______ _____ _____    ______ ____
ROOT
ATOM      1  N   UNL     1       2.964   3.087  21.396  0.00  0.00    +0.000 NA
ATOM      2  C   UNL     1       2.645   3.429  20.183  0.00  0.00    +0.000 C 
ATOM      3  C   UNL     1       1.247   3.625  19.601  0.00  0.00    +0.000 C 
ATOM      4  C   UNL     1       1.143   2.907  18.246  0.00  0.00    +0.000 C 
ATOM      5  C   UNL     1       2.179   3.410  17.220  0.00  0.00    +0.000 C 
ATOM      6  C   UNL     1       3.505   3.679  17.853  0.00  0.00    +0.000 A 
ATOM      7  C   UNL     1       3.694   3.669  19.223  0.00  0.00    +0.000 A 
ATOM      8  N   UNL     1       5.013   3.937  19.474  0.00  0.00    +0.000 N 
ATOM      9  C   UNL     1       5.665   4.213  18.289  0.00  0.00    +0.000 A 
ATOM     10  C   UNL     1       6.988   4.617  18.061  0.00  0.00    +0.000 A 
ATOM     11  C   UNL     1       7.376   4.831  16.732  0.00  0.00    +0.000 A 
ATOM     12  C   UNL     1       6.477   4.639  15.685  0.00  0.00    +0.000 A 
ATOM     13 CL   UNL     1       6.992   4.910  14.063  0.00  0.00    +0.000 Cl
ATOM     14  C   UNL     1       5.162   4.235  15.924  0.00  0.00    +0.000 A 
ATOM     15  C   UNL     1       4.743   4.032  17.255  0.00  0.00    +0.000 A 
ATOM     16  H   UNL     1       5.418   3.980  20.398  0.00  0.00    +0.000 HD
ENDROOT
BRANCH   1  17
ATOM     17  N   UNL     1       1.952   2.830  22.255  0.00  0.00    +0.000 N 
ATOM     18  H   UNL     1       1.246   3.566  22.181  0.00  0.00    +0.000 HD
ATOM     19  H   UNL     1       2.254   2.835  23.231  0.00  0.00    +0.000 HD
ENDBRANCH   1  17
TORSDOF 1
ENDMDL
MODEL 3
REMARK VINA RESULT:      -7.5      3.708      5.403
REMARK  Name = 
REMARK  1 active torsions:
REMARK  status: ('A' for Active; 'I' for Inactive)
REMARK    1  A    between atoms: N_1  and  N_2
REMARK                            x       y       z     vdW  Elec       q    Type
REMARK                         _______ _______ _______ _____ _____    ______ ____
ROOT
ATOM      1  N   UNL     1       8.061   5.255  18.867  0.00  0.00    +0.000 NA
ATOM      2  C   UNL     1       6.868   5.054  18.389  0.00  0.00    +0.000 C 
ATOM      3  C   UNL     1       5.537   5.110  19.135  0.00  0.00    +0.000 C 
ATOM      4  C   UNL     1       4.689   3.880  18.774  0.00  0.00    +0.000 C 
ATOM      5  C   UNL     1       4.402   3.773  17.263  0.00  0.00    +0.000 C 
ATOM      6  C   UNL     1       5.587   4.162  16.442  0.00  0.00    +0.000 A 
ATOM      7  C   UNL     1       6.717   4.741  16.989  0.00  0.00    +0.000 A 
ATOM      8  N   UNL     1       7.616   4.962  15.980  0.00  0.00    +0.000 N 
ATOM      9  C   UNL     1       7.049   4.620  14.770  0.00  0.00    +0.000 A 
ATOM     10  C   UNL     1       7.554   4.749  13.469  0.00  0.00    +0.000 A 
ATOM     11  C   UNL     1       6.740   4.314  12.415  0.00  0.00    +0.000 A 
ATOM     12  C   UNL     1       5.482   3.768  12.662  0.00  0.00    +0.000 A 
ATOM     13 CL   UNL     1       4.511   3.241  11.340  0.00  0.00    +0.000 Cl
ATOM     14  C   UNL     1       4.989   3.642  13.962  0.00  0.00    +0.000 A 
ATOM     15  C   UNL     1       5.783   4.091  15.037  0.00  0.00    +0.000 A 
ATOM     16  H   UNL     1       8.530   5.369  16.114  0.00  0.00    +0.000 HD
ENDROOT
BRANCH   1  17
ATOM     17  N   UNL     1       8.165   5.505  20.191  0.00  0.00    +0.000 N 
ATOM     18  H   UNL     1       8.487   6.466  20.333  0.00  0.00    +0.000 HD
ATOM     19  H   UNL     1       8.858   4.912  20.651  0.00  0.00    +0.000 HD
ENDBRANCH   1  17
TORSDOF 1
ENDMDL
MODEL 4
REMARK VINA RESULT:      -7.1      1.490      1.556
REMARK  Name = 
REMARK  1 active torsions:
REMARK  status: ('A' for Active; 'I' for Inactive)
REMARK    1  A    between atoms: N_1  and  N_2
REMARK                            x       y       z     vdW  Elec       q    Type
REMARK                         _______ _______ _______ _____ _____    ______ ____
ROOT
ATOM      1  N   UNL     1       6.757   4.545  15.105  0.00  0.00    +0.000 NA
ATOM      2  C   UNL     1       5.781   5.168  15.696  0.00  0.00    +0.000 C 
ATOM      3  C   UNL     1       5.310   6.603  15.469  0.00  0.00    +0.000 C 
ATOM      4  C   UNL     1       5.110   7.304  16.822  0.00  0.00    +0.000 C 
ATOM      5  C   UNL     1       4.086   6.586  17.723  0.00  0.00    +0.000 C 
ATOM      6  C   UNL     1       4.208   5.100  17.633  0.00  0.00    +0.000 A 
ATOM      7  C   UNL     1       5.007   4.473  16.695  0.00  0.00    +0.000 A 
ATOM      8  N   UNL     1       4.909   3.121  16.886  0.00  0.00    +0.000 N 
ATOM      9  C   UNL     1       3.984   2.857  17.875  0.00  0.00    +0.000 A 
ATOM     10  C   UNL     1       3.497   1.632  18.351  0.00  0.00    +0.000 A 
ATOM     11  C   UNL     1       2.544   1.671  19.376  0.00  0.00    +0.000 A 
ATOM     12  C   UNL     1       2.110   2.886  19.903  0.00  0.00    +0.000 A 
ATOM     13 CL   UNL     1       0.938   2.895  21.166  0.00  0.00    +0.000 Cl
ATOM     14  C   UNL     1       2.603   4.101  19.422  0.00  0.00    +0.000 A 
ATOM     15  C   UNL     1       3.549   4.086  18.377  0.00  0.00    +0.000 A 
ATOM     16  H   UNL     1       5.403   2.432  16.336  0.00  0.00    +0.000 HD
ENDROOT
BRANCH   1  17
ATOM     17  N   UNL     1       7.485   5.244  14.205  0.00  0.00    +0.000 N 
ATOM     18  H   UNL     1       7.759   4.628  13.435  0.00  0.00    +0.000 HD
ATOM     19  H   UNL     1       8.359   5.600  14.596  0.00  0.00    +0.000 HD
ENDBRANCH   1  17
TORSDOF 1
ENDMDL
MODEL 5
REMARK VINA RESULT:      -6.9      4.110      5.142
REMARK  Name = 
REMARK  1 active torsions:
REMARK  status: ('A' for Active; 'I' for Inactive)
REMARK    1  A    between atoms: N_1  and  N_2
REMARK                            x       y       z     vdW  Elec       q    Type
REMARK                         _______ _______ _______ _____ _____    ______ ____
ROOT
ATOM      1  N   UNL     1       4.338   3.050  20.016  0.00  0.00    +0.000 NA
ATOM      2  C   UNL     1       4.086   3.797  18.982  0.00  0.00    +0.000 C 
ATOM      3  C   UNL     1       4.359   3.486  17.512  0.00  0.00    +0.000 C 
ATOM      4  C   UNL     1       5.024   4.698  16.840  0.00  0.00    +0.000 C 
ATOM      5  C   UNL     1       4.165   5.975  16.922  0.00  0.00    +0.000 C 
ATOM      6  C   UNL     1       3.482   6.103  18.244  0.00  0.00    +0.000 A 
ATOM      7  C   UNL     1       3.471   5.086  19.181  0.00  0.00    +0.000 A 
ATOM      8  N   UNL     1       2.778   5.522  20.277  0.00  0.00    +0.000 N 
ATOM      9  C   UNL     1       2.257   6.776  20.030  0.00  0.00    +0.000 A 
ATOM     10  C   UNL     1       1.419   7.576  20.819  0.00  0.00    +0.000 A 
ATOM     11  C   UNL     1       1.042   8.822  20.300  0.00  0.00    +0.000 A 
ATOM     12  C   UNL     1       1.494   9.243  19.051  0.00  0.00    +0.000 A 
ATOM     13 CL   UNL     1       1.011  10.782  18.447  0.00  0.00    +0.000 Cl
ATOM     14  C   UNL     1       2.330   8.437  18.274  0.00  0.00    +0.000 A 
ATOM     15  C   UNL     1       2.708   7.172  18.768  0.00  0.00    +0.000 A 
ATOM     16  H   UNL     1       2.630   4.972  21.111  0.00  0.00    +0.000 HD
ENDROOT
BRANCH   1  17
ATOM     17  N   UNL     1       4.953   1.867  19.792  0.00  0.00    +0.000 N 
ATOM     18  H   UNL     1       5.029   1.350  20.672  0.00  0.00    +0.000 HD
ATOM     19  H   UNL     1       5.911   1.979  19.456  0.00  0.00    +0.000 HD
ENDBRANCH   1  17
TORSDOF 1
ENDMDL
MODEL 6
REMARK VINA RESULT:      -6.9      2.042      2.686
REMARK  Name = 
REMARK  1 active torsions:
REMARK  status: ('A' for Active; 'I' for Inactive)
REMARK    1  A    between atoms: N_1  and  N_2
REMARK                            x       y       z     vdW  Elec       q    Type
REMARK                         _______ _______ _______ _____ _____    ______ ____
ROOT
ATOM      1  N   UNL     1       6.749   7.548  17.626  0.00  0.00    +0.000 NA
ATOM      2  C   UNL     1       6.406   6.368  17.200  0.00  0.00    +0.000 C 
ATOM      3  C   UNL     1       7.150   5.477  16.207  0.00  0.00    +0.000 C 
ATOM      4  C   UNL     1       6.164   4.927  15.164  0.00  0.00    +0.000 C 
ATOM      5  C   UNL     1       5.017   4.112  15.795  0.00  0.00    +0.000 C 
ATOM      6  C   UNL     1       4.533   4.725  17.068  0.00  0.00    +0.000 A 
ATOM      7  C   UNL     1       5.187   5.773  17.689  0.00  0.00    +0.000 A 
ATOM      8  N   UNL     1       4.487   6.106  18.817  0.00  0.00    +0.000 N 
ATOM      9  C   UNL     1       3.437   5.228  18.989  0.00  0.00    +0.000 A 
ATOM     10  C   UNL     1       2.508   5.126  20.033  0.00  0.00    +0.000 A 
ATOM     11  C   UNL     1       1.541   4.117  19.940  0.00  0.00    +0.000 A 
ATOM     12  C   UNL     1       1.506   3.259  18.843  0.00  0.00    +0.000 A 
ATOM     13 CL   UNL     1       0.300   2.032  18.762  0.00  0.00    +0.000 Cl
ATOM     14  C   UNL     1       2.436   3.370  17.807  0.00  0.00    +0.000 A 
ATOM     15  C   UNL     1       3.431   4.366  17.889  0.00  0.00    +0.000 A 
ATOM     16  H   UNL     1       4.748   6.850  19.448  0.00  0.00    +0.000 HD
ENDROOT
BRANCH   1  17
ATOM     17  N   UNL     1       7.877   8.090  17.112  0.00  0.00    +0.000 N 
ATOM     18  H   UNL     1       8.395   8.567  17.854  0.00  0.00    +0.000 HD
ATOM     19  H   UNL     1       7.685   8.804  16.408  0.00  0.00    +0.000 HD
ENDBRANCH   1  17
TORSDOF 1
ENDMDL
MODEL 7
REMARK VINA RESULT:      -6.8      3.778      5.115
REMARK  Name = 
REMARK  1 active torsions:
REMARK  status: ('A' for Active; 'I' for Inactive)
REMARK    1  A    between atoms: N_1  and  N_2
REMARK                            x       y       z     vdW  Elec       q    Type
REMARK                         _______ _______ _______ _____ _____    ______ ____
ROOT
ATOM      1  N   UNL     1       3.660   2.502  17.881  0.00  0.00    +0.000 NA
ATOM      2  C   UNL     1       3.468   3.089  19.025  0.00  0.00    +0.000 C 
ATOM      3  C   UNL     1       3.703   2.518  20.422  0.00  0.00    +0.000 C 
ATOM      4  C   UNL     1       2.489   2.818  21.316  0.00  0.00    +0.000 C 
ATOM      5  C   UNL     1       2.196   4.326  21.442  0.00  0.00    +0.000 C 
ATOM      6  C   UNL     1       2.400   5.044  20.148  0.00  0.00    +0.000 A 
ATOM      7  C   UNL     1       2.979   4.445  19.045  0.00  0.00    +0.000 A 
ATOM      8  N   UNL     1       3.007   5.360  18.027  0.00  0.00    +0.000 N 
ATOM      9  C   UNL     1       2.539   6.576  18.482  0.00  0.00    +0.000 A 
ATOM     10  C   UNL     1       2.461   7.813  17.828  0.00  0.00    +0.000 A 
ATOM     11  C   UNL     1       1.937   8.892  18.552  0.00  0.00    +0.000 A 
ATOM     12  C   UNL     1       1.505   8.729  19.867  0.00  0.00    +0.000 A 
ATOM     13 CL   UNL     1       0.864  10.079  20.724  0.00  0.00    +0.000 Cl
ATOM     14  C   UNL     1       1.586   7.491  20.508  0.00  0.00    +0.000 A 
ATOM     15  C   UNL     1       2.128   6.395  19.805  0.00  0.00    +0.000 A 
ATOM     16  H   UNL     1       3.373   5.172  17.105  0.00  0.00    +0.000 HD
ENDROOT
BRANCH   1  17
ATOM     17  N   UNL     1       4.080   1.217  17.905  0.00  0.00    +0.000 N 
ATOM     18  H   UNL     1       4.476   1.004  18.824  0.00  0.00    +0.000 HD
ATOM     19  H   UNL     1       4.829   1.035  17.234  0.00  0.00    +0.000 HD
ENDBRANCH   1  17
TORSDOF 1
ENDMDL
MODEL 8
REMARK VINA RESULT:      -6.6      3.230      5.643
REMARK  Name = 
REMARK  1 active torsions:
REMARK  status: ('A' for Active; 'I' for Inactive)
REMARK    1  A    between atoms: N_1  and  N_2
REMARK                            x       y       z     vdW  Elec       q    Type
REMARK                         _______ _______ _______ _____ _____    ______ ____
ROOT
ATOM      1  N   UNL     1       3.123   1.940  18.916  0.00  0.00    +0.000 NA
ATOM      2  C   UNL     1       2.955   3.226  18.815  0.00  0.00    +0.000 C 
ATOM      3  C   UNL     1       1.650   4.012  18.920  0.00  0.00    +0.000 C 
ATOM      4  C   UNL     1       1.561   5.024  17.766  0.00  0.00    +0.000 C 
ATOM      5  C   UNL     1       2.736   6.020  17.749  0.00  0.00    +0.000 C 
ATOM      6  C   UNL     1       4.030   5.362  18.101  0.00  0.00    +0.000 A 
ATOM      7  C   UNL     1       4.103   4.066  18.579  0.00  0.00    +0.000 A 
ATOM      8  N   UNL     1       5.421   3.762  18.790  0.00  0.00    +0.000 N 
ATOM      9  C   UNL     1       6.200   4.874  18.543  0.00  0.00    +0.000 A 
ATOM     10  C   UNL     1       7.580   5.061  18.702  0.00  0.00    +0.000 A 
ATOM     11  C   UNL     1       8.102   6.318  18.371  0.00  0.00    +0.000 A 
ATOM     12  C   UNL     1       7.275   7.333  17.895  0.00  0.00    +0.000 A 
ATOM     13 CL   UNL     1       7.954   8.865  17.495  0.00  0.00    +0.000 Cl
ATOM     14  C   UNL     1       5.901   7.135  17.739  0.00  0.00    +0.000 A 
ATOM     15  C   UNL     1       5.351   5.884  18.084  0.00  0.00    +0.000 A 
ATOM     16  H   UNL     1       5.750   2.870  19.131  0.00  0.00    +0.000 HD
ENDROOT
BRANCH   1  17
ATOM     17  N   UNL     1       2.018   1.182  19.095  0.00  0.00    +0.000 N 
ATOM     18  H   UNL     1       1.284   1.746  19.532  0.00  0.00    +0.000 HD
ATOM     19  H   UNL     1       2.177   0.398  19.731  0.00  0.00    +0.000 HD
ENDBRANCH   1  17
TORSDOF 1
ENDMDL
MODEL 9
REMARK VINA RESULT:      -6.5      3.016      5.482
REMARK  Name = 
REMARK  1 active torsions:
REMARK  status: ('A' for Active; 'I' for Inactive)
REMARK    1  A    between atoms: N_1  and  N_2
REMARK                            x       y       z     vdW  Elec       q    Type
REMARK                         _______ _______ _______ _____ _____    ______ ____
ROOT
ATOM      1  N   UNL     1       1.895   2.073  18.268  0.00  0.00    +0.000 NA
ATOM      2  C   UNL     1       2.340   3.096  18.937  0.00  0.00    +0.000 C 
ATOM      3  C   UNL     1       1.833   3.634  20.274  0.00  0.00    +0.000 C 
ATOM      4  C   UNL     1       1.668   5.160  20.190  0.00  0.00    +0.000 C 
ATOM      5  C   UNL     1       2.980   5.886  19.832  0.00  0.00    +0.000 C 
ATOM      6  C   UNL     1       3.770   5.136  18.810  0.00  0.00    +0.000 A 
ATOM      7  C   UNL     1       3.445   3.854  18.406  0.00  0.00    +0.000 A 
ATOM      8  N   UNL     1       4.351   3.462  17.459  0.00  0.00    +0.000 N 
ATOM      9  C   UNL     1       5.317   4.436  17.306  0.00  0.00    +0.000 A 
ATOM     10  C   UNL     1       6.477   4.440  16.519  0.00  0.00    +0.000 A 
ATOM     11  C   UNL     1       7.285   5.583  16.569  0.00  0.00    +0.000 A 
ATOM     12  C   UNL     1       6.936   6.671  17.368  0.00  0.00    +0.000 A 
ATOM     13 CL   UNL     1       7.954   8.061  17.401  0.00  0.00    +0.000 Cl
ATOM     14  C   UNL     1       5.778   6.656  18.147  0.00  0.00    +0.000 A 
ATOM     15  C   UNL     1       4.959   5.509  18.127  0.00  0.00    +0.000 A 
ATOM     16  H   UNL     1       4.333   2.566  16.993  0.00  0.00    +0.000 HD
ENDROOT
BRANCH   1  17
ATOM     17  N   UNL     1       0.831   1.413  18.778  0.00  0.00    +0.000 N 
ATOM     18  H   UNL     1      -0.024   1.936  18.574  0.00  0.00    +0.000 HD
ATOM     19  H   UNL     1       0.868   1.332  19.795  0.00  0.00    +0.000 HD
ENDBRANCH   1  17
TORSDOF 1
ENDMDL
