MODEL 1
REMARK VINA RESULT:      -8.7      0.000      0.000
REMARK  Name = 
REMARK  8 active torsions:
REMARK  status: ('A' for Active; 'I' for Inactive)
REMARK    1  A    between atoms: N_1  and  C_2
REMARK    2  A    between atoms: C_8  and  O_9
REMARK    3  A    between atoms: O_9  and  C_10
REMARK    4  A    between atoms: C_10  and  C_11
REMARK    5  A    between atoms: N_14  and  C_15
REMARK    6  A    between atoms: C_15  and  C_16
REMARK    7  A    between atoms: C_16  and  N_17
REMARK    8  A    between atoms: N_17  and  C_18
REMARK                            x       y       z     vdW  Elec       q    Type
REMARK                         _______ _______ _______ _____ _____    ______ ____
ROOT
ATOM      1  C   UNL     1       1.511   2.584  20.167  0.00  0.00    +0.000 C 
ATOM      2  C   UNL     1       0.815   3.517  19.173  0.00  0.00    +0.000 C 
ATOM      3  C   UNL     1       1.490   4.884  19.033  0.00  0.00    +0.000 C 
ATOM      4  N   UNL     1       1.708   5.545  20.331  0.00  0.00    +0.000 NA
ATOM      5  C   UNL     1       2.487   4.685  21.233  0.00  0.00    +0.000 C 
ATOM      6  C   UNL     1       1.757   3.355  21.476  0.00  0.00    +0.000 C 
ENDROOT
BRANCH   1   7
ATOM      7  C   UNL     1       2.854   1.996  19.703  0.00  0.00    +0.000 C 
BRANCH   7   8
ATOM      8  O   UNL     1       3.085   2.044  18.294  0.00  0.00    +0.000 OA
BRANCH   8  15
ATOM      9  C   UNL     1       7.120   5.767  17.247  0.00  0.00    +0.000 A 
ATOM     10  N   UNL     1       7.828   6.265  18.266  0.00  0.00    +0.000 NA
ATOM     11  C   UNL     1       7.509   5.797  19.480  0.00  0.00    +0.000 A 
ATOM     12  N   UNL     1       6.556   4.898  19.764  0.00  0.00    +0.000 NA
ATOM     13  C   UNL     1       5.851   4.415  18.733  0.00  0.00    +0.000 A 
ATOM     14  C   UNL     1       4.829   3.491  18.966  0.00  0.00    +0.000 A 
ATOM     15  C   UNL     1       4.069   2.943  17.926  0.00  0.00    +0.000 A 
ATOM     16  C   UNL     1       4.349   3.337  16.616  0.00  0.00    +0.000 A 
ATOM     17  C   UNL     1       5.351   4.267  16.359  0.00  0.00    +0.000 A 
ATOM     18  C   UNL     1       6.105   4.815  17.414  0.00  0.00    +0.000 A 
BRANCH   9  19
ATOM     19  N   UNL     1       7.416   6.315  15.994  0.00  0.00    +0.000 N 
ATOM     20  H   UNL     1       7.248   7.316  16.054  0.00  0.00    +0.000 HD
ATOM     21  H   UNL     1       8.359   6.105  15.691  0.00  0.00    +0.000 HD
ENDBRANCH   9  19
ENDBRANCH   8  15
ENDBRANCH   7   8
ENDBRANCH   1   7
BRANCH   4  22
ATOM     22  C   UNL     1       2.372   6.860  20.170  0.00  0.00    +0.000 C 
BRANCH  22  23
ATOM     23  C   UNL     1       1.551   8.046  20.724  0.00  0.00    +0.000 C 
BRANCH  23  24
ATOM     24  N   UNL     1       1.083   8.935  19.645  0.00  0.00    +0.000 N 
ATOM     25  H   UNL     1       0.741   8.399  18.853  0.00  0.00    +0.000 HD
BRANCH  24  26
ATOM     26  C   UNL     1       0.137   9.924  20.027  0.00  0.00    +0.000 A 
ATOM     27  C   UNL     1       0.259  10.564  21.274  0.00  0.00    +0.000 A 
ATOM     28  C   UNL     1      -0.641  11.550  21.616  0.00  0.00    +0.000 A 
ATOM     29  N   UNL     1      -1.621  11.986  20.816  0.00  0.00    +0.000 NA
ATOM     30  C   UNL     1      -1.721  11.438  19.596  0.00  0.00    +0.000 A 
ATOM     31  C   UNL     1      -2.721  11.929  18.772  0.00  0.00    +0.000 A 
ATOM     32  C   UNL     1      -2.916  11.446  17.481  0.00  0.00    +0.000 A 
ATOM     33  C   UNL     1      -2.102  10.431  17.002  0.00  0.00    +0.000 A 
ATOM     34  C   UNL     1      -1.097   9.907  17.821  0.00  0.00    +0.000 A 
ATOM     35  C   UNL     1      -0.868  10.400  19.133  0.00  0.00    +0.000 A 
ENDBRANCH  24  26
ENDBRANCH  23  24
ENDBRANCH  22  23
ENDBRANCH   4  22
TORSDOF 8
ENDMDL
MODEL 2
REMARK VINA RESULT:      -8.5      2.195      3.582
REMARK  Name = 
REMARK  8 active torsions:
REMARK  status: ('A' for Active; 'I' for Inactive)
REMARK    1  A    between atoms: N_1  and  C_2
REMARK    2  A    between atoms: C_8  and  O_9
REMARK    3  A    between atoms: O_9  and  C_10
REMARK    4  A    between atoms: C_10  and  C_11
REMARK    5  A    between atoms: N_14  and  C_15
REMARK    6  A    between atoms: C_15  and  C_16
REMARK    7  A    between atoms: C_16  and  N_17
REMARK    8  A    between atoms: N_17  and  C_18
REMARK                            x       y       z     vdW  Elec       q    Type
REMARK                         _______ _______ _______ _____ _____    ______ ____
ROOT
ATOM      1  C   UNL     1       2.581   2.518  17.683  0.00  0.00    +0.000 C 
ATOM      2  C   UNL     1       1.860   3.835  17.388  0.00  0.00    +0.000 C 
ATOM      3  C   UNL     1       1.988   4.873  18.506  0.00  0.00    +0.000 C 
ATOM      4  N   UNL     1       1.611   4.336  19.824  0.00  0.00    +0.000 NA
ATOM      5  C   UNL     1       2.401   3.141  20.149  0.00  0.00    +0.000 C 
ATOM      6  C   UNL     1       2.185   2.047  19.094  0.00  0.00    +0.000 C 
ENDROOT
BRANCH   1   7
ATOM      7  C   UNL     1       4.117   2.567  17.613  0.00  0.00    +0.000 C 
BRANCH   7   8
ATOM      8  O   UNL     1       4.693   3.861  17.795  0.00  0.00    +0.000 OA
BRANCH   8  15
ATOM      9  C   UNL     1       7.764   5.143  13.305  0.00  0.00    +0.000 A 
ATOM     10  N   UNL     1       7.474   4.572  12.131  0.00  0.00    +0.000 NA
ATOM     11  C   UNL     1       6.428   3.735  12.135  0.00  0.00    +0.000 A 
ATOM     12  N   UNL     1       5.665   3.414  13.189  0.00  0.00    +0.000 NA
ATOM     13  C   UNL     1       5.974   3.988  14.359  0.00  0.00    +0.000 A 
ATOM     14  C   UNL     1       5.231   3.678  15.500  0.00  0.00    +0.000 A 
ATOM     15  C   UNL     1       5.501   4.258  16.745  0.00  0.00    +0.000 A 
ATOM     16  C   UNL     1       6.549   5.177  16.841  0.00  0.00    +0.000 A 
ATOM     17  C   UNL     1       7.313   5.491  15.722  0.00  0.00    +0.000 A 
ATOM     18  C   UNL     1       7.036   4.896  14.476  0.00  0.00    +0.000 A 
BRANCH   9  19
ATOM     19  N   UNL     1       8.900   5.961  13.302  0.00  0.00    +0.000 N 
ATOM     20  H   UNL     1       8.588   6.911  13.487  0.00  0.00    +0.000 HD
ATOM     21  H   UNL     1       9.601   5.654  13.964  0.00  0.00    +0.000 HD
ENDBRANCH   9  19
ENDBRANCH   8  15
ENDBRANCH   7   8
ENDBRANCH   1   7
BRANCH   4  22
ATOM     22  C   UNL     1       1.752   5.356  20.891  0.00  0.00    +0.000 C 
BRANCH  22  23
ATOM     23  C   UNL     1       2.038   6.779  20.361  0.00  0.00    +0.000 C 
BRANCH  23  24
ATOM     24  N   UNL     1       1.448   7.812  21.232  0.00  0.00    +0.000 N 
ATOM     25  H   UNL     1       2.074   8.047  21.995  0.00  0.00    +0.000 HD
BRANCH  24  26
ATOM     26  C   UNL     1       0.994   8.987  20.574  0.00  0.00    +0.000 A 
ATOM     27  C   UNL     1       1.272   9.177  19.209  0.00  0.00    +0.000 A 
ATOM     28  C   UNL     1       0.792  10.301  18.573  0.00  0.00    +0.000 A 
ATOM     29  N   UNL     1       0.027  11.229  19.160  0.00  0.00    +0.000 NA
ATOM     30  C   UNL     1      -0.307  11.042  20.444  0.00  0.00    +0.000 A 
ATOM     31  C   UNL     1      -1.128  11.998  21.021  0.00  0.00    +0.000 A 
ATOM     32  C   UNL     1      -1.550  11.906  22.345  0.00  0.00    +0.000 A 
ATOM     33  C   UNL     1      -1.126  10.839  23.123  0.00  0.00    +0.000 A 
ATOM     34  C   UNL     1      -0.283   9.871  22.569  0.00  0.00    +0.000 A 
ATOM     35  C   UNL     1       0.141   9.935  21.215  0.00  0.00    +0.000 A 
ENDBRANCH  24  26
ENDBRANCH  23  24
ENDBRANCH  22  23
ENDBRANCH   4  22
TORSDOF 8
ENDMDL
MODEL 3
REMARK VINA RESULT:      -8.4      4.622      6.552
REMARK  Name = 
REMARK  8 active torsions:
REMARK  status: ('A' for Active; 'I' for Inactive)
REMARK    1  A    between atoms: N_1  and  C_2
REMARK    2  A    between atoms: C_8  and  O_9
REMARK    3  A    between atoms: O_9  and  C_10
REMARK    4  A    between atoms: C_10  and  C_11
REMARK    5  A    between atoms: N_14  and  C_15
REMARK    6  A    between atoms: C_15  and  C_16
REMARK    7  A    between atoms: C_16  and  N_17
REMARK    8  A    between atoms: N_17  and  C_18
REMARK                            x       y       z     vdW  Elec       q    Type
REMARK                         _______ _______ _______ _____ _____    ______ ____
ROOT
ATOM      1  C   UNL     1       7.429   6.905  17.275  0.00  0.00    +0.000 C 
ATOM      2  C   UNL     1       6.101   6.567  16.595  0.00  0.00    +0.000 C 
ATOM      3  C   UNL     1       4.951   6.317  17.575  0.00  0.00    +0.000 C 
ATOM      4  N   UNL     1       5.294   5.327  18.610  0.00  0.00    +0.000 NA
ATOM      5  C   UNL     1       6.504   5.728  19.340  0.00  0.00    +0.000 C 
ATOM      6  C   UNL     1       7.695   5.866  18.379  0.00  0.00    +0.000 C 
ENDROOT
BRANCH   1   7
ATOM      7  C   UNL     1       7.519   8.304  17.909  0.00  0.00    +0.000 C 
BRANCH   7   8
ATOM      8  O   UNL     1       8.700   8.551  18.673  0.00  0.00    +0.000 OA
BRANCH   8  15
ATOM      9  C   UNL     1       9.917  13.940  19.514  0.00  0.00    +0.000 A 
ATOM     10  N   UNL     1      10.001  14.403  20.766  0.00  0.00    +0.000 NA
ATOM     11  C   UNL     1       9.800  13.500  21.734  0.00  0.00    +0.000 A 
ATOM     12  N   UNL     1       9.517  12.200  21.567  0.00  0.00    +0.000 NA
ATOM     13  C   UNL     1       9.429  11.755  20.308  0.00  0.00    +0.000 A 
ATOM     14  C   UNL     1       9.115  10.415  20.067  0.00  0.00    +0.000 A 
ATOM     15  C   UNL     1       9.023   9.892  18.772  0.00  0.00    +0.000 A 
ATOM     16  C   UNL     1       9.254  10.744  17.690  0.00  0.00    +0.000 A 
ATOM     17  C   UNL     1       9.553  12.086  17.903  0.00  0.00    +0.000 A 
ATOM     18  C   UNL     1       9.638  12.602  19.211  0.00  0.00    +0.000 A 
BRANCH   9  19
ATOM     19  N   UNL     1      10.061  14.908  18.513  0.00  0.00    +0.000 N 
ATOM     20  H   UNL     1       9.747  14.491  17.641  0.00  0.00    +0.000 HD
ATOM     21  H   UNL     1       9.565  15.765  18.726  0.00  0.00    +0.000 HD
ENDBRANCH   9  19
ENDBRANCH   8  15
ENDBRANCH   7   8
ENDBRANCH   1   7
BRANCH   4  22
ATOM     22  C   UNL     1       4.170   5.109  19.552  0.00  0.00    +0.000 C 
BRANCH  22  23
ATOM     23  C   UNL     1       2.857   5.803  19.128  0.00  0.00    +0.000 C 
BRANCH  23  24
ATOM     24  N   UNL     1       2.361   6.714  20.177  0.00  0.00    +0.000 N 
ATOM     25  H   UNL     1       3.047   6.828  20.916  0.00  0.00    +0.000 HD
BRANCH  24  26
ATOM     26  C   UNL     1       1.894   7.978  19.725  0.00  0.00    +0.000 A 
ATOM     27  C   UNL     1       2.060   8.345  18.378  0.00  0.00    +0.000 A 
ATOM     28  C   UNL     1       1.568   9.556  17.944  0.00  0.00    +0.000 A 
ATOM     29  N   UNL     1       0.889  10.414  18.715  0.00  0.00    +0.000 NA
ATOM     30  C   UNL     1       0.660  10.061  19.988  0.00  0.00    +0.000 A 
ATOM     31  C   UNL     1      -0.074  10.949  20.759  0.00  0.00    +0.000 A 
ATOM     32  C   UNL     1      -0.384  10.687  22.091  0.00  0.00    +0.000 A 
ATOM     33  C   UNL     1       0.067   9.515  22.679  0.00  0.00    +0.000 A 
ATOM     34  C   UNL     1       0.825   8.611  21.927  0.00  0.00    +0.000 A 
ATOM     35  C   UNL     1       1.133   8.850  20.561  0.00  0.00    +0.000 A 
ENDBRANCH  24  26
ENDBRANCH  23  24
ENDBRANCH  22  23
ENDBRANCH   4  22
TORSDOF 8
ENDMDL
MODEL 4
REMARK VINA RESULT:      -8.4      1.511      2.259
REMARK  Name = 
REMARK  8 active torsions:
REMARK  status: ('A' for Active; 'I' for Inactive)
REMARK    1  A    between atoms: N_1  and  C_2
REMARK    2  A    between atoms: C_8  and  O_9
REMARK    3  A    between atoms: O_9  and  C_10
REMARK    4  A    between atoms: C_10  and  C_11
REMARK    5  A    between atoms: N_14  and  C_15
REMARK    6  A    between atoms: C_15  and  C_16
REMARK    7  A    between atoms: C_16  and  N_17
REMARK    8  A    between atoms: N_17  and  C_18
REMARK                            x       y       z     vdW  Elec       q    Type
REMARK                         _______ _______ _______ _____ _____    ______ ____
ROOT
ATOM      1  C   UNL     1       1.676   3.486  20.489  0.00  0.00    +0.000 C 
ATOM      2  C   UNL     1       0.973   3.690  19.145  0.00  0.00    +0.000 C 
ATOM      3  C   UNL     1       1.681   4.686  18.222  0.00  0.00    +0.000 C 
ATOM      4  N   UNL     1       1.964   5.970  18.884  0.00  0.00    +0.000 NA
ATOM      5  C   UNL     1       2.749   5.768  20.109  0.00  0.00    +0.000 C 
ATOM      6  C   UNL     1       1.990   4.866  21.094  0.00  0.00    +0.000 C 
ENDROOT
BRANCH   1   7
ATOM      7  C   UNL     1       2.985   2.679  20.442  0.00  0.00    +0.000 C 
BRANCH   7   8
ATOM      8  O   UNL     1       3.334   2.161  19.157  0.00  0.00    +0.000 OA
BRANCH   8  15
ATOM      9  C   UNL     1       7.078   5.557  16.772  0.00  0.00    +0.000 A 
ATOM     10  N   UNL     1       7.881   6.292  17.548  0.00  0.00    +0.000 NA
ATOM     11  C   UNL     1       7.724   6.126  18.868  0.00  0.00    +0.000 A 
ATOM     12  N   UNL     1       6.845   5.314  19.472  0.00  0.00    +0.000 NA
ATOM     13  C   UNL     1       6.043   4.591  18.680  0.00  0.00    +0.000 A 
ATOM     14  C   UNL     1       5.090   3.742  19.248  0.00  0.00    +0.000 A 
ATOM     15  C   UNL     1       4.235   2.954  18.469  0.00  0.00    +0.000 A 
ATOM     16  C   UNL     1       4.345   3.024  17.078  0.00  0.00    +0.000 A 
ATOM     17  C   UNL     1       5.275   3.873  16.488  0.00  0.00    +0.000 A 
ATOM     18  C   UNL     1       6.126   4.665  17.283  0.00  0.00    +0.000 A 
BRANCH   9  19
ATOM     19  N   UNL     1       7.205   5.791  15.397  0.00  0.00    +0.000 N 
ATOM     20  H   UNL     1       6.270   5.946  15.029  0.00  0.00    +0.000 HD
ATOM     21  H   UNL     1       7.828   6.562  15.191  0.00  0.00    +0.000 HD
ENDBRANCH   9  19
ENDBRANCH   8  15
ENDBRANCH   7   8
ENDBRANCH   1   7
BRANCH   4  22
ATOM     22  C   UNL     1       2.659   6.913  17.975  0.00  0.00    +0.000 C 
BRANCH  22  23
ATOM     23  C   UNL     1       2.290   8.394  18.211  0.00  0.00    +0.000 C 
BRANCH  23  24
ATOM     24  N   UNL     1       1.444   8.560  19.408  0.00  0.00    +0.000 N 
ATOM     25  H   UNL     1       1.908   8.198  20.235  0.00  0.00    +0.000 HD
BRANCH  24  26
ATOM     26  C   UNL     1       0.955   9.874  19.640  0.00  0.00    +0.000 A 
ATOM     27  C   UNL     1       1.032  10.840  18.621  0.00  0.00    +0.000 A 
ATOM     28  C   UNL     1       0.518  12.098  18.845  0.00  0.00    +0.000 A 
ATOM     29  N   UNL     1      -0.102  12.469  19.971  0.00  0.00    +0.000 NA
ATOM     30  C   UNL     1      -0.247  11.549  20.936  0.00  0.00    +0.000 A 
ATOM     31  C   UNL     1      -0.923  11.945  22.079  0.00  0.00    +0.000 A 
ATOM     32  C   UNL     1      -1.144  11.075  23.144  0.00  0.00    +0.000 A 
ATOM     33  C   UNL     1      -0.661   9.778  23.076  0.00  0.00    +0.000 A 
ATOM     34  C   UNL     1       0.040   9.359  21.940  0.00  0.00    +0.000 A 
ATOM     35  C   UNL     1       0.257  10.225  20.834  0.00  0.00    +0.000 A 
ENDBRANCH  24  26
ENDBRANCH  23  24
ENDBRANCH  22  23
ENDBRANCH   4  22
TORSDOF 8
ENDMDL
MODEL 5
REMARK VINA RESULT:      -8.3      1.232      1.371
REMARK  Name = 
REMARK  8 active torsions:
REMARK  status: ('A' for Active; 'I' for Inactive)
REMARK    1  A    between atoms: N_1  and  C_2
REMARK    2  A    between atoms: C_8  and  O_9
REMARK    3  A    between atoms: O_9  and  C_10
REMARK    4  A    between atoms: C_10  and  C_11
REMARK    5  A    between atoms: N_14  and  C_15
REMARK    6  A    between atoms: C_15  and  C_16
REMARK    7  A    between atoms: C_16  and  N_17
REMARK    8  A    between atoms: N_17  and  C_18
REMARK                            x       y       z     vdW  Elec       q    Type
REMARK                         _______ _______ _______ _____ _____    ______ ____
ROOT
ATOM      1  C   UNL     1       1.680   2.141  19.708  0.00  0.00    +0.000 C 
ATOM      2  C   UNL     1       0.841   3.219  19.019  0.00  0.00    +0.000 C 
ATOM      3  C   UNL     1       1.331   4.646  19.283  0.00  0.00    +0.000 C 
ATOM      4  N   UNL     1       1.502   4.930  20.718  0.00  0.00    +0.000 NA
ATOM      5  C   UNL     1       2.410   3.958  21.341  0.00  0.00    +0.000 C 
ATOM      6  C   UNL     1       1.865   2.531  21.185  0.00  0.00    +0.000 C 
ENDROOT
BRANCH   1   7
ATOM      7  C   UNL     1       3.074   1.892  19.105  0.00  0.00    +0.000 C 
BRANCH   7   8
ATOM      8  O   UNL     1       3.231   2.304  17.747  0.00  0.00    +0.000 OA
BRANCH   8  15
ATOM      9  C   UNL     1       7.267   6.161  17.482  0.00  0.00    +0.000 A 
ATOM     10  N   UNL     1       7.927   6.493  18.597  0.00  0.00    +0.000 NA
ATOM     11  C   UNL     1       7.564   5.835  19.705  0.00  0.00    +0.000 A 
ATOM     12  N   UNL     1       6.609   4.899  19.801  0.00  0.00    +0.000 NA
ATOM     13  C   UNL     1       5.952   4.584  18.677  0.00  0.00    +0.000 A 
ATOM     14  C   UNL     1       4.931   3.631  18.716  0.00  0.00    +0.000 A 
ATOM     15  C   UNL     1       4.221   3.254  17.570  0.00  0.00    +0.000 A 
ATOM     16  C   UNL     1       4.551   3.854  16.353  0.00  0.00    +0.000 A 
ATOM     17  C   UNL     1       5.553   4.816  16.291  0.00  0.00    +0.000 A 
ATOM     18  C   UNL     1       6.257   5.191  17.452  0.00  0.00    +0.000 A 
BRANCH   9  19
ATOM     19  N   UNL     1       7.610   6.904  16.346  0.00  0.00    +0.000 N 
ATOM     20  H   UNL     1       8.387   7.508  16.603  0.00  0.00    +0.000 HD
ATOM     21  H   UNL     1       7.830   6.318  15.551  0.00  0.00    +0.000 HD
ENDBRANCH   9  19
ENDBRANCH   8  15
ENDBRANCH   7   8
ENDBRANCH   1   7
BRANCH   4  22
ATOM     22  C   UNL     1       1.986   6.312  20.948  0.00  0.00    +0.000 C 
BRANCH  22  23
ATOM     23  C   UNL     1       0.992   7.405  20.498  0.00  0.00    +0.000 C 
BRANCH  23  24
ATOM     24  N   UNL     1       1.456   8.752  20.879  0.00  0.00    +0.000 N 
ATOM     25  H   UNL     1       1.948   9.199  20.112  0.00  0.00    +0.000 HD
BRANCH  24  26
ATOM     26  C   UNL     1       0.463   9.619  21.410  0.00  0.00    +0.000 A 
ATOM     27  C   UNL     1       0.032   9.458  22.739  0.00  0.00    +0.000 A 
ATOM     28  C   UNL     1      -0.901  10.330  23.255  0.00  0.00    +0.000 A 
ATOM     29  N   UNL     1      -1.412  11.370  22.585  0.00  0.00    +0.000 NA
ATOM     30  C   UNL     1      -0.971  11.586  21.338  0.00  0.00    +0.000 A 
ATOM     31  C   UNL     1      -1.487  12.689  20.676  0.00  0.00    +0.000 A 
ATOM     32  C   UNL     1      -1.098  13.021  19.381  0.00  0.00    +0.000 A 
ATOM     33  C   UNL     1      -0.181  12.219  18.718  0.00  0.00    +0.000 A 
ATOM     34  C   UNL     1       0.341  11.091  19.358  0.00  0.00    +0.000 A 
ATOM     35  C   UNL     1      -0.027  10.747  20.687  0.00  0.00    +0.000 A 
ENDBRANCH  24  26
ENDBRANCH  23  24
ENDBRANCH  22  23
ENDBRANCH   4  22
TORSDOF 8
ENDMDL
MODEL 6
REMARK VINA RESULT:      -8.3      2.366      8.226
REMARK  Name = 
REMARK  8 active torsions:
REMARK  status: ('A' for Active; 'I' for Inactive)
REMARK    1  A    between atoms: N_1  and  C_2
REMARK    2  A    between atoms: C_8  and  O_9
REMARK    3  A    between atoms: O_9  and  C_10
REMARK    4  A    between atoms: C_10  and  C_11
REMARK    5  A    between atoms: N_14  and  C_15
REMARK    6  A    between atoms: C_15  and  C_16
REMARK    7  A    between atoms: C_16  and  N_17
REMARK    8  A    between atoms: N_17  and  C_18
REMARK                            x       y       z     vdW  Elec       q    Type
REMARK                         _______ _______ _______ _____ _____    ______ ____
ROOT
ATOM      1  C   UNL     1       1.306   3.691  21.183  0.00  0.00    +0.000 C 
ATOM      2  C   UNL     1       2.293   2.548  21.435  0.00  0.00    +0.000 C 
ATOM      3  C   UNL     1       3.238   2.279  20.260  0.00  0.00    +0.000 C 
ATOM      4  N   UNL     1       2.522   2.102  18.986  0.00  0.00    +0.000 NA
ATOM      5  C   UNL     1       1.673   3.265  18.696  0.00  0.00    +0.000 C 
ATOM      6  C   UNL     1       0.639   3.472  19.813  0.00  0.00    +0.000 C 
ENDROOT
BRANCH   1   7
ATOM      7  C   UNL     1       1.907   5.107  21.198  0.00  0.00    +0.000 C 
BRANCH   7   8
ATOM      8  O   UNL     1       2.395   5.574  19.939  0.00  0.00    +0.000 OA
BRANCH   8  15
ATOM      9  C   UNL     1       0.898  10.918  19.287  0.00  0.00    +0.000 A 
ATOM     10  N   UNL     1       0.340  11.570  20.312  0.00  0.00    +0.000 NA
ATOM     11  C   UNL     1       0.207  10.866  21.444  0.00  0.00    +0.000 A 
ATOM     12  N   UNL     1       0.564   9.589  21.638  0.00  0.00    +0.000 NA
ATOM     13  C   UNL     1       1.114   8.949  20.598  0.00  0.00    +0.000 A 
ATOM     14  C   UNL     1       1.488   7.609  20.728  0.00  0.00    +0.000 A 
ATOM     15  C   UNL     1       2.078   6.894  19.680  0.00  0.00    +0.000 A 
ATOM     16  C   UNL     1       2.298   7.550  18.466  0.00  0.00    +0.000 A 
ATOM     17  C   UNL     1       1.921   8.879  18.306  0.00  0.00    +0.000 A 
ATOM     18  C   UNL     1       1.322   9.586  19.367  0.00  0.00    +0.000 A 
BRANCH   9  19
ATOM     19  N   UNL     1       0.969  11.644  18.091  0.00  0.00    +0.000 N 
ATOM     20  H   UNL     1       1.949  11.857  17.924  0.00  0.00    +0.000 HD
ATOM     21  H   UNL     1       0.548  11.152  17.313  0.00  0.00    +0.000 HD
ENDBRANCH   9  19
ENDBRANCH   8  15
ENDBRANCH   7   8
ENDBRANCH   1   7
BRANCH   4  22
ATOM     22  C   UNL     1       3.458   1.853  17.863  0.00  0.00    +0.000 C 
BRANCH  22  23
ATOM     23  C   UNL     1       4.158   3.126  17.339  0.00  0.00    +0.000 C 
BRANCH  23  24
ATOM     24  N   UNL     1       5.048   2.828  16.201  0.00  0.00    +0.000 N 
ATOM     25  H   UNL     1       4.521   2.473  15.410  0.00  0.00    +0.000 HD
BRANCH  24  26
ATOM     26  C   UNL     1       5.908   3.885  15.799  0.00  0.00    +0.000 A 
ATOM     27  C   UNL     1       6.461   4.745  16.764  0.00  0.00    +0.000 A 
ATOM     28  C   UNL     1       7.325   5.740  16.365  0.00  0.00    +0.000 A 
ATOM     29  N   UNL     1       7.723   5.931  15.101  0.00  0.00    +0.000 NA
ATOM     30  C   UNL     1       7.262   5.086  14.168  0.00  0.00    +0.000 A 
ATOM     31  C   UNL     1       7.714   5.281  12.873  0.00  0.00    +0.000 A 
ATOM     32  C   UNL     1       7.313   4.460  11.821  0.00  0.00    +0.000 A 
ATOM     33  C   UNL     1       6.422   3.427  12.063  0.00  0.00    +0.000 A 
ATOM     34  C   UNL     1       5.937   3.221  13.359  0.00  0.00    +0.000 A 
ATOM     35  C   UNL     1       6.350   4.033  14.449  0.00  0.00    +0.000 A 
ENDBRANCH  24  26
ENDBRANCH  23  24
ENDBRANCH  22  23
ENDBRANCH   4  22
TORSDOF 8
ENDMDL
MODEL 7
REMARK VINA RESULT:      -8.2      1.095      1.725
REMARK  Name = 
REMARK  8 active torsions:
REMARK  status: ('A' for Active; 'I' for Inactive)
REMARK    1  A    between atoms: N_1  and  C_2
REMARK    2  A    between atoms: C_8  and  O_9
REMARK    3  A    between atoms: O_9  and  C_10
REMARK    4  A    between atoms: C_10  and  C_11
REMARK    5  A    between atoms: N_14  and  C_15
REMARK    6  A    between atoms: C_15  and  C_16
REMARK    7  A    between atoms: C_16  and  N_17
REMARK    8  A    between atoms: N_17  and  C_18
REMARK                            x       y       z     vdW  Elec       q    Type
REMARK                         _______ _______ _______ _____ _____    ______ ____
ROOT
ATOM      1  C   UNL     1       1.662   2.675  19.367  0.00  0.00    +0.000 C 
ATOM      2  C   UNL     1       1.220   3.637  18.261  0.00  0.00    +0.000 C 
ATOM      3  C   UNL     1       1.856   5.026  18.361  0.00  0.00    +0.000 C 
ATOM      4  N   UNL     1       1.697   5.628  19.695  0.00  0.00    +0.000 NA
ATOM      5  C   UNL     1       2.240   4.747  20.737  0.00  0.00    +0.000 C 
ATOM      6  C   UNL     1       1.522   3.388  20.724  0.00  0.00    +0.000 C 
ENDROOT
BRANCH   1   7
ATOM      7  C   UNL     1       3.101   2.145  19.255  0.00  0.00    +0.000 C 
BRANCH   7   8
ATOM      8  O   UNL     1       4.086   2.905  19.956  0.00  0.00    +0.000 OA
BRANCH   8  15
ATOM      9  C   UNL     1       7.101   5.903  16.328  0.00  0.00    +0.000 A 
ATOM     10  N   UNL     1       7.233   5.466  15.071  0.00  0.00    +0.000 NA
ATOM     11  C   UNL     1       6.593   4.325  14.783  0.00  0.00    +0.000 A 
ATOM     12  N   UNL     1       5.855   3.588  15.624  0.00  0.00    +0.000 NA
ATOM     13  C   UNL     1       5.739   4.036  16.881  0.00  0.00    +0.000 A 
ATOM     14  C   UNL     1       5.001   3.301  17.813  0.00  0.00    +0.000 A 
ATOM     15  C   UNL     1       4.836   3.728  19.136  0.00  0.00    +0.000 A 
ATOM     16  C   UNL     1       5.431   4.929  19.529  0.00  0.00    +0.000 A 
ATOM     17  C   UNL     1       6.184   5.670  18.624  0.00  0.00    +0.000 A 
ATOM     18  C   UNL     1       6.347   5.228  17.297  0.00  0.00    +0.000 A 
BRANCH   9  19
ATOM     19  N   UNL     1       7.829   7.059  16.634  0.00  0.00    +0.000 N 
ATOM     20  H   UNL     1       8.781   6.769  16.844  0.00  0.00    +0.000 HD
ATOM     21  H   UNL     1       7.795   7.747  15.892  0.00  0.00    +0.000 HD
ENDBRANCH   9  19
ENDBRANCH   8  15
ENDBRANCH   7   8
ENDBRANCH   1   7
BRANCH   4  22
ATOM     22  C   UNL     1       2.329   6.967  19.770  0.00  0.00    +0.000 C 
BRANCH  22  23
ATOM     23  C   UNL     1       1.458   8.031  20.475  0.00  0.00    +0.000 C 
BRANCH  23  24
ATOM     24  N   UNL     1       1.417   9.292  19.712  0.00  0.00    +0.000 N 
ATOM     25  H   UNL     1       1.454   9.116  18.713  0.00  0.00    +0.000 HD
BRANCH  24  26
ATOM     26  C   UNL     1       0.344  10.169  20.028  0.00  0.00    +0.000 A 
ATOM     27  C   UNL     1       0.378  10.917  21.218  0.00  0.00    +0.000 A 
ATOM     28  C   UNL     1      -0.648  11.793  21.494  0.00  0.00    +0.000 A 
ATOM     29  N   UNL     1      -1.681  12.024  20.675  0.00  0.00    +0.000 NA
ATOM     30  C   UNL     1      -1.708  11.372  19.503  0.00  0.00    +0.000 A 
ATOM     31  C   UNL     1      -2.768  11.653  18.657  0.00  0.00    +0.000 A 
ATOM     32  C   UNL     1      -2.897  11.046  17.410  0.00  0.00    +0.000 A 
ATOM     33  C   UNL     1      -1.951  10.118  17.002  0.00  0.00    +0.000 A 
ATOM     34  C   UNL     1      -0.881   9.805  17.846  0.00  0.00    +0.000 A 
ATOM     35  C   UNL     1      -0.720  10.428  19.113  0.00  0.00    +0.000 A 
ENDBRANCH  24  26
ENDBRANCH  23  24
ENDBRANCH  22  23
ENDBRANCH   4  22
TORSDOF 8
ENDMDL
MODEL 8
REMARK VINA RESULT:      -8.1      0.954      1.980
REMARK  Name = 
REMARK  8 active torsions:
REMARK  status: ('A' for Active; 'I' for Inactive)
REMARK    1  A    between atoms: N_1  and  C_2
REMARK    2  A    between atoms: C_8  and  O_9
REMARK    3  A    between atoms: O_9  and  C_10
REMARK    4  A    between atoms: C_10  and  C_11
REMARK    5  A    between atoms: N_14  and  C_15
REMARK    6  A    between atoms: C_15  and  C_16
REMARK    7  A    between atoms: C_16  and  N_17
REMARK    8  A    between atoms: N_17  and  C_18
REMARK                            x       y       z     vdW  Elec       q    Type
REMARK                         _______ _______ _______ _____ _____    ______ ____
ROOT
ATOM      1  C   UNL     1       1.440   2.673  20.135  0.00  0.00    +0.000 C 
ATOM      2  C   UNL     1       0.837   3.679  19.152  0.00  0.00    +0.000 C 
ATOM      3  C   UNL     1       1.610   4.998  19.067  0.00  0.00    +0.000 C 
ATOM      4  N   UNL     1       1.841   5.607  20.388  0.00  0.00    +0.000 NA
ATOM      5  C   UNL     1       2.533   4.670  21.284  0.00  0.00    +0.000 C 
ATOM      6  C   UNL     1       1.706   3.390  21.471  0.00  0.00    +0.000 C 
ENDROOT
BRANCH   1   7
ATOM      7  C   UNL     1       2.750   2.003  19.687  0.00  0.00    +0.000 C 
BRANCH   7   8
ATOM      8  O   UNL     1       2.997   2.032  18.280  0.00  0.00    +0.000 OA
BRANCH   8  15
ATOM      9  C   UNL     1       7.081   5.701  17.234  0.00  0.00    +0.000 A 
ATOM     10  N   UNL     1       7.777   6.212  18.255  0.00  0.00    +0.000 NA
ATOM     11  C   UNL     1       7.434   5.769  19.471  0.00  0.00    +0.000 A 
ATOM     12  N   UNL     1       6.468   4.883  19.756  0.00  0.00    +0.000 NA
ATOM     13  C   UNL     1       5.776   4.387  18.723  0.00  0.00    +0.000 A 
ATOM     14  C   UNL     1       4.742   3.476  18.955  0.00  0.00    +0.000 A 
ATOM     15  C   UNL     1       3.995   2.916  17.913  0.00  0.00    +0.000 A 
ATOM     16  C   UNL     1       4.300   3.283  16.600  0.00  0.00    +0.000 A 
ATOM     17  C   UNL     1       5.315   4.199  16.344  0.00  0.00    +0.000 A 
ATOM     18  C   UNL     1       6.056   4.761  17.401  0.00  0.00    +0.000 A 
BRANCH   9  19
ATOM     19  N   UNL     1       7.403   6.224  15.975  0.00  0.00    +0.000 N 
ATOM     20  H   UNL     1       7.998   7.034  16.128  0.00  0.00    +0.000 HD
ATOM     21  H   UNL     1       7.841   5.539  15.371  0.00  0.00    +0.000 HD
ENDBRANCH   9  19
ENDBRANCH   8  15
ENDBRANCH   7   8
ENDBRANCH   1   7
BRANCH   4  22
ATOM     22  C   UNL     1       2.599   6.876  20.281  0.00  0.00    +0.000 C 
BRANCH  22  23
ATOM     23  C   UNL     1       1.795   8.032  19.647  0.00  0.00    +0.000 C 
BRANCH  23  24
ATOM     24  N   UNL     1       0.831   8.611  20.601  0.00  0.00    +0.000 N 
ATOM     25  H   UNL     1       1.256   8.746  21.512  0.00  0.00    +0.000 HD
BRANCH  24  26
ATOM     26  C   UNL     1       0.174   9.796  20.172  0.00  0.00    +0.000 A 
ATOM     27  C   UNL     1       0.151  10.128  18.806  0.00  0.00    +0.000 A 
ATOM     28  C   UNL     1      -0.522  11.258  18.398  0.00  0.00    +0.000 A 
ATOM     29  N   UNL     1      -1.209  12.063  19.218  0.00  0.00    +0.000 NA
ATOM     30  C   UNL     1      -1.259  11.735  20.517  0.00  0.00    +0.000 A 
ATOM     31  C   UNL     1      -2.004  12.563  21.341  0.00  0.00    +0.000 A 
ATOM     32  C   UNL     1      -2.137  12.319  22.706  0.00  0.00    +0.000 A 
ATOM     33  C   UNL     1      -1.492  11.229  23.269  0.00  0.00    +0.000 A 
ATOM     34  C   UNL     1      -0.720  10.388  22.461  0.00  0.00    +0.000 A 
ATOM     35  C   UNL     1      -0.589  10.608  21.064  0.00  0.00    +0.000 A 
ENDBRANCH  24  26
ENDBRANCH  23  24
ENDBRANCH  22  23
ENDBRANCH   4  22
TORSDOF 8
ENDMDL
MODEL 9
REMARK VINA RESULT:      -8.1      2.227      7.608
REMARK  Name = 
REMARK  8 active torsions:
REMARK  status: ('A' for Active; 'I' for Inactive)
REMARK    1  A    between atoms: N_1  and  C_2
REMARK    2  A    between atoms: C_8  and  O_9
REMARK    3  A    between atoms: O_9  and  C_10
REMARK    4  A    between atoms: C_10  and  C_11
REMARK    5  A    between atoms: N_14  and  C_15
REMARK    6  A    between atoms: C_15  and  C_16
REMARK    7  A    between atoms: C_16  and  N_17
REMARK    8  A    between atoms: N_17  and  C_18
REMARK                            x       y       z     vdW  Elec       q    Type
REMARK                         _______ _______ _______ _____ _____    ______ ____
ROOT
ATOM      1  C   UNL     1       1.648   3.356  21.392  0.00  0.00    +0.000 C 
ATOM      2  C   UNL     1       2.947   2.547  21.431  0.00  0.00    +0.000 C 
ATOM      3  C   UNL     1       3.645   2.435  20.073  0.00  0.00    +0.000 C 
ATOM      4  N   UNL     1       2.745   1.957  19.011  0.00  0.00    +0.000 NA
ATOM      5  C   UNL     1       1.559   2.818  18.901  0.00  0.00    +0.000 C 
ATOM      6  C   UNL     1       0.784   2.842  20.227  0.00  0.00    +0.000 C 
ENDROOT
BRANCH   1   7
ATOM      7  C   UNL     1       1.813   4.876  21.227  0.00  0.00    +0.000 C 
BRANCH   7   8
ATOM      8  O   UNL     1       2.355   5.297  19.974  0.00  0.00    +0.000 OA
BRANCH   8  15
ATOM      9  C   UNL     1       1.158  10.701  19.204  0.00  0.00    +0.000 A 
ATOM     10  N   UNL     1       0.566  11.385  20.189  0.00  0.00    +0.000 NA
ATOM     11  C   UNL     1       0.326  10.696  21.312  0.00  0.00    +0.000 A 
ATOM     12  N   UNL     1       0.609   9.405  21.533  0.00  0.00    +0.000 NA
ATOM     13  C   UNL     1       1.195   8.733  20.534  0.00  0.00    +0.000 A 
ATOM     14  C   UNL     1       1.496   7.378  20.694  0.00  0.00    +0.000 A 
ATOM     15  C   UNL     1       2.118   6.629  19.689  0.00  0.00    +0.000 A 
ATOM     16  C   UNL     1       2.448   7.265  18.490  0.00  0.00    +0.000 A 
ATOM     17  C   UNL     1       2.145   8.609  18.300  0.00  0.00    +0.000 A 
ATOM     18  C   UNL     1       1.513   9.351  19.317  0.00  0.00    +0.000 A 
BRANCH   9  19
ATOM     19  N   UNL     1       1.341  11.414  18.013  0.00  0.00    +0.000 N 
ATOM     20  H   UNL     1       0.470  11.898  17.813  0.00  0.00    +0.000 HD
ATOM     21  H   UNL     1       2.128  12.049  18.058  0.00  0.00    +0.000 HD
ENDBRANCH   9  19
ENDBRANCH   8  15
ENDBRANCH   7   8
ENDBRANCH   1   7
BRANCH   4  22
ATOM     22  C   UNL     1       3.440   1.866  17.705  0.00  0.00    +0.000 C 
BRANCH  22  23
ATOM     23  C   UNL     1       2.962   2.907  16.669  0.00  0.00    +0.000 C 
BRANCH  23  24
ATOM     24  N   UNL     1       3.427   4.264  17.008  0.00  0.00    +0.000 N 
ATOM     25  H   UNL     1       3.327   4.447  18.001  0.00  0.00    +0.000 HD
BRANCH  24  26
ATOM     26  C   UNL     1       4.737   4.595  16.565  0.00  0.00    +0.000 A 
ATOM     27  C   UNL     1       5.029   4.608  15.190  0.00  0.00    +0.000 A 
ATOM     28  C   UNL     1       6.291   4.970  14.773  0.00  0.00    +0.000 A 
ATOM     29  N   UNL     1       7.273   5.360  15.594  0.00  0.00    +0.000 NA
ATOM     30  C   UNL     1       7.004   5.419  16.906  0.00  0.00    +0.000 A 
ATOM     31  C   UNL     1       8.024   5.858  17.733  0.00  0.00    +0.000 A 
ATOM     32  C   UNL     1       7.860   5.970  19.111  0.00  0.00    +0.000 A 
ATOM     33  C   UNL     1       6.648   5.617  19.684  0.00  0.00    +0.000 A 
ATOM     34  C   UNL     1       5.608   5.154  18.872  0.00  0.00    +0.000 A 
ATOM     35  C   UNL     1       5.749   5.052  17.462  0.00  0.00    +0.000 A 
ENDBRANCH  24  26
ENDBRANCH  23  24
ENDBRANCH  22  23
ENDBRANCH   4  22
TORSDOF 8
ENDMDL
