MODEL 1
REMARK VINA RESULT:      -8.2      0.000      0.000
REMARK  Name = 
REMARK  6 active torsions:
REMARK  status: ('A' for Active; 'I' for Inactive)
REMARK    1  A    between atoms: C_2  and  C_19
REMARK    2  A    between atoms: N_3  and  C_4
REMARK    3  A    between atoms: C_4  and  C_5
REMARK    4  A    between atoms: C_5  and  S_6
REMARK    5  A    between atoms: S_6  and  C_9
REMARK    6  A    between atoms: C_12  and  C_13
REMARK                            x       y       z     vdW  Elec       q    Type
REMARK                         _______ _______ _______ _____ _____    ______ ____
ROOT
ATOM      1  S   UNL     1       6.780   6.379  17.007  0.00  0.00    +0.000 S 
ATOM      2  O   UNL     1       5.508   6.952  17.412  0.00  0.00    +0.000 OA
ATOM      3  O   UNL     1       7.927   7.233  16.746  0.00  0.00    +0.000 OA
ENDROOT
BRANCH   1   4
ATOM      4  C   UNL     1       6.477   5.454  15.517  0.00  0.00    +0.000 A 
ATOM      5  C   UNL     1       5.307   4.725  15.386  0.00  0.00    +0.000 A 
ATOM      6  C   UNL     1       5.159   3.961  14.234  0.00  0.00    +0.000 A 
ATOM      7  C   UNL     1       6.176   3.947  13.268  0.00  0.00    +0.000 A 
ATOM      8  C   UNL     1       7.302   4.730  13.499  0.00  0.00    +0.000 A 
ATOM      9  N   UNL     1       7.476   5.493  14.600  0.00  0.00    +0.000 NA
BRANCH   7  10
ATOM     10  C   UNL     1       6.101   3.117  12.022  0.00  0.00    +0.000 C 
ATOM     11  F   UNL     1       5.846   1.801  12.262  0.00  0.00    +0.000 F 
ATOM     12  F   UNL     1       5.124   3.539  11.176  0.00  0.00    +0.000 F 
ATOM     13  F   UNL     1       7.258   3.149  11.307  0.00  0.00    +0.000 F 
ENDBRANCH   7  10
ENDBRANCH   1   4
BRANCH   1  14
ATOM     14  C   UNL     1       7.270   5.168  18.204  0.00  0.00    +0.000 C 
BRANCH  14  15
ATOM     15  C   UNL     1       6.548   5.389  19.518  0.00  0.00    +0.000 C 
BRANCH  15  18
ATOM     16  O   UNL     1       5.406   2.810  19.734  0.00  0.00    +0.000 OA
ATOM     17  C   UNL     1       4.676   3.771  19.529  0.00  0.00    +0.000 C 
ATOM     18  N   UNL     1       5.130   5.071  19.436  0.00  0.00    +0.000 N 
ATOM     19  H   UNL     1       4.464   5.832  19.391  0.00  0.00    +0.000 HD
BRANCH  17  20
ATOM     20  C   UNL     1       3.209   3.579  19.413  0.00  0.00    +0.000 A 
ATOM     21  C   UNL     1       2.476   3.294  20.570  0.00  0.00    +0.000 A 
ATOM     22  C   UNL     1       1.101   3.074  20.487  0.00  0.00    +0.000 A 
ATOM     23  C   UNL     1       0.461   3.127  19.249  0.00  0.00    +0.000 A 
ATOM     24  C   UNL     1       1.191   3.404  18.092  0.00  0.00    +0.000 A 
ATOM     25  C   UNL     1       2.567   3.629  18.172  0.00  0.00    +0.000 A 
ENDBRANCH  17  20
ENDBRANCH  15  18
ENDBRANCH  14  15
ENDBRANCH   1  14
TORSDOF 6
ENDMDL
MODEL 2
REMARK VINA RESULT:      -8.1      0.545      1.257
REMARK  Name = 
REMARK  6 active torsions:
REMARK  status: ('A' for Active; 'I' for Inactive)
REMARK    1  A    between atoms: C_2  and  C_19
REMARK    2  A    between atoms: N_3  and  C_4
REMARK    3  A    between atoms: C_4  and  C_5
REMARK    4  A    between atoms: C_5  and  S_6
REMARK    5  A    between atoms: S_6  and  C_9
REMARK    6  A    between atoms: C_12  and  C_13
REMARK                            x       y       z     vdW  Elec       q    Type
REMARK                         _______ _______ _______ _____ _____    ______ ____
ROOT
ATOM      1  S   UNL     1       6.974   6.436  17.116  0.00  0.00    +0.000 S 
ATOM      2  O   UNL     1       5.725   7.016  17.578  0.00  0.00    +0.000 OA
ATOM      3  O   UNL     1       8.113   7.284  16.804  0.00  0.00    +0.000 OA
ENDROOT
BRANCH   1   4
ATOM      4  C   UNL     1       6.599   5.515  15.640  0.00  0.00    +0.000 A 
ATOM      5  C   UNL     1       5.403   4.823  15.547  0.00  0.00    +0.000 A 
ATOM      6  C   UNL     1       5.197   4.059  14.403  0.00  0.00    +0.000 A 
ATOM      7  C   UNL     1       6.184   4.010  13.408  0.00  0.00    +0.000 A 
ATOM      8  C   UNL     1       7.340   4.757  13.601  0.00  0.00    +0.000 A 
ATOM      9  N   UNL     1       7.571   5.520  14.693  0.00  0.00    +0.000 NA
BRANCH   7  10
ATOM     10  C   UNL     1       6.047   3.177  12.169  0.00  0.00    +0.000 C 
ATOM     11  F   UNL     1       5.037   3.584  11.351  0.00  0.00    +0.000 F 
ATOM     12  F   UNL     1       7.173   3.191  11.407  0.00  0.00    +0.000 F 
ATOM     13  F   UNL     1       5.798   1.869  12.447  0.00  0.00    +0.000 F 
ENDBRANCH   7  10
ENDBRANCH   1   4
BRANCH   1  14
ATOM     14  C   UNL     1       7.511   5.220  18.288  0.00  0.00    +0.000 C 
BRANCH  14  15
ATOM     15  C   UNL     1       6.604   5.208  19.502  0.00  0.00    +0.000 C 
BRANCH  15  18
ATOM     16  O   UNL     1       5.263   2.762  19.976  0.00  0.00    +0.000 OA
ATOM     17  C   UNL     1       4.666   3.671  19.414  0.00  0.00    +0.000 C 
ATOM     18  N   UNL     1       5.221   4.910  19.162  0.00  0.00    +0.000 N 
ATOM     19  H   UNL     1       4.637   5.657  18.808  0.00  0.00    +0.000 HD
BRANCH  17  20
ATOM     20  C   UNL     1       3.252   3.490  19.005  0.00  0.00    +0.000 A 
ATOM     21  C   UNL     1       2.688   4.407  18.111  0.00  0.00    +0.000 A 
ATOM     22  C   UNL     1       1.350   4.283  17.736  0.00  0.00    +0.000 A 
ATOM     23  C   UNL     1       0.573   3.249  18.261  0.00  0.00    +0.000 A 
ATOM     24  C   UNL     1       1.132   2.337  19.158  0.00  0.00    +0.000 A 
ATOM     25  C   UNL     1       2.472   2.457  19.533  0.00  0.00    +0.000 A 
ENDBRANCH  17  20
ENDBRANCH  15  18
ENDBRANCH  14  15
ENDBRANCH   1  14
TORSDOF 6
ENDMDL
MODEL 3
REMARK VINA RESULT:      -8.1      3.807      6.878
REMARK  Name = 
REMARK  6 active torsions:
REMARK  status: ('A' for Active; 'I' for Inactive)
REMARK    1  A    between atoms: C_2  and  C_19
REMARK    2  A    between atoms: N_3  and  C_4
REMARK    3  A    between atoms: C_4  and  C_5
REMARK    4  A    between atoms: C_5  and  S_6
REMARK    5  A    between atoms: S_6  and  C_9
REMARK    6  A    between atoms: C_12  and  C_13
REMARK                            x       y       z     vdW  Elec       q    Type
REMARK                         _______ _______ _______ _____ _____    ______ ____
ROOT
ATOM      1  S   UNL     1       6.984   5.267  18.863  0.00  0.00    +0.000 S 
ATOM      2  O   UNL     1       7.547   4.321  17.915  0.00  0.00    +0.000 OA
ATOM      3  O   UNL     1       7.647   5.527  20.130  0.00  0.00    +0.000 OA
ENDROOT
BRANCH   1   4
ATOM      4  C   UNL     1       5.343   4.694  19.248  0.00  0.00    +0.000 A 
ATOM      5  C   UNL     1       4.337   5.611  19.501  0.00  0.00    +0.000 A 
ATOM      6  C   UNL     1       3.095   5.107  19.872  0.00  0.00    +0.000 A 
ATOM      7  C   UNL     1       2.907   3.721  19.981  0.00  0.00    +0.000 A 
ATOM      8  C   UNL     1       3.986   2.894  19.689  0.00  0.00    +0.000 A 
ATOM      9  N   UNL     1       5.203   3.346  19.314  0.00  0.00    +0.000 NA
BRANCH   7  10
ATOM     10  C   UNL     1       1.609   3.110  20.413  0.00  0.00    +0.000 C 
ATOM     11  F   UNL     1       1.329   1.933  19.789  0.00  0.00    +0.000 F 
ATOM     12  F   UNL     1       1.580   2.842  21.747  0.00  0.00    +0.000 F 
ATOM     13  F   UNL     1       0.546   3.924  20.171  0.00  0.00    +0.000 F 
ENDBRANCH   7  10
ENDBRANCH   1   4
BRANCH   1  14
ATOM     14  C   UNL     1       6.745   6.822  18.048  0.00  0.00    +0.000 C 
BRANCH  14  15
ATOM     15  C   UNL     1       5.585   6.745  17.075  0.00  0.00    +0.000 C 
BRANCH  15  18
ATOM     16  O   UNL     1       4.719   4.283  15.984  0.00  0.00    +0.000 OA
ATOM     17  C   UNL     1       5.514   4.969  15.354  0.00  0.00    +0.000 C 
ATOM     18  N   UNL     1       5.975   6.196  15.785  0.00  0.00    +0.000 N 
ATOM     19  H   UNL     1       6.532   6.768  15.163  0.00  0.00    +0.000 HD
BRANCH  17  20
ATOM     20  C   UNL     1       5.999   4.514  14.027  0.00  0.00    +0.000 A 
ATOM     21  C   UNL     1       5.222   3.603  13.304  0.00  0.00    +0.000 A 
ATOM     22  C   UNL     1       5.669   3.131  12.070  0.00  0.00    +0.000 A 
ATOM     23  C   UNL     1       6.896   3.561  11.563  0.00  0.00    +0.000 A 
ATOM     24  C   UNL     1       7.677   4.465  12.287  0.00  0.00    +0.000 A 
ATOM     25  C   UNL     1       7.230   4.942  13.521  0.00  0.00    +0.000 A 
ENDBRANCH  17  20
ENDBRANCH  15  18
ENDBRANCH  14  15
ENDBRANCH   1  14
TORSDOF 6
ENDMDL
MODEL 4
REMARK VINA RESULT:      -7.9      1.599      2.226
REMARK  Name = 
REMARK  6 active torsions:
REMARK  status: ('A' for Active; 'I' for Inactive)
REMARK    1  A    between atoms: C_2  and  C_19
REMARK    2  A    between atoms: N_3  and  C_4
REMARK    3  A    between atoms: C_4  and  C_5
REMARK    4  A    between atoms: C_5  and  S_6
REMARK    5  A    between atoms: S_6  and  C_9
REMARK    6  A    between atoms: C_12  and  C_13
REMARK                            x       y       z     vdW  Elec       q    Type
REMARK                         _______ _______ _______ _____ _____    ______ ____
ROOT
ATOM      1  S   UNL     1       6.754   5.625  17.728  0.00  0.00    +0.000 S 
ATOM      2  O   UNL     1       8.143   6.027  17.875  0.00  0.00    +0.000 OA
ATOM      3  O   UNL     1       6.177   4.622  18.608  0.00  0.00    +0.000 OA
ENDROOT
BRANCH   1   4
ATOM      4  C   UNL     1       6.568   5.019  16.065  0.00  0.00    +0.000 A 
ATOM      5  C   UNL     1       5.731   3.944  15.814  0.00  0.00    +0.000 A 
ATOM      6  C   UNL     1       5.684   3.465  14.509  0.00  0.00    +0.000 A 
ATOM      7  C   UNL     1       6.471   4.065  13.515  0.00  0.00    +0.000 A 
ATOM      8  C   UNL     1       7.264   5.148  13.879  0.00  0.00    +0.000 A 
ATOM      9  N   UNL     1       7.327   5.648  15.132  0.00  0.00    +0.000 NA
BRANCH   7  10
ATOM     10  C   UNL     1       6.500   3.576  12.098  0.00  0.00    +0.000 C 
ATOM     11  F   UNL     1       7.220   4.375  11.263  0.00  0.00    +0.000 F 
ATOM     12  F   UNL     1       7.044   2.334  11.990  0.00  0.00    +0.000 F 
ATOM     13  F   UNL     1       5.256   3.491  11.553  0.00  0.00    +0.000 F 
ENDBRANCH   7  10
ENDBRANCH   1   4
BRANCH   1  14
ATOM     14  C   UNL     1       5.728   7.067  17.805  0.00  0.00    +0.000 C 
BRANCH  14  15
ATOM     15  C   UNL     1       4.352   6.777  17.237  0.00  0.00    +0.000 C 
BRANCH  15  18
ATOM     16  O   UNL     1       2.579   7.134  19.412  0.00  0.00    +0.000 OA
ATOM     17  C   UNL     1       2.834   5.999  19.029  0.00  0.00    +0.000 C 
ATOM     18  N   UNL     1       3.662   5.720  17.961  0.00  0.00    +0.000 N 
ATOM     19  H   UNL     1       3.733   4.770  17.617  0.00  0.00    +0.000 HD
BRANCH  17  20
ATOM     20  C   UNL     1       2.202   4.831  19.692  0.00  0.00    +0.000 A 
ATOM     21  C   UNL     1       2.496   4.582  21.037  0.00  0.00    +0.000 A 
ATOM     22  C   UNL     1       1.945   3.472  21.677  0.00  0.00    +0.000 A 
ATOM     23  C   UNL     1       1.109   2.605  20.971  0.00  0.00    +0.000 A 
ATOM     24  C   UNL     1       0.820   2.848  19.627  0.00  0.00    +0.000 A 
ATOM     25  C   UNL     1       1.367   3.961  18.985  0.00  0.00    +0.000 A 
ENDBRANCH  17  20
ENDBRANCH  15  18
ENDBRANCH  14  15
ENDBRANCH   1  14
TORSDOF 6
ENDMDL
MODEL 5
REMARK VINA RESULT:      -7.9      0.922      1.374
REMARK  Name = 
REMARK  6 active torsions:
REMARK  status: ('A' for Active; 'I' for Inactive)
REMARK    1  A    between atoms: C_2  and  C_19
REMARK    2  A    between atoms: N_3  and  C_4
REMARK    3  A    between atoms: C_4  and  C_5
REMARK    4  A    between atoms: C_5  and  S_6
REMARK    5  A    between atoms: S_6  and  C_9
REMARK    6  A    between atoms: C_12  and  C_13
REMARK                            x       y       z     vdW  Elec       q    Type
REMARK                         _______ _______ _______ _____ _____    ______ ____
ROOT
ATOM      1  S   UNL     1       6.633   6.641  17.154  0.00  0.00    +0.000 S 
ATOM      2  O   UNL     1       5.306   6.965  17.648  0.00  0.00    +0.000 OA
ATOM      3  O   UNL     1       7.590   7.695  16.858  0.00  0.00    +0.000 OA
ENDROOT
BRANCH   1   4
ATOM      4  C   UNL     1       6.410   5.711  15.653  0.00  0.00    +0.000 A 
ATOM      5  C   UNL     1       5.179   5.142  15.373  0.00  0.00    +0.000 A 
ATOM      6  C   UNL     1       5.085   4.363  14.224  0.00  0.00    +0.000 A 
ATOM      7  C   UNL     1       6.212   4.178  13.411  0.00  0.00    +0.000 A 
ATOM      8  C   UNL     1       7.394   4.810  13.782  0.00  0.00    +0.000 A 
ATOM      9  N   UNL     1       7.521   5.583  14.883  0.00  0.00    +0.000 NA
BRANCH   7  10
ATOM     10  C   UNL     1       6.193   3.320  12.181  0.00  0.00    +0.000 C 
ATOM     11  F   UNL     1       5.865   2.022  12.431  0.00  0.00    +0.000 F 
ATOM     12  F   UNL     1       5.300   3.760  11.255  0.00  0.00    +0.000 F 
ATOM     13  F   UNL     1       7.399   3.286  11.553  0.00  0.00    +0.000 F 
ENDBRANCH   7  10
ENDBRANCH   1   4
BRANCH   1  14
ATOM     14  C   UNL     1       7.405   5.511  18.280  0.00  0.00    +0.000 C 
BRANCH  14  15
ATOM     15  C   UNL     1       6.786   4.132  18.164  0.00  0.00    +0.000 C 
BRANCH  15  18
ATOM     16  O   UNL     1       4.344   2.925  17.400  0.00  0.00    +0.000 OA
ATOM     17  C   UNL     1       4.452   3.394  18.527  0.00  0.00    +0.000 C 
ATOM     18  N   UNL     1       5.608   3.977  19.004  0.00  0.00    +0.000 N 
ATOM     19  H   UNL     1       5.673   4.232  19.982  0.00  0.00    +0.000 HD
BRANCH  17  20
ATOM     20  C   UNL     1       3.317   3.310  19.478  0.00  0.00    +0.000 A 
ATOM     21  C   UNL     1       2.104   3.916  19.133  0.00  0.00    +0.000 A 
ATOM     22  C   UNL     1       1.031   3.884  20.023  0.00  0.00    +0.000 A 
ATOM     23  C   UNL     1       1.172   3.257  21.261  0.00  0.00    +0.000 A 
ATOM     24  C   UNL     1       2.383   2.657  21.611  0.00  0.00    +0.000 A 
ATOM     25  C   UNL     1       3.459   2.685  20.721  0.00  0.00    +0.000 A 
ENDBRANCH  17  20
ENDBRANCH  15  18
ENDBRANCH  14  15
ENDBRANCH   1  14
TORSDOF 6
ENDMDL
MODEL 6
REMARK VINA RESULT:      -7.9      5.283      8.130
REMARK  Name = 
REMARK  6 active torsions:
REMARK  status: ('A' for Active; 'I' for Inactive)
REMARK    1  A    between atoms: C_2  and  C_19
REMARK    2  A    between atoms: N_3  and  C_4
REMARK    3  A    between atoms: C_4  and  C_5
REMARK    4  A    between atoms: C_5  and  S_6
REMARK    5  A    between atoms: S_6  and  C_9
REMARK    6  A    between atoms: C_12  and  C_13
REMARK                            x       y       z     vdW  Elec       q    Type
REMARK                         _______ _______ _______ _____ _____    ______ ____
ROOT
ATOM      1  S   UNL     1       7.002   5.448  17.014  0.00  0.00    +0.000 S 
ATOM      2  O   UNL     1       6.638   6.158  15.800  0.00  0.00    +0.000 OA
ATOM      3  O   UNL     1       7.936   4.335  16.968  0.00  0.00    +0.000 OA
ENDROOT
BRANCH   1   4
ATOM      4  C   UNL     1       5.491   4.824  17.718  0.00  0.00    +0.000 A 
ATOM      5  C   UNL     1       5.057   5.296  18.945  0.00  0.00    +0.000 A 
ATOM      6  C   UNL     1       3.912   4.716  19.481  0.00  0.00    +0.000 A 
ATOM      7  C   UNL     1       3.253   3.695  18.783  0.00  0.00    +0.000 A 
ATOM      8  C   UNL     1       3.770   3.311  17.550  0.00  0.00    +0.000 A 
ATOM      9  N   UNL     1       4.873   3.857  16.993  0.00  0.00    +0.000 NA
BRANCH   7  10
ATOM     10  C   UNL     1       2.037   2.999  19.318  0.00  0.00    +0.000 C 
ATOM     11  F   UNL     1       2.082   1.645  19.179  0.00  0.00    +0.000 F 
ATOM     12  F   UNL     1       1.848   3.233  20.645  0.00  0.00    +0.000 F 
ATOM     13  F   UNL     1       0.895   3.401  18.699  0.00  0.00    +0.000 F 
ENDBRANCH   7  10
ENDBRANCH   1   4
BRANCH   1  14
ATOM     14  C   UNL     1       7.610   6.615  18.201  0.00  0.00    +0.000 C 
BRANCH  14  15
ATOM     15  C   UNL     1       7.632   8.013  17.617  0.00  0.00    +0.000 C 
BRANCH  15  18
ATOM     16  O   UNL     1       7.734  10.837  17.486  0.00  0.00    +0.000 OA
ATOM     17  C   UNL     1       8.608  10.235  18.098  0.00  0.00    +0.000 C 
ATOM     18  N   UNL     1       8.633   8.863  18.243  0.00  0.00    +0.000 N 
ATOM     19  H   UNL     1       9.310   8.438  18.864  0.00  0.00    +0.000 HD
BRANCH  17  20
ATOM     20  C   UNL     1       9.694  10.987  18.773  0.00  0.00    +0.000 A 
ATOM     21  C   UNL     1      10.813  11.370  18.025  0.00  0.00    +0.000 A 
ATOM     22  C   UNL     1      11.865  12.047  18.641  0.00  0.00    +0.000 A 
ATOM     23  C   UNL     1      11.806  12.331  20.006  0.00  0.00    +0.000 A 
ATOM     24  C   UNL     1      10.694  11.944  20.756  0.00  0.00    +0.000 A 
ATOM     25  C   UNL     1       9.637  11.269  20.142  0.00  0.00    +0.000 A 
ENDBRANCH  17  20
ENDBRANCH  15  18
ENDBRANCH  14  15
ENDBRANCH   1  14
TORSDOF 6
ENDMDL
MODEL 7
REMARK VINA RESULT:      -7.9      1.647      2.483
REMARK  Name = 
REMARK  6 active torsions:
REMARK  status: ('A' for Active; 'I' for Inactive)
REMARK    1  A    between atoms: C_2  and  C_19
REMARK    2  A    between atoms: N_3  and  C_4
REMARK    3  A    between atoms: C_4  and  C_5
REMARK    4  A    between atoms: C_5  and  S_6
REMARK    5  A    between atoms: S_6  and  C_9
REMARK    6  A    between atoms: C_12  and  C_13
REMARK                            x       y       z     vdW  Elec       q    Type
REMARK                         _______ _______ _______ _____ _____    ______ ____
ROOT
ATOM      1  S   UNL     1       7.328   4.774  17.851  0.00  0.00    +0.000 S 
ATOM      2  O   UNL     1       8.707   4.343  18.003  0.00  0.00    +0.000 OA
ATOM      3  O   UNL     1       6.280   4.207  18.684  0.00  0.00    +0.000 OA
ENDROOT
BRANCH   1   4
ATOM      4  C   UNL     1       6.872   4.452  16.161  0.00  0.00    +0.000 A 
ATOM      5  C   UNL     1       5.853   3.557  15.882  0.00  0.00    +0.000 A 
ATOM      6  C   UNL     1       5.591   3.287  14.543  0.00  0.00    +0.000 A 
ATOM      7  C   UNL     1       6.352   3.910  13.543  0.00  0.00    +0.000 A 
ATOM      8  C   UNL     1       7.341   4.803  13.939  0.00  0.00    +0.000 A 
ATOM      9  N   UNL     1       7.616   5.099  15.229  0.00  0.00    +0.000 NA
BRANCH   7  10
ATOM     10  C   UNL     1       6.152   3.637  12.083  0.00  0.00    +0.000 C 
ATOM     11  F   UNL     1       6.859   4.472  11.272  0.00  0.00    +0.000 F 
ATOM     12  F   UNL     1       6.524   2.375  11.735  0.00  0.00    +0.000 F 
ATOM     13  F   UNL     1       4.851   3.762  11.705  0.00  0.00    +0.000 F 
ENDBRANCH   7  10
ENDBRANCH   1   4
BRANCH   1  14
ATOM     14  C   UNL     1       7.256   6.536  18.016  0.00  0.00    +0.000 C 
BRANCH  14  15
ATOM     15  C   UNL     1       5.856   7.045  17.734  0.00  0.00    +0.000 C 
BRANCH  15  18
ATOM     16  O   UNL     1       3.062   7.414  17.487  0.00  0.00    +0.000 OA
ATOM     17  C   UNL     1       3.485   6.439  18.098  0.00  0.00    +0.000 C 
ATOM     18  N   UNL     1       4.826   6.155  18.250  0.00  0.00    +0.000 N 
ATOM     19  H   UNL     1       5.108   5.271  18.656  0.00  0.00    +0.000 HD
BRANCH  17  20
ATOM     20  C   UNL     1       2.536   5.461  18.682  0.00  0.00    +0.000 A 
ATOM     21  C   UNL     1       1.984   4.480  17.850  0.00  0.00    +0.000 A 
ATOM     22  C   UNL     1       1.062   3.568  18.364  0.00  0.00    +0.000 A 
ATOM     23  C   UNL     1       0.683   3.641  19.705  0.00  0.00    +0.000 A 
ATOM     24  C   UNL     1       1.227   4.623  20.536  0.00  0.00    +0.000 A 
ATOM     25  C   UNL     1       2.153   5.536  20.025  0.00  0.00    +0.000 A 
ENDBRANCH  17  20
ENDBRANCH  15  18
ENDBRANCH  14  15
ENDBRANCH   1  14
TORSDOF 6
ENDMDL
MODEL 8
REMARK VINA RESULT:      -7.9      4.109      5.544
REMARK  Name = 
REMARK  6 active torsions:
REMARK  status: ('A' for Active; 'I' for Inactive)
REMARK    1  A    between atoms: C_2  and  C_19
REMARK    2  A    between atoms: N_3  and  C_4
REMARK    3  A    between atoms: C_4  and  C_5
REMARK    4  A    between atoms: C_5  and  S_6
REMARK    5  A    between atoms: S_6  and  C_9
REMARK    6  A    between atoms: C_12  and  C_13
REMARK                            x       y       z     vdW  Elec       q    Type
REMARK                         _______ _______ _______ _____ _____    ______ ____
ROOT
ATOM      1  S   UNL     1       3.156   2.089  18.442  0.00  0.00    +0.000 S 
ATOM      2  O   UNL     1       3.999   0.906  18.415  0.00  0.00    +0.000 OA
ATOM      3  O   UNL     1       2.027   2.214  17.535  0.00  0.00    +0.000 OA
ENDROOT
BRANCH   1   4
ATOM      4  C   UNL     1       4.218   3.484  18.138  0.00  0.00    +0.000 A 
ATOM      5  C   UNL     1       4.217   4.090  16.892  0.00  0.00    +0.000 A 
ATOM      6  C   UNL     1       5.122   5.127  16.688  0.00  0.00    +0.000 A 
ATOM      7  C   UNL     1       5.989   5.511  17.721  0.00  0.00    +0.000 A 
ATOM      8  C   UNL     1       5.892   4.841  18.936  0.00  0.00    +0.000 A 
ATOM      9  N   UNL     1       5.018   3.839  19.175  0.00  0.00    +0.000 NA
BRANCH   7  10
ATOM     10  C   UNL     1       7.016   6.592  17.559  0.00  0.00    +0.000 C 
ATOM     11  F   UNL     1       6.482   7.843  17.504  0.00  0.00    +0.000 F 
ATOM     12  F   UNL     1       7.913   6.612  18.580  0.00  0.00    +0.000 F 
ATOM     13  F   UNL     1       7.746   6.447  16.420  0.00  0.00    +0.000 F 
ENDBRANCH   7  10
ENDBRANCH   1   4
BRANCH   1  14
ATOM     14  C   UNL     1       2.553   2.326  20.091  0.00  0.00    +0.000 C 
BRANCH  14  15
ATOM     15  C   UNL     1       1.204   3.018  20.075  0.00  0.00    +0.000 C 
BRANCH  15  18
ATOM     16  O   UNL     1       2.445   5.207  21.368  0.00  0.00    +0.000 OA
ATOM     17  C   UNL     1       1.891   5.385  20.290  0.00  0.00    +0.000 C 
ATOM     18  N   UNL     1       1.282   4.379  19.568  0.00  0.00    +0.000 N 
ATOM     19  H   UNL     1       0.953   4.566  18.629  0.00  0.00    +0.000 HD
BRANCH  17  20
ATOM     20  C   UNL     1       1.890   6.732  19.669  0.00  0.00    +0.000 A 
ATOM     21  C   UNL     1       2.472   6.891  18.407  0.00  0.00    +0.000 A 
ATOM     22  C   UNL     1       2.517   8.152  17.814  0.00  0.00    +0.000 A 
ATOM     23  C   UNL     1       1.991   9.257  18.485  0.00  0.00    +0.000 A 
ATOM     24  C   UNL     1       1.415   9.102  19.747  0.00  0.00    +0.000 A 
ATOM     25  C   UNL     1       1.365   7.840  20.343  0.00  0.00    +0.000 A 
ENDBRANCH  17  20
ENDBRANCH  15  18
ENDBRANCH  14  15
ENDBRANCH   1  14
TORSDOF 6
ENDMDL
MODEL 9
REMARK VINA RESULT:      -7.8      1.601      2.273
REMARK  Name = 
REMARK  6 active torsions:
REMARK  status: ('A' for Active; 'I' for Inactive)
REMARK    1  A    between atoms: C_2  and  C_19
REMARK    2  A    between atoms: N_3  and  C_4
REMARK    3  A    between atoms: C_4  and  C_5
REMARK    4  A    between atoms: C_5  and  S_6
REMARK    5  A    between atoms: S_6  and  C_9
REMARK    6  A    between atoms: C_12  and  C_13
REMARK                            x       y       z     vdW  Elec       q    Type
REMARK                         _______ _______ _______ _____ _____    ______ ____
ROOT
ATOM      1  S   UNL     1       6.817   5.315  17.675  0.00  0.00    +0.000 S 
ATOM      2  O   UNL     1       8.242   5.300  17.959  0.00  0.00    +0.000 OA
ATOM      3  O   UNL     1       5.900   4.494  18.448  0.00  0.00    +0.000 OA
ENDROOT
BRANCH   1   4
ATOM      4  C   UNL     1       6.628   4.835  15.971  0.00  0.00    +0.000 A 
ATOM      5  C   UNL     1       5.671   3.896  15.624  0.00  0.00    +0.000 A 
ATOM      6  C   UNL     1       5.620   3.502  14.291  0.00  0.00    +0.000 A 
ATOM      7  C   UNL     1       6.519   4.051  13.365  0.00  0.00    +0.000 A 
ATOM      8  C   UNL     1       7.428   4.998  13.824  0.00  0.00    +0.000 A 
ATOM      9  N   UNL     1       7.501   5.413  15.108  0.00  0.00    +0.000 NA
BRANCH   7  10
ATOM     10  C   UNL     1       6.547   3.644  11.923  0.00  0.00    +0.000 C 
ATOM     11  F   UNL     1       7.169   2.452  11.707  0.00  0.00    +0.000 F 
ATOM     12  F   UNL     1       5.300   3.517  11.396  0.00  0.00    +0.000 F 
ATOM     13  F   UNL     1       7.195   4.550  11.141  0.00  0.00    +0.000 F 
ENDBRANCH   7  10
ENDBRANCH   1   4
BRANCH   1  14
ATOM     14  C   UNL     1       6.236   6.988  17.745  0.00  0.00    +0.000 C 
BRANCH  14  15
ATOM     15  C   UNL     1       4.785   7.070  17.313  0.00  0.00    +0.000 C 
BRANCH  15  18
ATOM     16  O   UNL     1       2.378   7.300  18.781  0.00  0.00    +0.000 OA
ATOM     17  C   UNL     1       2.837   6.186  18.556  0.00  0.00    +0.000 C 
ATOM     18  N   UNL     1       3.987   5.967  17.827  0.00  0.00    +0.000 N 
ATOM     19  H   UNL     1       4.245   5.021  17.570  0.00  0.00    +0.000 HD
BRANCH  17  20
ATOM     20  C   UNL     1       2.123   4.978  19.037  0.00  0.00    +0.000 A 
ATOM     21  C   UNL     1       1.688   4.036  18.098  0.00  0.00    +0.000 A 
ATOM     22  C   UNL     1       0.984   2.908  18.517  0.00  0.00    +0.000 A 
ATOM     23  C   UNL     1       0.705   2.725  19.872  0.00  0.00    +0.000 A 
ATOM     24  C   UNL     1       1.132   3.666  20.810  0.00  0.00    +0.000 A 
ATOM     25  C   UNL     1       1.840   4.795  20.394  0.00  0.00    +0.000 A 
ENDBRANCH  17  20
ENDBRANCH  15  18
ENDBRANCH  14  15
ENDBRANCH   1  14
TORSDOF 6
ENDMDL
