MODEL 1
REMARK VINA RESULT:      -8.6      0.000      0.000
REMARK  Name = 
REMARK  9 active torsions:
REMARK  status: ('A' for Active; 'I' for Inactive)
REMARK    1  A    between atoms: C_1  and  C_2
REMARK    2  A    between atoms: C_6  and  C_7
REMARK    3  A    between atoms: N_9  and  C_10
REMARK    4  A    between atoms: C_10  and  C_11
REMARK    5  A    between atoms: C_10  and  C_12
REMARK    6  A    between atoms: C_13  and  N_14
REMARK    7  A    between atoms: C_15  and  C_17
REMARK    8  A    between atoms: C_19  and  C_20
REMARK    9  A    between atoms: N_25  and  C_26
REMARK                            x       y       z     vdW  Elec       q    Type
REMARK                         _______ _______ _______ _____ _____    ______ ____
ROOT
ATOM      1  N   UNL     1       3.818   4.016  17.872  0.00  0.00    +0.000 N 
ATOM      2  C   UNL     1       5.196   4.036  17.903  0.00  0.00    +0.000 C 
ATOM      3  O   UNL     1       5.868   3.727  18.882  0.00  0.00    +0.000 OA
ATOM      4  H   UNL     1       3.417   3.797  16.955  0.00  0.00    +0.000 HD
ENDROOT
BRANCH   1  11
ATOM      5  C   UNL     1       3.215   1.226  18.990  0.00  0.00    +0.000 C 
ATOM      6  C   UNL     1       2.595   2.519  19.449  0.00  0.00    +0.000 A 
ATOM      7  C   UNL     1       1.753   2.434  20.581  0.00  0.00    +0.000 A 
ATOM      8  C   UNL     1       1.246   3.569  21.207  0.00  0.00    +0.000 A 
ATOM      9  C   UNL     1       1.582   4.826  20.724  0.00  0.00    +0.000 A 
ATOM     10  C   UNL     1       2.409   4.949  19.600  0.00  0.00    +0.000 A 
ATOM     11  C   UNL     1       2.919   3.798  18.944  0.00  0.00    +0.000 A 
BRANCH  10  12
ATOM     12  C   UNL     1       2.746   6.324  19.108  0.00  0.00    +0.000 C 
ATOM     13  O   UNL     1       3.763   6.518  18.454  0.00  0.00    +0.000 OA
ATOM     14  N   UNL     1       1.821   7.303  19.419  0.00  0.00    +0.000 N 
ATOM     15  H   UNL     1       0.895   7.003  19.696  0.00  0.00    +0.000 HD
BRANCH  14  16
ATOM     16  C   UNL     1       1.975   8.696  19.029  0.00  0.00    +0.000 C 
ATOM     17  C   UNL     1       1.604   8.888  17.561  0.00  0.00    +0.000 C 
ATOM     18  C   UNL     1       1.103   9.572  19.925  0.00  0.00    +0.000 C 
ENDBRANCH  14  16
ENDBRANCH  10  12
ENDBRANCH   1  11
BRANCH   2  19
ATOM     19  C   UNL     1       5.811   4.316  16.619  0.00  0.00    +0.000 A 
ATOM     20  C   UNL     1       5.765   3.529  15.480  0.00  0.00    +0.000 A 
ATOM     21  C   UNL     1       6.271   4.333  14.429  0.00  0.00    +0.000 A 
ATOM     22  N   UNL     1       6.655   5.534  14.900  0.00  0.00    +0.000 NA
ATOM     23  N   UNL     1       6.519   5.447  16.247  0.00  0.00    +0.000 N 
BRANCH  23  24
ATOM     24  C   UNL     1       7.048   6.471  17.078  0.00  0.00    +0.000 A 
ATOM     25  C   UNL     1       7.807   6.119  18.200  0.00  0.00    +0.000 A 
ATOM     26  C   UNL     1       8.453   7.116  18.936  0.00  0.00    +0.000 A 
ATOM     27  C   UNL     1       8.313   8.455  18.572  0.00  0.00    +0.000 A 
ATOM     28 CL   UNL     1       9.139   9.676  19.457  0.00  0.00    +0.000 Cl
ATOM     29  C   UNL     1       7.510   8.812  17.491  0.00  0.00    +0.000 A 
ATOM     30  C   UNL     1       6.866   7.821  16.749  0.00  0.00    +0.000 A 
ENDBRANCH  23  24
BRANCH  21  31
ATOM     31  C   UNL     1       6.342   3.974  12.967  0.00  0.00    +0.000 C 
ATOM     32  F   UNL     1       7.223   4.764  12.293  0.00  0.00    +0.000 F 
ATOM     33  F   UNL     1       6.749   2.692  12.766  0.00  0.00    +0.000 F 
ATOM     34  F   UNL     1       5.145   4.114  12.340  0.00  0.00    +0.000 F 
ENDBRANCH  21  31
ENDBRANCH   2  19
TORSDOF 6
ENDMDL
MODEL 2
REMARK VINA RESULT:      -8.4      0.910      1.089
REMARK  Name = 
REMARK  9 active torsions:
REMARK  status: ('A' for Active; 'I' for Inactive)
REMARK    1  A    between atoms: C_1  and  C_2
REMARK    2  A    between atoms: C_6  and  C_7
REMARK    3  A    between atoms: N_9  and  C_10
REMARK    4  A    between atoms: C_10  and  C_11
REMARK    5  A    between atoms: C_10  and  C_12
REMARK    6  A    between atoms: C_13  and  N_14
REMARK    7  A    between atoms: C_15  and  C_17
REMARK    8  A    between atoms: C_19  and  C_20
REMARK    9  A    between atoms: N_25  and  C_26
REMARK                            x       y       z     vdW  Elec       q    Type
REMARK                         _______ _______ _______ _____ _____    ______ ____
ROOT
ATOM      1  N   UNL     1       4.073   3.764  18.342  0.00  0.00    +0.000 N 
ATOM      2  C   UNL     1       5.358   4.264  18.337  0.00  0.00    +0.000 C 
ATOM      3  O   UNL     1       6.046   4.404  19.343  0.00  0.00    +0.000 OA
ATOM      4  H   UNL     1       3.816   3.245  17.498  0.00  0.00    +0.000 HD
ENDROOT
BRANCH   1  11
ATOM      5  C   UNL     1       4.745   1.546  20.349  0.00  0.00    +0.000 C 
ATOM      6  C   UNL     1       3.520   2.421  20.371  0.00  0.00    +0.000 A 
ATOM      7  C   UNL     1       2.676   2.275  21.495  0.00  0.00    +0.000 A 
ATOM      8  C   UNL     1       1.602   3.129  21.723  0.00  0.00    +0.000 A 
ATOM      9  C   UNL     1       1.351   4.168  20.836  0.00  0.00    +0.000 A 
ATOM     10  C   UNL     1       2.163   4.340  19.708  0.00  0.00    +0.000 A 
ATOM     11  C   UNL     1       3.252   3.463  19.457  0.00  0.00    +0.000 A 
BRANCH  10  12
ATOM     12  C   UNL     1       1.858   5.470  18.773  0.00  0.00    +0.000 C 
ATOM     13  O   UNL     1       1.424   5.248  17.649  0.00  0.00    +0.000 OA
ATOM     14  N   UNL     1       2.069   6.734  19.291  0.00  0.00    +0.000 N 
ATOM     15  H   UNL     1       2.141   6.825  20.296  0.00  0.00    +0.000 HD
BRANCH  14  16
ATOM     16  C   UNL     1       1.830   7.954  18.534  0.00  0.00    +0.000 C 
ATOM     17  C   UNL     1       1.477   9.108  19.468  0.00  0.00    +0.000 C 
ATOM     18  C   UNL     1       3.070   8.288  17.707  0.00  0.00    +0.000 C 
ENDBRANCH  14  16
ENDBRANCH  10  12
ENDBRANCH   1  11
BRANCH   2  19
ATOM     19  C   UNL     1       5.900   4.481  17.009  0.00  0.00    +0.000 A 
ATOM     20  C   UNL     1       5.808   3.632  15.919  0.00  0.00    +0.000 A 
ATOM     21  C   UNL     1       6.247   4.384  14.801  0.00  0.00    +0.000 A 
ATOM     22  N   UNL     1       6.636   5.614  15.185  0.00  0.00    +0.000 NA
ATOM     23  N   UNL     1       6.571   5.599  16.541  0.00  0.00    +0.000 N 
BRANCH  23  24
ATOM     24  C   UNL     1       7.127   6.673  17.286  0.00  0.00    +0.000 A 
ATOM     25  C   UNL     1       7.954   6.393  18.380  0.00  0.00    +0.000 A 
ATOM     26  C   UNL     1       8.622   7.437  19.025  0.00  0.00    +0.000 A 
ATOM     27  C   UNL     1       8.436   8.753  18.601  0.00  0.00    +0.000 A 
ATOM     28 CL   UNL     1       9.287  10.032  19.374  0.00  0.00    +0.000 Cl
ATOM     29  C   UNL     1       7.567   9.040  17.551  0.00  0.00    +0.000 A 
ATOM     30  C   UNL     1       6.901   8.001  16.899  0.00  0.00    +0.000 A 
ENDBRANCH  23  24
BRANCH  21  31
ATOM     31  C   UNL     1       6.248   3.946  13.358  0.00  0.00    +0.000 C 
ATOM     32  F   UNL     1       7.088   4.703  12.600  0.00  0.00    +0.000 F 
ATOM     33  F   UNL     1       6.653   2.657  13.207  0.00  0.00    +0.000 F 
ATOM     34  F   UNL     1       5.020   4.047  12.786  0.00  0.00    +0.000 F 
ENDBRANCH  21  31
ENDBRANCH   2  19
TORSDOF 6
ENDMDL
MODEL 3
REMARK VINA RESULT:      -8.3      6.943     10.230
REMARK  Name = 
REMARK  9 active torsions:
REMARK  status: ('A' for Active; 'I' for Inactive)
REMARK    1  A    between atoms: C_1  and  C_2
REMARK    2  A    between atoms: C_6  and  C_7
REMARK    3  A    between atoms: N_9  and  C_10
REMARK    4  A    between atoms: C_10  and  C_11
REMARK    5  A    between atoms: C_10  and  C_12
REMARK    6  A    between atoms: C_13  and  N_14
REMARK    7  A    between atoms: C_15  and  C_17
REMARK    8  A    between atoms: C_19  and  C_20
REMARK    9  A    between atoms: N_25  and  C_26
REMARK                            x       y       z     vdW  Elec       q    Type
REMARK                         _______ _______ _______ _____ _____    ______ ____
ROOT
ATOM      1  N   UNL     1      -2.781  12.416  18.628  0.00  0.00    +0.000 N 
ATOM      2  C   UNL     1      -1.727  11.534  18.734  0.00  0.00    +0.000 C 
ATOM      3  O   UNL     1      -1.850  10.314  18.765  0.00  0.00    +0.000 OA
ATOM      4  H   UNL     1      -2.562  13.282  18.127  0.00  0.00    +0.000 HD
ENDROOT
BRANCH   1  11
ATOM      5  C   UNL     1      -4.283  11.008  16.356  0.00  0.00    +0.000 C 
ATOM      6  C   UNL     1      -4.890  11.526  17.634  0.00  0.00    +0.000 A 
ATOM      7  C   UNL     1      -6.253  11.215  17.842  0.00  0.00    +0.000 A 
ATOM      8  C   UNL     1      -6.893  11.489  19.046  0.00  0.00    +0.000 A 
ATOM      9  C   UNL     1      -6.179  12.069  20.086  0.00  0.00    +0.000 A 
ATOM     10  C   UNL     1      -4.828  12.396  19.914  0.00  0.00    +0.000 A 
ATOM     11  C   UNL     1      -4.168  12.136  18.684  0.00  0.00    +0.000 A 
BRANCH  10  12
ATOM     12  C   UNL     1      -4.094  13.024  21.060  0.00  0.00    +0.000 C 
ATOM     13  O   UNL     1      -3.488  14.078  20.907  0.00  0.00    +0.000 OA
ATOM     14  N   UNL     1      -4.190  12.348  22.261  0.00  0.00    +0.000 N 
ATOM     15  H   UNL     1      -4.933  11.668  22.360  0.00  0.00    +0.000 HD
BRANCH  14  16
ATOM     16  C   UNL     1      -3.544  12.802  23.484  0.00  0.00    +0.000 C 
ATOM     17  C   UNL     1      -4.376  12.422  24.706  0.00  0.00    +0.000 C 
ATOM     18  C   UNL     1      -2.145  12.197  23.573  0.00  0.00    +0.000 C 
ENDBRANCH  14  16
ENDBRANCH  10  12
ENDBRANCH   1  11
BRANCH   2  19
ATOM     19  C   UNL     1      -0.422  12.164  18.658  0.00  0.00    +0.000 A 
ATOM     20  C   UNL     1      -0.147  13.482  18.334  0.00  0.00    +0.000 A 
ATOM     21  C   UNL     1       1.218  13.686  18.652  0.00  0.00    +0.000 A 
ATOM     22  N   UNL     1       1.771  12.544  19.103  0.00  0.00    +0.000 NA
ATOM     23  N   UNL     1       0.810  11.600  18.947  0.00  0.00    +0.000 N 
BRANCH  23  24
ATOM     24  C   UNL     1       1.134  10.228  19.121  0.00  0.00    +0.000 A 
ATOM     25  C   UNL     1       1.662   9.507  18.044  0.00  0.00    +0.000 A 
ATOM     26  C   UNL     1       2.121   8.202  18.245  0.00  0.00    +0.000 A 
ATOM     27  C   UNL     1       2.020   7.613  19.506  0.00  0.00    +0.000 A 
ATOM     28 CL   UNL     1       2.618   6.021  19.759  0.00  0.00    +0.000 Cl
ATOM     29  C   UNL     1       1.440   8.307  20.565  0.00  0.00    +0.000 A 
ATOM     30  C   UNL     1       0.984   9.612  20.371  0.00  0.00    +0.000 A 
ENDBRANCH  23  24
BRANCH  21  31
ATOM     31  C   UNL     1       1.983  14.983  18.575  0.00  0.00    +0.000 C 
ATOM     32  F   UNL     1       2.653  15.246  19.730  0.00  0.00    +0.000 F 
ATOM     33  F   UNL     1       2.916  14.977  17.585  0.00  0.00    +0.000 F 
ATOM     34  F   UNL     1       1.172  16.050  18.351  0.00  0.00    +0.000 F 
ENDBRANCH  21  31
ENDBRANCH   2  19
TORSDOF 6
ENDMDL
MODEL 4
REMARK VINA RESULT:      -8.1      0.964      1.576
REMARK  Name = 
REMARK  9 active torsions:
REMARK  status: ('A' for Active; 'I' for Inactive)
REMARK    1  A    between atoms: C_1  and  C_2
REMARK    2  A    between atoms: C_6  and  C_7
REMARK    3  A    between atoms: N_9  and  C_10
REMARK    4  A    between atoms: C_10  and  C_11
REMARK    5  A    between atoms: C_10  and  C_12
REMARK    6  A    between atoms: C_13  and  N_14
REMARK    7  A    between atoms: C_15  and  C_17
REMARK    8  A    between atoms: C_19  and  C_20
REMARK    9  A    between atoms: N_25  and  C_26
REMARK                            x       y       z     vdW  Elec       q    Type
REMARK                         _______ _______ _______ _____ _____    ______ ____
ROOT
ATOM      1  N   UNL     1       4.112   3.701  18.313  0.00  0.00    +0.000 N 
ATOM      2  C   UNL     1       5.337   4.332  18.276  0.00  0.00    +0.000 C 
ATOM      3  O   UNL     1       5.979   4.648  19.273  0.00  0.00    +0.000 OA
ATOM      4  H   UNL     1       3.934   3.073  17.524  0.00  0.00    +0.000 HD
ENDROOT
BRANCH   1  11
ATOM      5  C   UNL     1       4.819   1.574  20.403  0.00  0.00    +0.000 C 
ATOM      6  C   UNL     1       3.580   2.430  20.393  0.00  0.00    +0.000 A 
ATOM      7  C   UNL     1       2.740   2.315  21.523  0.00  0.00    +0.000 A 
ATOM      8  C   UNL     1       1.653   3.161  21.718  0.00  0.00    +0.000 A 
ATOM      9  C   UNL     1       1.386   4.160  20.792  0.00  0.00    +0.000 A 
ATOM     10  C   UNL     1       2.195   4.300  19.657  0.00  0.00    +0.000 A 
ATOM     11  C   UNL     1       3.297   3.432  19.439  0.00  0.00    +0.000 A 
BRANCH  10  12
ATOM     12  C   UNL     1       1.871   5.389  18.680  0.00  0.00    +0.000 C 
ATOM     13  O   UNL     1       1.303   5.129  17.626  0.00  0.00    +0.000 OA
ATOM     14  N   UNL     1       2.228   6.663  19.079  0.00  0.00    +0.000 N 
ATOM     15  H   UNL     1       2.415   6.812  20.062  0.00  0.00    +0.000 HD
BRANCH  14  16
ATOM     16  C   UNL     1       1.996   7.846  18.265  0.00  0.00    +0.000 C 
ATOM     17  C   UNL     1       1.510   9.008  19.127  0.00  0.00    +0.000 C 
ATOM     18  C   UNL     1       3.285   8.219  17.534  0.00  0.00    +0.000 C 
ENDBRANCH  14  16
ENDBRANCH  10  12
ENDBRANCH   1  11
BRANCH   2  19
ATOM     19  C   UNL     1       5.891   4.467  16.942  0.00  0.00    +0.000 A 
ATOM     20  C   UNL     1       5.703   3.613  15.868  0.00  0.00    +0.000 A 
ATOM     21  C   UNL     1       6.211   4.295  14.734  0.00  0.00    +0.000 A 
ATOM     22  N   UNL     1       6.729   5.484  15.094  0.00  0.00    +0.000 NA
ATOM     23  N   UNL     1       6.672   5.500  16.449  0.00  0.00    +0.000 N 
BRANCH  23  24
ATOM     24  C   UNL     1       7.341   6.524  17.172  0.00  0.00    +0.000 A 
ATOM     25  C   UNL     1       7.257   7.846  16.723  0.00  0.00    +0.000 A 
ATOM     26  C   UNL     1       7.786   8.876  17.506  0.00  0.00    +0.000 A 
ATOM     27  C   UNL     1       8.424   8.580  18.711  0.00  0.00    +0.000 A 
ATOM     28 CL   UNL     1       9.041   9.852  19.690  0.00  0.00    +0.000 Cl
ATOM     29  C   UNL     1       8.561   7.259  19.131  0.00  0.00    +0.000 A 
ATOM     30  C   UNL     1       8.031   6.227  18.355  0.00  0.00    +0.000 A 
ENDBRANCH  23  24
BRANCH  21  31
ATOM     31  C   UNL     1       6.156   3.833  13.300  0.00  0.00    +0.000 C 
ATOM     32  F   UNL     1       6.438   2.506  13.184  0.00  0.00    +0.000 F 
ATOM     33  F   UNL     1       4.929   4.013  12.743  0.00  0.00    +0.000 F 
ATOM     34  F   UNL     1       7.051   4.485  12.511  0.00  0.00    +0.000 F 
ENDBRANCH  21  31
ENDBRANCH   2  19
TORSDOF 6
ENDMDL
MODEL 5
REMARK VINA RESULT:      -7.8      7.183     10.442
REMARK  Name = 
REMARK  9 active torsions:
REMARK  status: ('A' for Active; 'I' for Inactive)
REMARK    1  A    between atoms: C_1  and  C_2
REMARK    2  A    between atoms: C_6  and  C_7
REMARK    3  A    between atoms: N_9  and  C_10
REMARK    4  A    between atoms: C_10  and  C_11
REMARK    5  A    between atoms: C_10  and  C_12
REMARK    6  A    between atoms: C_13  and  N_14
REMARK    7  A    between atoms: C_15  and  C_17
REMARK    8  A    between atoms: C_19  and  C_20
REMARK    9  A    between atoms: N_25  and  C_26
REMARK                            x       y       z     vdW  Elec       q    Type
REMARK                         _______ _______ _______ _____ _____    ______ ____
ROOT
ATOM      1  N   UNL     1      -2.904  12.445  18.848  0.00  0.00    +0.000 N 
ATOM      2  C   UNL     1      -1.836  11.577  18.761  0.00  0.00    +0.000 C 
ATOM      3  O   UNL     1      -1.945  10.363  18.616  0.00  0.00    +0.000 OA
ATOM      4  H   UNL     1      -2.723  13.380  18.471  0.00  0.00    +0.000 HD
ENDROOT
BRANCH   1  11
ATOM      5  C   UNL     1      -4.467  11.138  16.557  0.00  0.00    +0.000 C 
ATOM      6  C   UNL     1      -5.032  11.570  17.884  0.00  0.00    +0.000 A 
ATOM      7  C   UNL     1      -6.381  11.221  18.125  0.00  0.00    +0.000 A 
ATOM      8  C   UNL     1      -6.979  11.413  19.366  0.00  0.00    +0.000 A 
ATOM      9  C   UNL     1      -6.236  11.948  20.410  0.00  0.00    +0.000 A 
ATOM     10  C   UNL     1      -4.898  12.311  20.207  0.00  0.00    +0.000 A 
ATOM     11  C   UNL     1      -4.282  12.134  18.940  0.00  0.00    +0.000 A 
BRANCH  10  12
ATOM     12  C   UNL     1      -4.132  12.887  21.358  0.00  0.00    +0.000 C 
ATOM     13  O   UNL     1      -3.125  12.328  21.776  0.00  0.00    +0.000 OA
ATOM     14  N   UNL     1      -4.628  14.076  21.858  0.00  0.00    +0.000 N 
ATOM     15  H   UNL     1      -5.269  14.600  21.276  0.00  0.00    +0.000 HD
BRANCH  14  16
ATOM     16  C   UNL     1      -4.020  14.785  22.974  0.00  0.00    +0.000 C 
ATOM     17  C   UNL     1      -3.101  15.895  22.471  0.00  0.00    +0.000 C 
ATOM     18  C   UNL     1      -5.117  15.356  23.870  0.00  0.00    +0.000 C 
ENDBRANCH  14  16
ENDBRANCH  10  12
ENDBRANCH   1  11
BRANCH   2  19
ATOM     19  C   UNL     1      -0.544  12.235  18.707  0.00  0.00    +0.000 A 
ATOM     20  C   UNL     1      -0.294  13.563  18.401  0.00  0.00    +0.000 A 
ATOM     21  C   UNL     1       1.064  13.791  18.737  0.00  0.00    +0.000 A 
ATOM     22  N   UNL     1       1.635  12.656  19.180  0.00  0.00    +0.000 NA
ATOM     23  N   UNL     1       0.696  11.693  19.003  0.00  0.00    +0.000 N 
BRANCH  23  24
ATOM     24  C   UNL     1       1.047  10.326  19.164  0.00  0.00    +0.000 A 
ATOM     25  C   UNL     1       1.591   9.626  18.081  0.00  0.00    +0.000 A 
ATOM     26  C   UNL     1       2.075   8.329  18.270  0.00  0.00    +0.000 A 
ATOM     27  C   UNL     1       1.985   7.726  19.525  0.00  0.00    +0.000 A 
ATOM     28 CL   UNL     1       2.614   6.144  19.764  0.00  0.00    +0.000 Cl
ATOM     29  C   UNL     1       1.389   8.399  20.590  0.00  0.00    +0.000 A 
ATOM     30  C   UNL     1       0.908   9.695  20.408  0.00  0.00    +0.000 A 
ENDBRANCH  23  24
BRANCH  21  31
ATOM     31  C   UNL     1       1.801  15.105  18.683  0.00  0.00    +0.000 C 
ATOM     32  F   UNL     1       0.971  16.139  18.375  0.00  0.00    +0.000 F 
ATOM     33  F   UNL     1       2.384  15.422  19.869  0.00  0.00    +0.000 F 
ATOM     34  F   UNL     1       2.783  15.109  17.743  0.00  0.00    +0.000 F 
ENDBRANCH  21  31
ENDBRANCH   2  19
TORSDOF 6
ENDMDL
MODEL 6
REMARK VINA RESULT:      -7.6      9.084     11.309
REMARK  Name = 
REMARK  9 active torsions:
REMARK  status: ('A' for Active; 'I' for Inactive)
REMARK    1  A    between atoms: C_1  and  C_2
REMARK    2  A    between atoms: C_6  and  C_7
REMARK    3  A    between atoms: N_9  and  C_10
REMARK    4  A    between atoms: C_10  and  C_11
REMARK    5  A    between atoms: C_10  and  C_12
REMARK    6  A    between atoms: C_13  and  N_14
REMARK    7  A    between atoms: C_15  and  C_17
REMARK    8  A    between atoms: C_19  and  C_20
REMARK    9  A    between atoms: N_25  and  C_26
REMARK                            x       y       z     vdW  Elec       q    Type
REMARK                         _______ _______ _______ _____ _____    ______ ____
ROOT
ATOM      1  N   UNL     1      -1.634  13.708  21.879  0.00  0.00    +0.000 N 
ATOM      2  C   UNL     1      -0.824  12.670  21.471  0.00  0.00    +0.000 C 
ATOM      3  O   UNL     1      -0.073  12.048  22.215  0.00  0.00    +0.000 OA
ATOM      4  H   UNL     1      -2.512  13.791  21.359  0.00  0.00    +0.000 HD
ENDROOT
BRANCH   1  11
ATOM      5  C   UNL     1       0.406  15.843  22.702  0.00  0.00    +0.000 C 
ATOM      6  C   UNL     1      -0.713  15.309  23.557  0.00  0.00    +0.000 A 
ATOM      7  C   UNL     1      -0.900  15.951  24.802  0.00  0.00    +0.000 A 
ATOM      8  C   UNL     1      -1.993  15.668  25.616  0.00  0.00    +0.000 A 
ATOM      9  C   UNL     1      -2.940  14.744  25.198  0.00  0.00    +0.000 A 
ATOM     10  C   UNL     1      -2.785  14.085  23.971  0.00  0.00    +0.000 A 
ATOM     11  C   UNL     1      -1.665  14.353  23.139  0.00  0.00    +0.000 A 
BRANCH  10  12
ATOM     12  C   UNL     1      -3.827  13.092  23.557  0.00  0.00    +0.000 C 
ATOM     13  O   UNL     1      -3.561  11.898  23.500  0.00  0.00    +0.000 OA
ATOM     14  N   UNL     1      -5.074  13.625  23.291  0.00  0.00    +0.000 N 
ATOM     15  H   UNL     1      -5.273  14.553  23.641  0.00  0.00    +0.000 HD
BRANCH  14  16
ATOM     16  C   UNL     1      -6.212  12.819  22.874  0.00  0.00    +0.000 C 
ATOM     17  C   UNL     1      -7.316  12.861  23.926  0.00  0.00    +0.000 C 
ATOM     18  C   UNL     1      -6.727  13.328  21.529  0.00  0.00    +0.000 C 
ENDBRANCH  14  16
ENDBRANCH  10  12
ENDBRANCH   1  11
BRANCH   2  19
ATOM     19  C   UNL     1      -1.038  12.262  20.095  0.00  0.00    +0.000 A 
ATOM     20  C   UNL     1      -1.879  11.259  19.640  0.00  0.00    +0.000 A 
ATOM     21  C   UNL     1      -1.949  11.417  18.234  0.00  0.00    +0.000 A 
ATOM     22  N   UNL     1      -1.157  12.429  17.834  0.00  0.00    +0.000 NA
ATOM     23  N   UNL     1      -0.493  12.822  18.951  0.00  0.00    +0.000 N 
BRANCH  23  24
ATOM     24  C   UNL     1       0.592  13.732  18.843  0.00  0.00    +0.000 A 
ATOM     25  C   UNL     1       1.866  13.245  18.531  0.00  0.00    +0.000 A 
ATOM     26  C   UNL     1       2.906  14.144  18.277  0.00  0.00    +0.000 A 
ATOM     27  C   UNL     1       2.680  15.517  18.369  0.00  0.00    +0.000 A 
ATOM     28 CL   UNL     1       3.951  16.622  18.022  0.00  0.00    +0.000 Cl
ATOM     29  C   UNL     1       1.428  16.003  18.739  0.00  0.00    +0.000 A 
ATOM     30  C   UNL     1       0.385  15.111  18.989  0.00  0.00    +0.000 A 
ENDBRANCH  23  24
BRANCH  21  31
ATOM     31  C   UNL     1      -2.810  10.633  17.277  0.00  0.00    +0.000 C 
ATOM     32  F   UNL     1      -3.641   9.774  17.930  0.00  0.00    +0.000 F 
ATOM     33  F   UNL     1      -3.607  11.434  16.520  0.00  0.00    +0.000 F 
ATOM     34  F   UNL     1      -2.076   9.877  16.419  0.00  0.00    +0.000 F 
ENDBRANCH  21  31
ENDBRANCH   2  19
TORSDOF 6
ENDMDL
MODEL 7
REMARK VINA RESULT:      -7.5      7.352     10.646
REMARK  Name = 
REMARK  9 active torsions:
REMARK  status: ('A' for Active; 'I' for Inactive)
REMARK    1  A    between atoms: C_1  and  C_2
REMARK    2  A    between atoms: C_6  and  C_7
REMARK    3  A    between atoms: N_9  and  C_10
REMARK    4  A    between atoms: C_10  and  C_11
REMARK    5  A    between atoms: C_10  and  C_12
REMARK    6  A    between atoms: C_13  and  N_14
REMARK    7  A    between atoms: C_15  and  C_17
REMARK    8  A    between atoms: C_19  and  C_20
REMARK    9  A    between atoms: N_25  and  C_26
REMARK                            x       y       z     vdW  Elec       q    Type
REMARK                         _______ _______ _______ _____ _____    ______ ____
ROOT
ATOM      1  N   UNL     1      -2.986  12.549  18.974  0.00  0.00    +0.000 N 
ATOM      2  C   UNL     1      -1.883  11.724  18.918  0.00  0.00    +0.000 C 
ATOM      3  O   UNL     1      -1.941  10.506  18.774  0.00  0.00    +0.000 OA
ATOM      4  H   UNL     1      -2.832  13.490  18.599  0.00  0.00    +0.000 HD
ENDROOT
BRANCH   1  11
ATOM      5  C   UNL     1      -4.447  11.224  16.628  0.00  0.00    +0.000 C 
ATOM      6  C   UNL     1      -5.058  11.611  17.949  0.00  0.00    +0.000 A 
ATOM      7  C   UNL     1      -6.397  11.208  18.153  0.00  0.00    +0.000 A 
ATOM      8  C   UNL     1      -7.029  11.357  19.383  0.00  0.00    +0.000 A 
ATOM      9  C   UNL     1      -6.330  11.901  20.452  0.00  0.00    +0.000 A 
ATOM     10  C   UNL     1      -5.003  12.317  20.286  0.00  0.00    +0.000 A 
ATOM     11  C   UNL     1      -4.353  12.185  19.029  0.00  0.00    +0.000 A 
BRANCH  10  12
ATOM     12  C   UNL     1      -4.285  12.903  21.463  0.00  0.00    +0.000 C 
ATOM     13  O   UNL     1      -3.340  12.311  21.971  0.00  0.00    +0.000 OA
ATOM     14  N   UNL     1      -4.747  14.136  21.880  0.00  0.00    +0.000 N 
ATOM     15  H   UNL     1      -5.318  14.667  21.235  0.00  0.00    +0.000 HD
BRANCH  14  16
ATOM     16  C   UNL     1      -4.177  14.860  23.006  0.00  0.00    +0.000 C 
ATOM     17  C   UNL     1      -3.224  15.949  22.520  0.00  0.00    +0.000 C 
ATOM     18  C   UNL     1      -5.303  15.463  23.843  0.00  0.00    +0.000 C 
ENDBRANCH  14  16
ENDBRANCH  10  12
ENDBRANCH   1  11
BRANCH   2  19
ATOM     19  C   UNL     1      -0.617  12.432  18.897  0.00  0.00    +0.000 A 
ATOM     20  C   UNL     1      -0.393  13.733  18.480  0.00  0.00    +0.000 A 
ATOM     21  C   UNL     1       0.923  14.055  18.893  0.00  0.00    +0.000 A 
ATOM     22  N   UNL     1       1.500  12.995  19.489  0.00  0.00    +0.000 NA
ATOM     23  N   UNL     1       0.615  11.978  19.339  0.00  0.00    +0.000 N 
BRANCH  23  24
ATOM     24  C   UNL     1       1.003  10.650  19.662  0.00  0.00    +0.000 A 
ATOM     25  C   UNL     1       0.826  10.183  20.970  0.00  0.00    +0.000 A 
ATOM     26  C   UNL     1       1.066   8.837  21.260  0.00  0.00    +0.000 A 
ATOM     27  C   UNL     1       1.512   7.975  20.258  0.00  0.00    +0.000 A 
ATOM     28 CL   UNL     1       1.772   6.312  20.610  0.00  0.00    +0.000 Cl
ATOM     29  C   UNL     1       1.747   8.451  18.970  0.00  0.00    +0.000 A 
ATOM     30  C   UNL     1       1.505   9.793  18.673  0.00  0.00    +0.000 A 
ENDBRANCH  23  24
BRANCH  21  31
ATOM     31  C   UNL     1       1.613  15.389  18.764  0.00  0.00    +0.000 C 
ATOM     32  F   UNL     1       2.245  15.746  19.916  0.00  0.00    +0.000 F 
ATOM     33  F   UNL     1       2.563  15.391  17.791  0.00  0.00    +0.000 F 
ATOM     34  F   UNL     1       0.746  16.395  18.476  0.00  0.00    +0.000 F 
ENDBRANCH  21  31
ENDBRANCH   2  19
TORSDOF 6
ENDMDL
MODEL 8
REMARK VINA RESULT:      -7.5      7.194     10.418
REMARK  Name = 
REMARK  9 active torsions:
REMARK  status: ('A' for Active; 'I' for Inactive)
REMARK    1  A    between atoms: C_1  and  C_2
REMARK    2  A    between atoms: C_6  and  C_7
REMARK    3  A    between atoms: N_9  and  C_10
REMARK    4  A    between atoms: C_10  and  C_11
REMARK    5  A    between atoms: C_10  and  C_12
REMARK    6  A    between atoms: C_13  and  N_14
REMARK    7  A    between atoms: C_15  and  C_17
REMARK    8  A    between atoms: C_19  and  C_20
REMARK    9  A    between atoms: N_25  and  C_26
REMARK                            x       y       z     vdW  Elec       q    Type
REMARK                         _______ _______ _______ _____ _____    ______ ____
ROOT
ATOM      1  N   UNL     1      -2.881  12.511  18.874  0.00  0.00    +0.000 N 
ATOM      2  C   UNL     1      -1.789  11.671  18.902  0.00  0.00    +0.000 C 
ATOM      3  O   UNL     1      -1.862  10.446  18.860  0.00  0.00    +0.000 OA
ATOM      4  H   UNL     1      -2.711  13.415  18.423  0.00  0.00    +0.000 HD
ENDROOT
BRANCH   1  11
ATOM      5  C   UNL     1      -4.355  11.085  16.596  0.00  0.00    +0.000 C 
ATOM      6  C   UNL     1      -4.964  11.550  17.892  0.00  0.00    +0.000 A 
ATOM      7  C   UNL     1      -6.309  11.177  18.113  0.00  0.00    +0.000 A 
ATOM      8  C   UNL     1      -6.942  11.399  19.332  0.00  0.00    +0.000 A 
ATOM      9  C   UNL     1      -6.239  11.988  20.373  0.00  0.00    +0.000 A 
ATOM     10  C   UNL     1      -4.905  12.377  20.189  0.00  0.00    +0.000 A 
ATOM     11  C   UNL     1      -4.254  12.170  18.944  0.00  0.00    +0.000 A 
BRANCH  10  12
ATOM     12  C   UNL     1      -4.182  13.013  21.336  0.00  0.00    +0.000 C 
ATOM     13  O   UNL     1      -3.773  14.165  21.251  0.00  0.00    +0.000 OA
ATOM     14  N   UNL     1      -4.057  12.223  22.463  0.00  0.00    +0.000 N 
ATOM     15  H   UNL     1      -4.667  11.420  22.545  0.00  0.00    +0.000 HD
BRANCH  14  16
ATOM     16  C   UNL     1      -3.385  12.667  23.676  0.00  0.00    +0.000 C 
ATOM     17  C   UNL     1      -1.922  12.996  23.392  0.00  0.00    +0.000 C 
ATOM     18  C   UNL     1      -4.113  13.886  24.240  0.00  0.00    +0.000 C 
ENDBRANCH  14  16
ENDBRANCH  10  12
ENDBRANCH   1  11
BRANCH   2  19
ATOM     19  C   UNL     1      -0.514  12.359  18.836  0.00  0.00    +0.000 A 
ATOM     20  C   UNL     1      -0.284  13.656  18.409  0.00  0.00    +0.000 A 
ATOM     21  C   UNL     1       1.051  13.958  18.776  0.00  0.00    +0.000 A 
ATOM     22  N   UNL     1       1.631  12.890  19.355  0.00  0.00    +0.000 NA
ATOM     23  N   UNL     1       0.725  11.886  19.237  0.00  0.00    +0.000 N 
BRANCH  23  24
ATOM     24  C   UNL     1       1.104  10.553  19.549  0.00  0.00    +0.000 A 
ATOM     25  C   UNL     1       0.933  10.081  20.856  0.00  0.00    +0.000 A 
ATOM     26  C   UNL     1       1.162   8.731  21.137  0.00  0.00    +0.000 A 
ATOM     27  C   UNL     1       1.592   7.870  20.127  0.00  0.00    +0.000 A 
ATOM     28 CL   UNL     1       1.839   6.203  20.467  0.00  0.00    +0.000 Cl
ATOM     29  C   UNL     1       1.821   8.351  18.839  0.00  0.00    +0.000 A 
ATOM     30  C   UNL     1       1.589   9.697  18.551  0.00  0.00    +0.000 A 
ENDBRANCH  23  24
BRANCH  21  31
ATOM     31  C   UNL     1       1.756  15.281  18.621  0.00  0.00    +0.000 C 
ATOM     32  F   UNL     1       0.902  16.267  18.233  0.00  0.00    +0.000 F 
ATOM     33  F   UNL     1       2.327  15.704  19.780  0.00  0.00    +0.000 F 
ATOM     34  F   UNL     1       2.740  15.236  17.685  0.00  0.00    +0.000 F 
ENDBRANCH  21  31
ENDBRANCH   2  19
TORSDOF 6
ENDMDL
MODEL 9
REMARK VINA RESULT:      -7.5      9.490     11.750
REMARK  Name = 
REMARK  9 active torsions:
REMARK  status: ('A' for Active; 'I' for Inactive)
REMARK    1  A    between atoms: C_1  and  C_2
REMARK    2  A    between atoms: C_6  and  C_7
REMARK    3  A    between atoms: N_9  and  C_10
REMARK    4  A    between atoms: C_10  and  C_11
REMARK    5  A    between atoms: C_10  and  C_12
REMARK    6  A    between atoms: C_13  and  N_14
REMARK    7  A    between atoms: C_15  and  C_17
REMARK    8  A    between atoms: C_19  and  C_20
REMARK    9  A    between atoms: N_25  and  C_26
REMARK                            x       y       z     vdW  Elec       q    Type
REMARK                         _______ _______ _______ _____ _____    ______ ____
ROOT
ATOM      1  N   UNL     1      -1.881  13.596  22.112  0.00  0.00    +0.000 N 
ATOM      2  C   UNL     1      -2.626  13.886  20.989  0.00  0.00    +0.000 C 
ATOM      3  O   UNL     1      -3.264  14.923  20.835  0.00  0.00    +0.000 OA
ATOM      4  H   UNL     1      -1.054  13.018  21.935  0.00  0.00    +0.000 HD
ENDROOT
BRANCH   1  11
ATOM      5  C   UNL     1       0.250  15.731  22.661  0.00  0.00    +0.000 C 
ATOM      6  C   UNL     1      -0.816  15.274  23.621  0.00  0.00    +0.000 A 
ATOM      7  C   UNL     1      -0.904  15.992  24.835  0.00  0.00    +0.000 A 
ATOM      8  C   UNL     1      -1.941  15.783  25.739  0.00  0.00    +0.000 A 
ATOM      9  C   UNL     1      -2.932  14.857  25.443  0.00  0.00    +0.000 A 
ATOM     10  C   UNL     1      -2.875  14.122  24.251  0.00  0.00    +0.000 A 
ATOM     11  C   UNL     1      -1.812  14.316  23.330  0.00  0.00    +0.000 A 
BRANCH  10  12
ATOM     12  C   UNL     1      -3.962  13.130  23.971  0.00  0.00    +0.000 C 
ATOM     13  O   UNL     1      -3.733  11.928  24.017  0.00  0.00    +0.000 OA
ATOM     14  N   UNL     1      -5.202  13.677  23.701  0.00  0.00    +0.000 N 
ATOM     15  H   UNL     1      -5.360  14.640  23.971  0.00  0.00    +0.000 HD
BRANCH  14  16
ATOM     16  C   UNL     1      -6.379  12.874  23.405  0.00  0.00    +0.000 C 
ATOM     17  C   UNL     1      -7.590  13.385  24.180  0.00  0.00    +0.000 C 
ATOM     18  C   UNL     1      -6.647  12.905  21.901  0.00  0.00    +0.000 C 
ENDBRANCH  14  16
ENDBRANCH  10  12
ENDBRANCH   1  11
BRANCH   2  19
ATOM     19  C   UNL     1      -2.481  12.918  19.919  0.00  0.00    +0.000 A 
ATOM     20  C   UNL     1      -3.433  12.018  19.470  0.00  0.00    +0.000 A 
ATOM     21  C   UNL     1      -2.927  11.486  18.258  0.00  0.00    +0.000 A 
ATOM     22  N   UNL     1      -1.707  11.991  17.997  0.00  0.00    +0.000 NA
ATOM     23  N   UNL     1      -1.387  12.728  19.090  0.00  0.00    +0.000 N 
BRANCH  23  24
ATOM     24  C   UNL     1      -0.066  13.227  19.243  0.00  0.00    +0.000 A 
ATOM     25  C   UNL     1       0.253  14.491  18.734  0.00  0.00    +0.000 A 
ATOM     26  C   UNL     1       1.504  15.051  19.008  0.00  0.00    +0.000 A 
ATOM     27  C   UNL     1       2.439  14.336  19.757  0.00  0.00    +0.000 A 
ATOM     28 CL   UNL     1       3.964  15.042  20.124  0.00  0.00    +0.000 Cl
ATOM     29  C   UNL     1       2.146  13.053  20.214  0.00  0.00    +0.000 A 
ATOM     30  C   UNL     1       0.897  12.491  19.947  0.00  0.00    +0.000 A 
ENDBRANCH  23  24
BRANCH  21  31
ATOM     31  C   UNL     1      -3.629  10.533  17.324  0.00  0.00    +0.000 C 
ATOM     32  F   UNL     1      -3.651   9.264  17.817  0.00  0.00    +0.000 F 
ATOM     33  F   UNL     1      -4.925  10.881  17.106  0.00  0.00    +0.000 F 
ATOM     34  F   UNL     1      -3.026  10.461  16.109  0.00  0.00    +0.000 F 
ENDBRANCH  21  31
ENDBRANCH   2  19
TORSDOF 6
ENDMDL
