MODEL 1
REMARK VINA RESULT:      -8.0      0.000      0.000
REMARK  Name = 
REMARK  3 active torsions:
REMARK  status: ('A' for Active; 'I' for Inactive)
REMARK    1  A    between atoms: C_6  and  C_7
REMARK    2  A    between atoms: C_7  and  N_8
REMARK    3  A    between atoms: C_13  and  N_14
REMARK                            x       y       z     vdW  Elec       q    Type
REMARK                         _______ _______ _______ _____ _____    ______ ____
ROOT
ATOM      1  N   UNL     1       5.585   3.733  19.357  0.00  0.00    +0.000 N 
ATOM      2  C   UNL     1       6.183   4.572  18.413  0.00  0.00    +0.000 A 
ATOM      3  C   UNL     1       6.834   5.727  18.860  0.00  0.00    +0.000 A 
ATOM      4  N   UNL     1       7.455   6.613  18.045  0.00  0.00    +0.000 NA
ATOM      5  C   UNL     1       7.426   6.290  16.732  0.00  0.00    +0.000 A 
ATOM      6  C   UNL     1       6.803   5.139  16.263  0.00  0.00    +0.000 A 
ATOM      7  N   UNL     1       6.159   4.268  17.098  0.00  0.00    +0.000 NA
ATOM      8  H   UNL     1       6.305   3.256  19.894  0.00  0.00    +0.000 HD
ENDROOT
BRANCH   6   9
ATOM      9  N   UNL     1       6.862   4.854  14.873  0.00  0.00    +0.000 N 
ATOM     10  C   UNL     1       6.103   3.920  14.196  0.00  0.00    +0.000 A 
ATOM     11  C   UNL     1       6.496   3.958  12.882  0.00  0.00    +0.000 A 
ATOM     12  C   UNL     1       7.499   4.940  12.840  0.00  0.00    +0.000 A 
ATOM     13  N   UNL     1       7.726   5.491  14.033  0.00  0.00    +0.000 NA
ENDBRANCH   6   9
BRANCH   1  14
ATOM     14  C   UNL     1       4.575   2.815  18.858  0.00  0.00    +0.000 C 
BRANCH  14  20
ATOM     15  F   UNL     1       1.679   6.110  21.039  0.00  0.00    +0.000 F 
ATOM     16  C   UNL     1       1.817   4.915  20.452  0.00  0.00    +0.000 A 
ATOM     17  C   UNL     1       0.711   4.084  20.328  0.00  0.00    +0.000 A 
ATOM     18  C   UNL     1       0.849   2.840  19.722  0.00  0.00    +0.000 A 
ATOM     19  C   UNL     1       2.100   2.440  19.245  0.00  0.00    +0.000 A 
ATOM     20  C   UNL     1       3.224   3.278  19.362  0.00  0.00    +0.000 A 
ATOM     21  C   UNL     1       3.067   4.526  19.976  0.00  0.00    +0.000 A 
ENDBRANCH  14  20
ENDBRANCH   1  14
TORSDOF 3
ENDMDL
MODEL 2
REMARK VINA RESULT:      -7.9      1.081      1.213
REMARK  Name = 
REMARK  3 active torsions:
REMARK  status: ('A' for Active; 'I' for Inactive)
REMARK    1  A    between atoms: C_6  and  C_7
REMARK    2  A    between atoms: C_7  and  N_8
REMARK    3  A    between atoms: C_13  and  N_14
REMARK                            x       y       z     vdW  Elec       q    Type
REMARK                         _______ _______ _______ _____ _____    ______ ____
ROOT
ATOM      1  N   UNL     1       5.579   3.629  19.378  0.00  0.00    +0.000 N 
ATOM      2  C   UNL     1       6.151   4.482  18.430  0.00  0.00    +0.000 A 
ATOM      3  C   UNL     1       6.784   5.648  18.874  0.00  0.00    +0.000 A 
ATOM      4  N   UNL     1       7.379   6.548  18.056  0.00  0.00    +0.000 NA
ATOM      5  C   UNL     1       7.343   6.228  16.742  0.00  0.00    +0.000 A 
ATOM      6  C   UNL     1       6.738   5.067  16.276  0.00  0.00    +0.000 A 
ATOM      7  N   UNL     1       6.120   4.182  17.115  0.00  0.00    +0.000 NA
ATOM      8  H   UNL     1       6.313   3.164  19.906  0.00  0.00    +0.000 HD
ENDROOT
BRANCH   6   9
ATOM      9  N   UNL     1       6.789   4.788  14.885  0.00  0.00    +0.000 N 
ATOM     10  C   UNL     1       5.964   3.924  14.193  0.00  0.00    +0.000 A 
ATOM     11  C   UNL     1       6.372   3.938  12.883  0.00  0.00    +0.000 A 
ATOM     12  C   UNL     1       7.452   4.834  12.859  0.00  0.00    +0.000 A 
ATOM     13  N   UNL     1       7.711   5.357  14.059  0.00  0.00    +0.000 NA
ENDBRANCH   6   9
BRANCH   1  14
ATOM     14  C   UNL     1       4.582   2.692  18.885  0.00  0.00    +0.000 C 
BRANCH  14  20
ATOM     15  F   UNL     1       1.086   2.477  22.310  0.00  0.00    +0.000 F 
ATOM     16  C   UNL     1       1.518   2.967  21.142  0.00  0.00    +0.000 A 
ATOM     17  C   UNL     1       0.707   3.838  20.426  0.00  0.00    +0.000 A 
ATOM     18  C   UNL     1       1.150   4.348  19.210  0.00  0.00    +0.000 A 
ATOM     19  C   UNL     1       2.405   3.977  18.722  0.00  0.00    +0.000 A 
ATOM     20  C   UNL     1       3.235   3.099  19.444  0.00  0.00    +0.000 A 
ATOM     21  C   UNL     1       2.772   2.594  20.665  0.00  0.00    +0.000 A 
ENDBRANCH  14  20
ENDBRANCH   1  14
TORSDOF 3
ENDMDL
MODEL 3
REMARK VINA RESULT:      -7.8      1.540      1.747
REMARK  Name = 
REMARK  3 active torsions:
REMARK  status: ('A' for Active; 'I' for Inactive)
REMARK    1  A    between atoms: C_6  and  C_7
REMARK    2  A    between atoms: C_7  and  N_8
REMARK    3  A    between atoms: C_13  and  N_14
REMARK                            x       y       z     vdW  Elec       q    Type
REMARK                         _______ _______ _______ _____ _____    ______ ____
ROOT
ATOM      1  N   UNL     1       4.480   5.543  19.846  0.00  0.00    +0.000 N 
ATOM      2  C   UNL     1       5.598   5.400  19.021  0.00  0.00    +0.000 A 
ATOM      3  C   UNL     1       6.870   5.483  19.598  0.00  0.00    +0.000 A 
ATOM      4  N   UNL     1       8.028   5.355  18.907  0.00  0.00    +0.000 NA
ATOM      5  C   UNL     1       7.873   5.112  17.585  0.00  0.00    +0.000 A 
ATOM      6  C   UNL     1       6.621   5.006  16.991  0.00  0.00    +0.000 A 
ATOM      7  N   UNL     1       5.463   5.163  17.700  0.00  0.00    +0.000 NA
ATOM      8  H   UNL     1       4.387   4.723  20.441  0.00  0.00    +0.000 HD
ENDROOT
BRANCH   6   9
ATOM      9  N   UNL     1       6.552   4.702  15.605  0.00  0.00    +0.000 N 
ATOM     10  C   UNL     1       5.606   3.909  14.987  0.00  0.00    +0.000 A 
ATOM     11  C   UNL     1       5.925   3.865  13.654  0.00  0.00    +0.000 A 
ATOM     12  C   UNL     1       7.080   4.655  13.540  0.00  0.00    +0.000 A 
ATOM     13  N   UNL     1       7.465   5.170  14.708  0.00  0.00    +0.000 NA
ENDBRANCH   6   9
BRANCH   1  14
ATOM     14  C   UNL     1       3.230   5.885  19.187  0.00  0.00    +0.000 C 
BRANCH  14  20
ATOM     15  F   UNL     1       0.849   2.556  21.878  0.00  0.00    +0.000 F 
ATOM     16  C   UNL     1       1.129   3.070  20.675  0.00  0.00    +0.000 A 
ATOM     17  C   UNL     1       0.563   2.499  19.541  0.00  0.00    +0.000 A 
ATOM     18  C   UNL     1       0.853   3.027  18.287  0.00  0.00    +0.000 A 
ATOM     19  C   UNL     1       1.712   4.124  18.182  0.00  0.00    +0.000 A 
ATOM     20  C   UNL     1       2.284   4.711  19.326  0.00  0.00    +0.000 A 
ATOM     21  C   UNL     1       1.982   4.166  20.580  0.00  0.00    +0.000 A 
ENDBRANCH  14  20
ENDBRANCH   1  14
TORSDOF 3
ENDMDL
MODEL 4
REMARK VINA RESULT:      -7.6      2.794      3.366
REMARK  Name = 
REMARK  3 active torsions:
REMARK  status: ('A' for Active; 'I' for Inactive)
REMARK    1  A    between atoms: C_6  and  C_7
REMARK    2  A    between atoms: C_7  and  N_8
REMARK    3  A    between atoms: C_13  and  N_14
REMARK                            x       y       z     vdW  Elec       q    Type
REMARK                         _______ _______ _______ _____ _____    ______ ____
ROOT
ATOM      1  N   UNL     1       3.868   5.903  18.933  0.00  0.00    +0.000 N 
ATOM      2  C   UNL     1       5.088   5.510  18.378  0.00  0.00    +0.000 A 
ATOM      3  C   UNL     1       6.159   5.240  19.237  0.00  0.00    +0.000 A 
ATOM      4  N   UNL     1       7.386   4.846  18.821  0.00  0.00    +0.000 NA
ATOM      5  C   UNL     1       7.510   4.703  17.481  0.00  0.00    +0.000 A 
ATOM      6  C   UNL     1       6.457   4.947  16.607  0.00  0.00    +0.000 A 
ATOM      7  N   UNL     1       5.232   5.369  17.043  0.00  0.00    +0.000 NA
ATOM      8  H   UNL     1       3.437   5.112  19.404  0.00  0.00    +0.000 HD
ENDROOT
BRANCH   6   9
ATOM      9  N   UNL     1       6.663   4.726  15.219  0.00  0.00    +0.000 N 
ATOM     10  C   UNL     1       5.984   3.825  14.424  0.00  0.00    +0.000 A 
ATOM     11  C   UNL     1       6.512   3.923  13.162  0.00  0.00    +0.000 A 
ATOM     12  C   UNL     1       7.509   4.905  13.271  0.00  0.00    +0.000 A 
ATOM     13  N   UNL     1       7.607   5.401  14.505  0.00  0.00    +0.000 NA
ENDBRANCH   6   9
BRANCH   1  14
ATOM     14  C   UNL     1       2.941   6.582  18.042  0.00  0.00    +0.000 C 
BRANCH  14  20
ATOM     15  F   UNL     1       0.672  10.904  18.451  0.00  0.00    +0.000 F 
ATOM     16  C   UNL     1       1.086   9.767  19.024  0.00  0.00    +0.000 A 
ATOM     17  C   UNL     1       0.844   9.558  20.376  0.00  0.00    +0.000 A 
ATOM     18  C   UNL     1       1.274   8.380  20.977  0.00  0.00    +0.000 A 
ATOM     19  C   UNL     1       1.947   7.421  20.215  0.00  0.00    +0.000 A 
ATOM     20  C   UNL     1       2.191   7.624  18.844  0.00  0.00    +0.000 A 
ATOM     21  C   UNL     1       1.752   8.816  18.256  0.00  0.00    +0.000 A 
ENDBRANCH  14  20
ENDBRANCH   1  14
TORSDOF 3
ENDMDL
MODEL 5
REMARK VINA RESULT:      -7.5      2.333      2.937
REMARK  Name = 
REMARK  3 active torsions:
REMARK  status: ('A' for Active; 'I' for Inactive)
REMARK    1  A    between atoms: C_6  and  C_7
REMARK    2  A    between atoms: C_7  and  N_8
REMARK    3  A    between atoms: C_13  and  N_14
REMARK                            x       y       z     vdW  Elec       q    Type
REMARK                         _______ _______ _______ _____ _____    ______ ____
ROOT
ATOM      1  N   UNL     1       3.864   5.172  19.137  0.00  0.00    +0.000 N 
ATOM      2  C   UNL     1       5.112   5.077  18.516  0.00  0.00    +0.000 A 
ATOM      3  C   UNL     1       6.259   5.073  19.316  0.00  0.00    +0.000 A 
ATOM      4  N   UNL     1       7.521   4.979  18.834  0.00  0.00    +0.000 NA
ATOM      5  C   UNL     1       7.606   4.863  17.489  0.00  0.00    +0.000 A 
ATOM      6  C   UNL     1       6.481   4.846  16.673  0.00  0.00    +0.000 A 
ATOM      7  N   UNL     1       5.215   4.967  17.175  0.00  0.00    +0.000 NA
ATOM      8  H   UNL     1       3.658   4.304  19.624  0.00  0.00    +0.000 HD
ENDROOT
BRANCH   6   9
ATOM      9  N   UNL     1       6.660   4.673  15.274  0.00  0.00    +0.000 N 
ATOM     10  C   UNL     1       5.948   3.819  14.457  0.00  0.00    +0.000 A 
ATOM     11  C   UNL     1       6.459   3.952  13.191  0.00  0.00    +0.000 A 
ATOM     12  C   UNL     1       7.482   4.904  13.320  0.00  0.00    +0.000 A 
ATOM     13  N   UNL     1       7.611   5.351  14.571  0.00  0.00    +0.000 NA
ENDBRANCH   6   9
BRANCH   1  14
ATOM     14  C   UNL     1       2.757   5.607  18.300  0.00  0.00    +0.000 C 
BRANCH  14  20
ATOM     15  F   UNL     1       1.145   8.444  21.953  0.00  0.00    +0.000 F 
ATOM     16  C   UNL     1       1.442   8.304  20.656  0.00  0.00    +0.000 A 
ATOM     17  C   UNL     1       1.253   9.376  19.793  0.00  0.00    +0.000 A 
ATOM     18  C   UNL     1       1.557   9.235  18.443  0.00  0.00    +0.000 A 
ATOM     19  C   UNL     1       2.047   8.016  17.970  0.00  0.00    +0.000 A 
ATOM     20  C   UNL     1       2.246   6.926  18.838  0.00  0.00    +0.000 A 
ATOM     21  C   UNL     1       1.933   7.086  20.194  0.00  0.00    +0.000 A 
ENDBRANCH  14  20
ENDBRANCH   1  14
TORSDOF 3
ENDMDL
MODEL 6
REMARK VINA RESULT:      -7.4      3.307      7.141
REMARK  Name = 
REMARK  3 active torsions:
REMARK  status: ('A' for Active; 'I' for Inactive)
REMARK    1  A    between atoms: C_6  and  C_7
REMARK    2  A    between atoms: C_7  and  N_8
REMARK    3  A    between atoms: C_13  and  N_14
REMARK                            x       y       z     vdW  Elec       q    Type
REMARK                         _______ _______ _______ _____ _____    ______ ____
ROOT
ATOM      1  N   UNL     1       5.410   6.130  16.027  0.00  0.00    +0.000 N 
ATOM      2  C   UNL     1       4.364   6.249  16.945  0.00  0.00    +0.000 A 
ATOM      3  C   UNL     1       3.993   7.528  17.375  0.00  0.00    +0.000 A 
ATOM      4  N   UNL     1       2.993   7.773  18.255  0.00  0.00    +0.000 NA
ATOM      5  C   UNL     1       2.340   6.672  18.690  0.00  0.00    +0.000 A 
ATOM      6  C   UNL     1       2.676   5.392  18.264  0.00  0.00    +0.000 A 
ATOM      7  N   UNL     1       3.704   5.160  17.394  0.00  0.00    +0.000 NA
ATOM      8  H   UNL     1       5.107   6.470  15.118  0.00  0.00    +0.000 HD
ENDROOT
BRANCH   6   9
ATOM      9  N   UNL     1       1.904   4.296  18.736  0.00  0.00    +0.000 N 
ATOM     10  C   UNL     1       1.441   4.115  20.024  0.00  0.00    +0.000 A 
ATOM     11  C   UNL     1       0.765   2.922  20.045  0.00  0.00    +0.000 A 
ATOM     12  C   UNL     1       0.863   2.436  18.732  0.00  0.00    +0.000 A 
ATOM     13  N   UNL     1       1.544   3.257  17.931  0.00  0.00    +0.000 NA
ENDBRANCH   6   9
BRANCH   1  14
ATOM     14  C   UNL     1       6.047   4.825  15.938  0.00  0.00    +0.000 C 
BRANCH  14  20
ATOM     15  F   UNL     1       5.337   2.463  11.706  0.00  0.00    +0.000 F 
ATOM     16  C   UNL     1       6.020   3.372  12.411  0.00  0.00    +0.000 A 
ATOM     17  C   UNL     1       7.065   4.059  11.806  0.00  0.00    +0.000 A 
ATOM     18  C   UNL     1       7.781   5.003  12.535  0.00  0.00    +0.000 A 
ATOM     19  C   UNL     1       7.443   5.248  13.868  0.00  0.00    +0.000 A 
ATOM     20  C   UNL     1       6.382   4.560  14.486  0.00  0.00    +0.000 A 
ATOM     21  C   UNL     1       5.673   3.613  13.738  0.00  0.00    +0.000 A 
ENDBRANCH  14  20
ENDBRANCH   1  14
TORSDOF 3
ENDMDL
MODEL 7
REMARK VINA RESULT:      -7.4      4.847      7.382
REMARK  Name = 
REMARK  3 active torsions:
REMARK  status: ('A' for Active; 'I' for Inactive)
REMARK    1  A    between atoms: C_6  and  C_7
REMARK    2  A    between atoms: C_7  and  N_8
REMARK    3  A    between atoms: C_13  and  N_14
REMARK                            x       y       z     vdW  Elec       q    Type
REMARK                         _______ _______ _______ _____ _____    ______ ____
ROOT
ATOM      1  N   UNL     1       2.915   6.701  18.383  0.00  0.00    +0.000 N 
ATOM      2  C   UNL     1       2.299   7.931  18.633  0.00  0.00    +0.000 A 
ATOM      3  C   UNL     1       2.253   8.878  17.604  0.00  0.00    +0.000 A 
ATOM      4  N   UNL     1       1.679  10.099  17.722  0.00  0.00    +0.000 NA
ATOM      5  C   UNL     1       1.117  10.346  18.927  0.00  0.00    +0.000 A 
ATOM      6  C   UNL     1       1.133   9.416  19.959  0.00  0.00    +0.000 A 
ATOM      7  N   UNL     1       1.738   8.197  19.831  0.00  0.00    +0.000 NA
ATOM      8  H   UNL     1       2.337   6.153  17.752  0.00  0.00    +0.000 HD
ENDROOT
BRANCH   6   9
ATOM      9  N   UNL     1       0.476   9.742  21.176  0.00  0.00    +0.000 N 
ATOM     10  C   UNL     1       0.603   9.076  22.378  0.00  0.00    +0.000 A 
ATOM     11  C   UNL     1      -0.218   9.707  23.277  0.00  0.00    +0.000 A 
ATOM     12  C   UNL     1      -0.813  10.747  22.544  0.00  0.00    +0.000 A 
ATOM     13  N   UNL     1      -0.400  10.781  21.277  0.00  0.00    +0.000 NA
ENDBRANCH   6   9
BRANCH   1  14
ATOM     14  C   UNL     1       3.330   5.938  19.549  0.00  0.00    +0.000 C 
BRANCH  14  20
ATOM     15  F   UNL     1       1.012   2.501  22.158  0.00  0.00    +0.000 F 
ATOM     16  C   UNL     1       1.316   3.023  20.964  0.00  0.00    +0.000 A 
ATOM     17  C   UNL     1       0.830   2.420  19.811  0.00  0.00    +0.000 A 
ATOM     18  C   UNL     1       1.145   2.956  18.567  0.00  0.00    +0.000 A 
ATOM     19  C   UNL     1       1.949   4.096  18.491  0.00  0.00    +0.000 A 
ATOM     20  C   UNL     1       2.441   4.716  19.655  0.00  0.00    +0.000 A 
ATOM     21  C   UNL     1       2.115   4.161  20.898  0.00  0.00    +0.000 A 
ENDBRANCH  14  20
ENDBRANCH   1  14
TORSDOF 3
ENDMDL
MODEL 8
REMARK VINA RESULT:      -7.3      3.513      7.220
REMARK  Name = 
REMARK  3 active torsions:
REMARK  status: ('A' for Active; 'I' for Inactive)
REMARK    1  A    between atoms: C_6  and  C_7
REMARK    2  A    between atoms: C_7  and  N_8
REMARK    3  A    between atoms: C_13  and  N_14
REMARK                            x       y       z     vdW  Elec       q    Type
REMARK                         _______ _______ _______ _____ _____    ______ ____
ROOT
ATOM      1  N   UNL     1       5.427   3.663  16.543  0.00  0.00    +0.000 N 
ATOM      2  C   UNL     1       4.174   3.976  17.075  0.00  0.00    +0.000 A 
ATOM      3  C   UNL     1       3.211   2.965  17.162  0.00  0.00    +0.000 A 
ATOM      4  N   UNL     1       1.966   3.142  17.664  0.00  0.00    +0.000 NA
ATOM      5  C   UNL     1       1.710   4.392  18.111  0.00  0.00    +0.000 A 
ATOM      6  C   UNL     1       2.654   5.411  18.054  0.00  0.00    +0.000 A 
ATOM      7  N   UNL     1       3.899   5.220  17.521  0.00  0.00    +0.000 NA
ATOM      8  H   UNL     1       5.939   3.077  17.197  0.00  0.00    +0.000 HD
ENDROOT
BRANCH   6   9
ATOM      9  N   UNL     1       2.315   6.682  18.590  0.00  0.00    +0.000 N 
ATOM     10  C   UNL     1       2.224   7.868  17.890  0.00  0.00    +0.000 A 
ATOM     11  C   UNL     1       1.894   8.845  18.794  0.00  0.00    +0.000 A 
ATOM     12  C   UNL     1       1.803   8.174  20.024  0.00  0.00    +0.000 A 
ATOM     13  N   UNL     1       2.050   6.868  19.914  0.00  0.00    +0.000 NA
ENDBRANCH   6   9
BRANCH   1  14
ATOM     14  C   UNL     1       6.226   4.781  16.069  0.00  0.00    +0.000 C 
BRANCH  14  20
ATOM     15  F   UNL     1       5.364   2.567  11.785  0.00  0.00    +0.000 F 
ATOM     16  C   UNL     1       6.066   3.459  12.494  0.00  0.00    +0.000 A 
ATOM     17  C   UNL     1       7.076   4.182  11.872  0.00  0.00    +0.000 A 
ATOM     18  C   UNL     1       7.812   5.108  12.604  0.00  0.00    +0.000 A 
ATOM     19  C   UNL     1       7.527   5.299  13.958  0.00  0.00    +0.000 A 
ATOM     20  C   UNL     1       6.502   4.574  14.594  0.00  0.00    +0.000 A 
ATOM     21  C   UNL     1       5.774   3.645  13.842  0.00  0.00    +0.000 A 
ENDBRANCH  14  20
ENDBRANCH   1  14
TORSDOF 3
ENDMDL
MODEL 9
REMARK VINA RESULT:      -7.3      1.023      1.090
REMARK  Name = 
REMARK  3 active torsions:
REMARK  status: ('A' for Active; 'I' for Inactive)
REMARK    1  A    between atoms: C_6  and  C_7
REMARK    2  A    between atoms: C_7  and  N_8
REMARK    3  A    between atoms: C_13  and  N_14
REMARK                            x       y       z     vdW  Elec       q    Type
REMARK                         _______ _______ _______ _____ _____    ______ ____
ROOT
ATOM      1  N   UNL     1       5.593   3.839  19.281  0.00  0.00    +0.000 N 
ATOM      2  C   UNL     1       6.203   4.656  18.325  0.00  0.00    +0.000 A 
ATOM      3  C   UNL     1       6.867   5.809  18.756  0.00  0.00    +0.000 A 
ATOM      4  N   UNL     1       7.500   6.675  17.928  0.00  0.00    +0.000 NA
ATOM      5  C   UNL     1       7.468   6.333  16.620  0.00  0.00    +0.000 A 
ATOM      6  C   UNL     1       6.831   5.184  16.168  0.00  0.00    +0.000 A 
ATOM      7  N   UNL     1       6.176   4.333  17.014  0.00  0.00    +0.000 NA
ATOM      8  H   UNL     1       6.307   3.361  19.825  0.00  0.00    +0.000 HD
ENDROOT
BRANCH   6   9
ATOM      9  N   UNL     1       6.888   4.878  14.782  0.00  0.00    +0.000 N 
ATOM     10  C   UNL     1       6.131   3.931  14.121  0.00  0.00    +0.000 A 
ATOM     11  C   UNL     1       6.520   3.950  12.806  0.00  0.00    +0.000 A 
ATOM     12  C   UNL     1       7.519   4.935  12.746  0.00  0.00    +0.000 A 
ATOM     13  N   UNL     1       7.747   5.505  13.930  0.00  0.00    +0.000 NA
ENDBRANCH   6   9
BRANCH   1  14
ATOM     14  C   UNL     1       4.572   2.926  18.794  0.00  0.00    +0.000 C 
BRANCH  14  20
ATOM     15  F   UNL     1       0.167   4.574  20.164  0.00  0.00    +0.000 F 
ATOM     16  C   UNL     1       1.233   3.804  20.416  0.00  0.00    +0.000 A 
ATOM     17  C   UNL     1       1.273   3.058  21.586  0.00  0.00    +0.000 A 
ATOM     18  C   UNL     1       2.379   2.259  21.855  0.00  0.00    +0.000 A 
ATOM     19  C   UNL     1       3.439   2.218  20.946  0.00  0.00    +0.000 A 
ATOM     20  C   UNL     1       3.403   2.968  19.755  0.00  0.00    +0.000 A 
ATOM     21  C   UNL     1       2.282   3.767  19.501  0.00  0.00    +0.000 A 
ENDBRANCH  14  20
ENDBRANCH   1  14
TORSDOF 3
ENDMDL
