MODEL 1
REMARK VINA RESULT:      -8.2      0.000      0.000
REMARK  Name = 
REMARK  13 active torsions:
REMARK  status: ('A' for Active; 'I' for Inactive)
REMARK    1  A    between atoms: C_1  and  C_2
REMARK    2  A    between atoms: C_2  and  C_3
REMARK    3  A    between atoms: C_2  and  C_4
REMARK    4  A    between atoms: C_2  and  C_5
REMARK    5  A    between atoms: C_7  and  C_8
REMARK    6  A    between atoms: C_8  and  N_9
REMARK    7  A    between atoms: C_11  and  C_12
REMARK    8  A    between atoms: C_12  and  C_13
REMARK    9  A    between atoms: C_13  and  N_14
REMARK   10  A    between atoms: C_21  and  C_22
REMARK   11  A    between atoms: C_22  and  C_23
REMARK   12  A    between atoms: C_22  and  C_24
REMARK   13  A    between atoms: C_22  and  C_25
REMARK                            x       y       z     vdW  Elec       q    Type
REMARK                         _______ _______ _______ _____ _____    ______ ____
ROOT
ATOM      1  C   UNL     1       2.406   8.213  17.682  0.00  0.00    +0.000 C 
ENDROOT
BRANCH   1   4
ATOM      2  C   UNL     1       3.355   4.596  18.519  0.00  0.00    +0.000 A 
ATOM      3  C   UNL     1       2.624   5.799  18.390  0.00  0.00    +0.000 A 
ATOM      4  C   UNL     1       3.226   6.959  17.884  0.00  0.00    +0.000 A 
ATOM      5  C   UNL     1       4.579   6.927  17.507  0.00  0.00    +0.000 A 
ATOM      6  C   UNL     1       5.336   5.744  17.610  0.00  0.00    +0.000 A 
ATOM      7  C   UNL     1       4.697   4.599  18.114  0.00  0.00    +0.000 A 
BRANCH   2   9
ATOM      8  C   UNL     1       2.433   2.516  17.601  0.00  0.00    +0.000 C 
ATOM      9  C   UNL     1       2.691   3.262  18.921  0.00  0.00    +0.000 C 
ATOM     10  C   UNL     1       1.366   3.466  19.693  0.00  0.00    +0.000 C 
ATOM     11  C   UNL     1       3.586   2.367  19.823  0.00  0.00    +0.000 C 
ENDBRANCH   2   9
BRANCH   6  12
ATOM     12  C   UNL     1       6.807   5.696  17.134  0.00  0.00    +0.000 C 
ATOM     13  C   UNL     1       7.483   7.055  17.396  0.00  0.00    +0.000 C 
ATOM     14  C   UNL     1       7.649   4.608  17.854  0.00  0.00    +0.000 C 
ATOM     15  C   UNL     1       6.836   5.373  15.626  0.00  0.00    +0.000 C 
ENDBRANCH   6  12
ENDBRANCH   1   4
BRANCH   1  16
ATOM     16  N   UNL     1       1.765   8.629  18.924  0.00  0.00    +0.000 N 
ATOM     17  C   UNL     1       0.968   9.693  19.089  0.00  0.00    +0.000 A 
ATOM     18  C   UNL     1       0.607   9.702  20.422  0.00  0.00    +0.000 A 
ATOM     19  N   UNL     1       1.179   8.635  21.016  0.00  0.00    +0.000 NA
ATOM     20  N   UNL     1       1.881   8.002  20.085  0.00  0.00    +0.000 NA
BRANCH  18  21
ATOM     21  C   UNL     1      -0.241  10.716  21.140  0.00  0.00    +0.000 C 
BRANCH  21  22
ATOM     22  C   UNL     1      -0.604  11.901  20.236  0.00  0.00    +0.000 C 
BRANCH  22  23
ATOM     23  N   UNL     1      -1.830  11.661  19.502  0.00  0.00    +0.000 N 
ATOM     24  C   UNL     1      -1.992  12.061  18.137  0.00  0.00    +0.000 C 
ATOM     25  N   UNL     1      -1.049  12.647  17.485  0.00  0.00    +0.000 NA
ATOM     26  N   UNL     1      -3.225  11.819  17.485  0.00  0.00    +0.000 N 
ATOM     27  H   UNL     1      -2.621  11.202  19.978  0.00  0.00    +0.000 HD
ATOM     28  H   UNL     1      -0.127  12.863  17.889  0.00  0.00    +0.000 HD
ATOM     29  H   UNL     1      -3.999  11.356  17.982  0.00  0.00    +0.000 HD
ATOM     30  H   UNL     1      -3.366  12.098  16.506  0.00  0.00    +0.000 HD
ENDBRANCH  22  23
ENDBRANCH  21  22
ENDBRANCH  18  21
ENDBRANCH   1  16
TORSDOF 7
ENDMDL
MODEL 2
REMARK VINA RESULT:      -8.2      0.731      3.538
REMARK  Name = 
REMARK  13 active torsions:
REMARK  status: ('A' for Active; 'I' for Inactive)
REMARK    1  A    between atoms: C_1  and  C_2
REMARK    2  A    between atoms: C_2  and  C_3
REMARK    3  A    between atoms: C_2  and  C_4
REMARK    4  A    between atoms: C_2  and  C_5
REMARK    5  A    between atoms: C_7  and  C_8
REMARK    6  A    between atoms: C_8  and  N_9
REMARK    7  A    between atoms: C_11  and  C_12
REMARK    8  A    between atoms: C_12  and  C_13
REMARK    9  A    between atoms: C_13  and  N_14
REMARK   10  A    between atoms: C_21  and  C_22
REMARK   11  A    between atoms: C_22  and  C_23
REMARK   12  A    between atoms: C_22  and  C_24
REMARK   13  A    between atoms: C_22  and  C_25
REMARK                            x       y       z     vdW  Elec       q    Type
REMARK                         _______ _______ _______ _____ _____    ______ ____
ROOT
ATOM      1  C   UNL     1       2.280   7.760  17.826  0.00  0.00    +0.000 C 
ENDROOT
BRANCH   1   4
ATOM      2  C   UNL     1       5.472   5.672  18.183  0.00  0.00    +0.000 A 
ATOM      3  C   UNL     1       4.578   6.715  17.851  0.00  0.00    +0.000 A 
ATOM      4  C   UNL     1       3.206   6.602  18.119  0.00  0.00    +0.000 A 
ATOM      5  C   UNL     1       2.713   5.433  18.719  0.00  0.00    +0.000 A 
ATOM      6  C   UNL     1       3.576   4.377  19.075  0.00  0.00    +0.000 A 
ATOM      7  C   UNL     1       4.945   4.528  18.799  0.00  0.00    +0.000 A 
BRANCH   2   9
ATOM      8  C   UNL     1       7.449   4.671  17.128  0.00  0.00    +0.000 C 
ATOM      9  C   UNL     1       7.003   5.819  18.051  0.00  0.00    +0.000 C 
ATOM     10  C   UNL     1       7.729   5.728  19.413  0.00  0.00    +0.000 C 
ATOM     11  C   UNL     1       7.446   7.164  17.410  0.00  0.00    +0.000 C 
ENDBRANCH   2   9
BRANCH   6  12
ATOM     12  C   UNL     1       3.038   3.117  19.793  0.00  0.00    +0.000 C 
ATOM     13  C   UNL     1       4.209   2.184  20.155  0.00  0.00    +0.000 C 
ATOM     14  C   UNL     1       2.272   3.439  21.105  0.00  0.00    +0.000 C 
ATOM     15  C   UNL     1       2.053   2.389  18.856  0.00  0.00    +0.000 C 
ENDBRANCH   6  12
ENDBRANCH   1   4
BRANCH   1  16
ATOM     16  N   UNL     1       1.773   8.355  19.058  0.00  0.00    +0.000 N 
ATOM     17  C   UNL     1       1.125   9.522  19.169  0.00  0.00    +0.000 A 
ATOM     18  C   UNL     1       0.851   9.686  20.512  0.00  0.00    +0.000 A 
ATOM     19  N   UNL     1       1.322   8.606  21.168  0.00  0.00    +0.000 NA
ATOM     20  N   UNL     1       1.882   7.815  20.262  0.00  0.00    +0.000 NA
BRANCH  18  21
ATOM     21  C   UNL     1       0.181  10.855  21.180  0.00  0.00    +0.000 C 
BRANCH  21  22
ATOM     22  C   UNL     1      -0.235  11.930  20.167  0.00  0.00    +0.000 C 
BRANCH  22  23
ATOM     23  N   UNL     1      -1.600  11.743  19.716  0.00  0.00    +0.000 N 
ATOM     24  C   UNL     1      -2.017  12.086  18.390  0.00  0.00    +0.000 C 
ATOM     25  N   UNL     1      -1.197  12.570  17.524  0.00  0.00    +0.000 NA
ATOM     26  N   UNL     1      -3.371  11.902  18.020  0.00  0.00    +0.000 N 
ATOM     27  H   UNL     1      -2.301  11.367  20.371  0.00  0.00    +0.000 HD
ATOM     28  H   UNL     1      -0.200  12.738  17.717  0.00  0.00    +0.000 HD
ATOM     29  H   UNL     1      -4.052  11.521  18.693  0.00  0.00    +0.000 HD
ATOM     30  H   UNL     1      -3.695  12.142  17.074  0.00  0.00    +0.000 HD
ENDBRANCH  22  23
ENDBRANCH  21  22
ENDBRANCH  18  21
ENDBRANCH   1  16
TORSDOF 7
ENDMDL
MODEL 3
REMARK VINA RESULT:      -8.1      0.562      3.558
REMARK  Name = 
REMARK  13 active torsions:
REMARK  status: ('A' for Active; 'I' for Inactive)
REMARK    1  A    between atoms: C_1  and  C_2
REMARK    2  A    between atoms: C_2  and  C_3
REMARK    3  A    between atoms: C_2  and  C_4
REMARK    4  A    between atoms: C_2  and  C_5
REMARK    5  A    between atoms: C_7  and  C_8
REMARK    6  A    between atoms: C_8  and  N_9
REMARK    7  A    between atoms: C_11  and  C_12
REMARK    8  A    between atoms: C_12  and  C_13
REMARK    9  A    between atoms: C_13  and  N_14
REMARK   10  A    between atoms: C_21  and  C_22
REMARK   11  A    between atoms: C_22  and  C_23
REMARK   12  A    between atoms: C_22  and  C_24
REMARK   13  A    between atoms: C_22  and  C_25
REMARK                            x       y       z     vdW  Elec       q    Type
REMARK                         _______ _______ _______ _____ _____    ______ ____
ROOT
ATOM      1  C   UNL     1       2.364   8.046  17.739  0.00  0.00    +0.000 C 
ENDROOT
BRANCH   1   4
ATOM      2  C   UNL     1       5.377   5.709  18.114  0.00  0.00    +0.000 A 
ATOM      3  C   UNL     1       4.580   6.839  17.821  0.00  0.00    +0.000 A 
ATOM      4  C   UNL     1       3.188   6.803  17.984  0.00  0.00    +0.000 A 
ATOM      5  C   UNL     1       2.576   5.623  18.438  0.00  0.00    +0.000 A 
ATOM      6  C   UNL     1       3.339   4.480  18.751  0.00  0.00    +0.000 A 
ATOM      7  C   UNL     1       4.732   4.556  18.583  0.00  0.00    +0.000 A 
BRANCH   2   9
ATOM      8  C   UNL     1       7.350   5.626  19.570  0.00  0.00    +0.000 C 
ATOM      9  C   UNL     1       6.920   5.756  18.099  0.00  0.00    +0.000 C 
ATOM     10  C   UNL     1       7.468   7.069  17.492  0.00  0.00    +0.000 C 
ATOM     11  C   UNL     1       7.571   4.598  17.293  0.00  0.00    +0.000 C 
ENDBRANCH   2   9
BRANCH   6  12
ATOM     12  C   UNL     1       2.668   3.204  19.310  0.00  0.00    +0.000 C 
ATOM     13  C   UNL     1       1.877   2.499  18.192  0.00  0.00    +0.000 C 
ATOM     14  C   UNL     1       3.684   2.179  19.884  0.00  0.00    +0.000 C 
ATOM     15  C   UNL     1       1.719   3.599  20.460  0.00  0.00    +0.000 C 
ENDBRANCH   6  12
ENDBRANCH   1   4
BRANCH   1  16
ATOM     16  N   UNL     1       1.804   8.561  18.983  0.00  0.00    +0.000 N 
ATOM     17  C   UNL     1       1.093   9.687  19.128  0.00  0.00    +0.000 A 
ATOM     18  C   UNL     1       0.786   9.780  20.470  0.00  0.00    +0.000 A 
ATOM     19  N   UNL     1       1.301   8.700  21.092  0.00  0.00    +0.000 NA
ATOM     20  N   UNL     1       1.920   7.978  20.166  0.00  0.00    +0.000 NA
BRANCH  18  21
ATOM     21  C   UNL     1       0.042  10.884  21.171  0.00  0.00    +0.000 C 
BRANCH  21  22
ATOM     22  C   UNL     1      -0.337  12.018  20.210  0.00  0.00    +0.000 C 
BRANCH  22  23
ATOM     23  N   UNL     1      -1.656  11.822  19.643  0.00  0.00    +0.000 N 
ATOM     24  C   UNL     1      -1.949  12.122  18.273  0.00  0.00    +0.000 C 
ATOM     25  N   UNL     1      -1.050  12.573  17.471  0.00  0.00    +0.000 NA
ATOM     26  N   UNL     1      -3.265  11.932  17.789  0.00  0.00    +0.000 N 
ATOM     27  H   UNL     1      -2.416  11.471  20.243  0.00  0.00    +0.000 HD
ATOM     28  H   UNL     1      -0.073  12.743  17.747  0.00  0.00    +0.000 HD
ATOM     29  H   UNL     1      -4.007  11.577  18.409  0.00  0.00    +0.000 HD
ATOM     30  H   UNL     1      -3.500  12.142  16.810  0.00  0.00    +0.000 HD
ENDBRANCH  22  23
ENDBRANCH  21  22
ENDBRANCH  18  21
ENDBRANCH   1  16
TORSDOF 7
ENDMDL
MODEL 4
REMARK VINA RESULT:      -8.1      0.791      3.556
REMARK  Name = 
REMARK  13 active torsions:
REMARK  status: ('A' for Active; 'I' for Inactive)
REMARK    1  A    between atoms: C_1  and  C_2
REMARK    2  A    between atoms: C_2  and  C_3
REMARK    3  A    between atoms: C_2  and  C_4
REMARK    4  A    between atoms: C_2  and  C_5
REMARK    5  A    between atoms: C_7  and  C_8
REMARK    6  A    between atoms: C_8  and  N_9
REMARK    7  A    between atoms: C_11  and  C_12
REMARK    8  A    between atoms: C_12  and  C_13
REMARK    9  A    between atoms: C_13  and  N_14
REMARK   10  A    between atoms: C_21  and  C_22
REMARK   11  A    between atoms: C_22  and  C_23
REMARK   12  A    between atoms: C_22  and  C_24
REMARK   13  A    between atoms: C_22  and  C_25
REMARK                            x       y       z     vdW  Elec       q    Type
REMARK                         _______ _______ _______ _____ _____    ______ ____
ROOT
ATOM      1  C   UNL     1       2.283   7.882  17.740  0.00  0.00    +0.000 C 
ENDROOT
BRANCH   1   4
ATOM      2  C   UNL     1       5.389   5.649  17.959  0.00  0.00    +0.000 A 
ATOM      3  C   UNL     1       4.549   6.768  17.759  0.00  0.00    +0.000 A 
ATOM      4  C   UNL     1       3.157   6.657  17.883  0.00  0.00    +0.000 A 
ATOM      5  C   UNL     1       2.589   5.413  18.201  0.00  0.00    +0.000 A 
ATOM      6  C   UNL     1       3.395   4.278  18.420  0.00  0.00    +0.000 A 
ATOM      7  C   UNL     1       4.787   4.430  18.296  0.00  0.00    +0.000 A 
BRANCH   2   9
ATOM      8  C   UNL     1       7.445   4.585  17.146  0.00  0.00    +0.000 C 
ATOM      9  C   UNL     1       6.928   5.764  17.989  0.00  0.00    +0.000 C 
ATOM     10  C   UNL     1       7.502   5.694  19.423  0.00  0.00    +0.000 C 
ATOM     11  C   UNL     1       7.467   7.083  17.368  0.00  0.00    +0.000 C 
ENDBRANCH   2   9
BRANCH   6  12
ATOM     12  C   UNL     1       2.771   2.925  18.832  0.00  0.00    +0.000 C 
ATOM     13  C   UNL     1       2.990   2.688  20.339  0.00  0.00    +0.000 C 
ATOM     14  C   UNL     1       1.244   2.847  18.563  0.00  0.00    +0.000 C 
ATOM     15  C   UNL     1       3.437   1.797  18.018  0.00  0.00    +0.000 C 
ENDBRANCH   6  12
ENDBRANCH   1   4
BRANCH   1  16
ATOM     16  N   UNL     1       1.817   8.351  19.040  0.00  0.00    +0.000 N 
ATOM     17  C   UNL     1       1.231   9.528  19.297  0.00  0.00    +0.000 A 
ATOM     18  C   UNL     1       0.977   9.545  20.653  0.00  0.00    +0.000 A 
ATOM     19  N   UNL     1       1.396   8.373  21.171  0.00  0.00    +0.000 NA
ATOM     20  N   UNL     1       1.907   7.667  20.171  0.00  0.00    +0.000 NA
BRANCH  18  21
ATOM     21  C   UNL     1       0.373  10.660  21.464  0.00  0.00    +0.000 C 
BRANCH  21  22
ATOM     22  C   UNL     1      -0.973  11.119  20.890  0.00  0.00    +0.000 C 
BRANCH  22  23
ATOM     23  N   UNL     1      -0.800  12.018  19.767  0.00  0.00    +0.000 N 
ATOM     24  C   UNL     1      -1.493  11.831  18.527  0.00  0.00    +0.000 C 
ATOM     25  N   UNL     1      -2.315  10.858  18.350  0.00  0.00    +0.000 NA
ATOM     26  N   UNL     1      -1.258  12.732  17.460  0.00  0.00    +0.000 N 
ATOM     27  H   UNL     1      -0.146  12.810  19.851  0.00  0.00    +0.000 HD
ATOM     28  H   UNL     1      -2.535  10.159  19.073  0.00  0.00    +0.000 HD
ATOM     29  H   UNL     1      -0.602  13.518  17.571  0.00  0.00    +0.000 HD
ATOM     30  H   UNL     1      -1.743  12.618  16.561  0.00  0.00    +0.000 HD
ENDBRANCH  22  23
ENDBRANCH  21  22
ENDBRANCH  18  21
ENDBRANCH   1  16
TORSDOF 7
ENDMDL
MODEL 5
REMARK VINA RESULT:      -8.0      1.509      4.032
REMARK  Name = 
REMARK  13 active torsions:
REMARK  status: ('A' for Active; 'I' for Inactive)
REMARK    1  A    between atoms: C_1  and  C_2
REMARK    2  A    between atoms: C_2  and  C_3
REMARK    3  A    between atoms: C_2  and  C_4
REMARK    4  A    between atoms: C_2  and  C_5
REMARK    5  A    between atoms: C_7  and  C_8
REMARK    6  A    between atoms: C_8  and  N_9
REMARK    7  A    between atoms: C_11  and  C_12
REMARK    8  A    between atoms: C_12  and  C_13
REMARK    9  A    between atoms: C_13  and  N_14
REMARK   10  A    between atoms: C_21  and  C_22
REMARK   11  A    between atoms: C_22  and  C_23
REMARK   12  A    between atoms: C_22  and  C_24
REMARK   13  A    between atoms: C_22  and  C_25
REMARK                            x       y       z     vdW  Elec       q    Type
REMARK                         _______ _______ _______ _____ _____    ______ ____
ROOT
ATOM      1  C   UNL     1       1.980   7.961  20.505  0.00  0.00    +0.000 C 
ENDROOT
BRANCH   1   4
ATOM      2  C   UNL     1       3.897   5.771  18.013  0.00  0.00    +0.000 A 
ATOM      3  C   UNL     1       3.421   6.894  18.727  0.00  0.00    +0.000 A 
ATOM      4  C   UNL     1       2.420   6.760  19.699  0.00  0.00    +0.000 A 
ATOM      5  C   UNL     1       1.877   5.492  19.962  0.00  0.00    +0.000 A 
ATOM      6  C   UNL     1       2.334   4.348  19.279  0.00  0.00    +0.000 A 
ATOM      7  C   UNL     1       3.344   4.519  18.317  0.00  0.00    +0.000 A 
BRANCH   2   9
ATOM      8  C   UNL     1       5.278   4.427  16.493  0.00  0.00    +0.000 C 
ATOM      9  C   UNL     1       5.102   5.850  17.052  0.00  0.00    +0.000 C 
ATOM     10  C   UNL     1       6.397   6.315  17.759  0.00  0.00    +0.000 C 
ATOM     11  C   UNL     1       4.885   6.822  15.859  0.00  0.00    +0.000 C 
ENDBRANCH   2   9
BRANCH   6  12
ATOM     12  C   UNL     1       1.779   2.944  19.615  0.00  0.00    +0.000 C 
ATOM     13  C   UNL     1       2.729   1.863  19.065  0.00  0.00    +0.000 C 
ATOM     14  C   UNL     1       1.619   2.697  21.139  0.00  0.00    +0.000 C 
ATOM     15  C   UNL     1       0.382   2.793  18.978  0.00  0.00    +0.000 C 
ENDBRANCH   6  12
ENDBRANCH   1   4
BRANCH   1  16
ATOM     16  N   UNL     1       1.115   8.834  19.720  0.00  0.00    +0.000 N 
ATOM     17  C   UNL     1       0.090   9.562  20.183  0.00  0.00    +0.000 A 
ATOM     18  C   UNL     1      -0.444  10.216  19.091  0.00  0.00    +0.000 A 
ATOM     19  N   UNL     1       0.285   9.881  18.007  0.00  0.00    +0.000 NA
ATOM     20  N   UNL     1       1.223   9.036  18.416  0.00  0.00    +0.000 NA
BRANCH  18  21
ATOM     21  C   UNL     1      -1.643  11.123  19.056  0.00  0.00    +0.000 C 
BRANCH  21  22
ATOM     22  C   UNL     1      -1.628  12.042  17.827  0.00  0.00    +0.000 C 
BRANCH  22  23
ATOM     23  N   UNL     1      -1.929  11.317  16.609  0.00  0.00    +0.000 N 
ATOM     24  C   UNL     1      -3.251  11.259  16.064  0.00  0.00    +0.000 C 
ATOM     25  N   UNL     1      -4.243  11.860  16.622  0.00  0.00    +0.000 NA
ATOM     26  N   UNL     1      -3.482  10.511  14.884  0.00  0.00    +0.000 N 
ATOM     27  H   UNL     1      -1.174  10.810  16.125  0.00  0.00    +0.000 HD
ATOM     28  H   UNL     1      -4.158  12.418  17.483  0.00  0.00    +0.000 HD
ATOM     29  H   UNL     1      -2.709  10.016  14.417  0.00  0.00    +0.000 HD
ATOM     30  H   UNL     1      -4.423  10.454  14.473  0.00  0.00    +0.000 HD
ENDBRANCH  22  23
ENDBRANCH  21  22
ENDBRANCH  18  21
ENDBRANCH   1  16
TORSDOF 7
ENDMDL
MODEL 6
REMARK VINA RESULT:      -8.0      1.152      3.631
REMARK  Name = 
REMARK  13 active torsions:
REMARK  status: ('A' for Active; 'I' for Inactive)
REMARK    1  A    between atoms: C_1  and  C_2
REMARK    2  A    between atoms: C_2  and  C_3
REMARK    3  A    between atoms: C_2  and  C_4
REMARK    4  A    between atoms: C_2  and  C_5
REMARK    5  A    between atoms: C_7  and  C_8
REMARK    6  A    between atoms: C_8  and  N_9
REMARK    7  A    between atoms: C_11  and  C_12
REMARK    8  A    between atoms: C_12  and  C_13
REMARK    9  A    between atoms: C_13  and  N_14
REMARK   10  A    between atoms: C_21  and  C_22
REMARK   11  A    between atoms: C_22  and  C_23
REMARK   12  A    between atoms: C_22  and  C_24
REMARK   13  A    between atoms: C_22  and  C_25
REMARK                            x       y       z     vdW  Elec       q    Type
REMARK                         _______ _______ _______ _____ _____    ______ ____
ROOT
ATOM      1  C   UNL     1       2.213   7.800  17.759  0.00  0.00    +0.000 C 
ENDROOT
BRANCH   1   4
ATOM      2  C   UNL     1       5.337   5.593  18.001  0.00  0.00    +0.000 A 
ATOM      3  C   UNL     1       4.487   6.701  17.784  0.00  0.00    +0.000 A 
ATOM      4  C   UNL     1       3.097   6.583  17.921  0.00  0.00    +0.000 A 
ATOM      5  C   UNL     1       2.540   5.343  18.271  0.00  0.00    +0.000 A 
ATOM      6  C   UNL     1       3.356   4.219  18.508  0.00  0.00    +0.000 A 
ATOM      7  C   UNL     1       4.745   4.377  18.369  0.00  0.00    +0.000 A 
BRANCH   2   9
ATOM      8  C   UNL     1       7.391   4.548  17.160  0.00  0.00    +0.000 C 
ATOM      9  C   UNL     1       6.875   5.718  18.015  0.00  0.00    +0.000 C 
ATOM     10  C   UNL     1       7.465   5.644  19.444  0.00  0.00    +0.000 C 
ATOM     11  C   UNL     1       7.398   7.045  17.398  0.00  0.00    +0.000 C 
ENDBRANCH   2   9
BRANCH   6  12
ATOM     12  C   UNL     1       2.744   2.871  18.955  0.00  0.00    +0.000 C 
ATOM     13  C   UNL     1       3.548   1.706  18.346  0.00  0.00    +0.000 C 
ATOM     14  C   UNL     1       2.738   2.682  20.496  0.00  0.00    +0.000 C 
ATOM     15  C   UNL     1       1.277   2.804  18.482  0.00  0.00    +0.000 C 
ENDBRANCH   6  12
ENDBRANCH   1   4
BRANCH   1  16
ATOM     16  N   UNL     1       1.765   8.302  19.052  0.00  0.00    +0.000 N 
ATOM     17  C   UNL     1       1.099   9.442  19.274  0.00  0.00    +0.000 A 
ATOM     18  C   UNL     1       0.900   9.514  20.638  0.00  0.00    +0.000 A 
ATOM     19  N   UNL     1       1.432   8.408  21.197  0.00  0.00    +0.000 NA
ATOM     20  N   UNL     1       1.956   7.690  20.211  0.00  0.00    +0.000 NA
BRANCH  18  21
ATOM     21  C   UNL     1       0.243  10.622  21.417  0.00  0.00    +0.000 C 
BRANCH  21  22
ATOM     22  C   UNL     1       0.742  12.004  20.976  0.00  0.00    +0.000 C 
BRANCH  22  23
ATOM     23  N   UNL     1      -0.224  12.680  20.134  0.00  0.00    +0.000 N 
ATOM     24  C   UNL     1       0.050  13.002  18.766  0.00  0.00    +0.000 C 
ATOM     25  N   UNL     1       1.169  12.697  18.208  0.00  0.00    +0.000 NA
ATOM     26  N   UNL     1      -0.928  13.687  18.005  0.00  0.00    +0.000 N 
ATOM     27  H   UNL     1      -1.134  12.955  20.531  0.00  0.00    +0.000 HD
ATOM     28  H   UNL     1       1.932  12.205  18.694  0.00  0.00    +0.000 HD
ATOM     29  H   UNL     1      -1.832  13.948  18.425  0.00  0.00    +0.000 HD
ATOM     30  H   UNL     1      -0.754  13.929  17.021  0.00  0.00    +0.000 HD
ENDBRANCH  22  23
ENDBRANCH  21  22
ENDBRANCH  18  21
ENDBRANCH   1  16
TORSDOF 7
ENDMDL
MODEL 7
REMARK VINA RESULT:      -8.0      1.492      4.003
REMARK  Name = 
REMARK  13 active torsions:
REMARK  status: ('A' for Active; 'I' for Inactive)
REMARK    1  A    between atoms: C_1  and  C_2
REMARK    2  A    between atoms: C_2  and  C_3
REMARK    3  A    between atoms: C_2  and  C_4
REMARK    4  A    between atoms: C_2  and  C_5
REMARK    5  A    between atoms: C_7  and  C_8
REMARK    6  A    between atoms: C_8  and  N_9
REMARK    7  A    between atoms: C_11  and  C_12
REMARK    8  A    between atoms: C_12  and  C_13
REMARK    9  A    between atoms: C_13  and  N_14
REMARK   10  A    between atoms: C_21  and  C_22
REMARK   11  A    between atoms: C_22  and  C_23
REMARK   12  A    between atoms: C_22  and  C_24
REMARK   13  A    between atoms: C_22  and  C_25
REMARK                            x       y       z     vdW  Elec       q    Type
REMARK                         _______ _______ _______ _____ _____    ______ ____
ROOT
ATOM      1  C   UNL     1       1.874   7.807  20.437  0.00  0.00    +0.000 C 
ENDROOT
BRANCH   1   4
ATOM      2  C   UNL     1       3.855   5.687  17.935  0.00  0.00    +0.000 A 
ATOM      3  C   UNL     1       3.340   6.793  18.650  0.00  0.00    +0.000 A 
ATOM      4  C   UNL     1       2.354   6.622  19.632  0.00  0.00    +0.000 A 
ATOM      5  C   UNL     1       1.865   5.334  19.903  0.00  0.00    +0.000 A 
ATOM      6  C   UNL     1       2.362   4.207  19.219  0.00  0.00    +0.000 A 
ATOM      7  C   UNL     1       3.356   4.415  18.248  0.00  0.00    +0.000 A 
BRANCH   2   9
ATOM      8  C   UNL     1       6.277   6.069  17.851  0.00  0.00    +0.000 C 
ATOM      9  C   UNL     1       5.047   5.811  16.963  0.00  0.00    +0.000 C 
ATOM     10  C   UNL     1       4.867   6.962  15.945  0.00  0.00    +0.000 C 
ATOM     11  C   UNL     1       5.306   4.527  16.127  0.00  0.00    +0.000 C 
ENDBRANCH   2   9
BRANCH   6  12
ATOM     12  C   UNL     1       1.867   2.783  19.565  0.00  0.00    +0.000 C 
ATOM     13  C   UNL     1       2.901   1.743  19.094  0.00  0.00    +0.000 C 
ATOM     14  C   UNL     1       1.641   2.564  21.085  0.00  0.00    +0.000 C 
ATOM     15  C   UNL     1       0.515   2.539  18.863  0.00  0.00    +0.000 C 
ENDBRANCH   6  12
ENDBRANCH   1   4
BRANCH   1  16
ATOM     16  N   UNL     1       1.363   8.862  19.570  0.00  0.00    +0.000 N 
ATOM     17  C   UNL     1       0.878  10.048  19.962  0.00  0.00    +0.000 A 
ATOM     18  C   UNL     1       0.501  10.711  18.811  0.00  0.00    +0.000 A 
ATOM     19  N   UNL     1       0.788   9.917  17.760  0.00  0.00    +0.000 NA
ATOM     20  N   UNL     1       1.306   8.797  18.249  0.00  0.00    +0.000 NA
BRANCH  18  21
ATOM     21  C   UNL     1      -0.148  12.063  18.697  0.00  0.00    +0.000 C 
BRANCH  21  22
ATOM     22  C   UNL     1      -1.642  11.953  18.366  0.00  0.00    +0.000 C 
BRANCH  22  23
ATOM     23  N   UNL     1      -1.864  11.749  16.949  0.00  0.00    +0.000 N 
ATOM     24  C   UNL     1      -2.594  10.624  16.447  0.00  0.00    +0.000 C 
ATOM     25  N   UNL     1      -3.100   9.739  17.232  0.00  0.00    +0.000 NA
ATOM     26  N   UNL     1      -2.754  10.470  15.048  0.00  0.00    +0.000 N 
ATOM     27  H   UNL     1      -1.473  12.423  16.275  0.00  0.00    +0.000 HD
ATOM     28  H   UNL     1      -3.023   9.776  18.257  0.00  0.00    +0.000 HD
ATOM     29  H   UNL     1      -2.356  11.160  14.395  0.00  0.00    +0.000 HD
ATOM     30  H   UNL     1      -3.273   9.670  14.664  0.00  0.00    +0.000 HD
ENDBRANCH  22  23
ENDBRANCH  21  22
ENDBRANCH  18  21
ENDBRANCH   1  16
TORSDOF 7
ENDMDL
MODEL 8
REMARK VINA RESULT:      -8.0      0.876      1.418
REMARK  Name = 
REMARK  13 active torsions:
REMARK  status: ('A' for Active; 'I' for Inactive)
REMARK    1  A    between atoms: C_1  and  C_2
REMARK    2  A    between atoms: C_2  and  C_3
REMARK    3  A    between atoms: C_2  and  C_4
REMARK    4  A    between atoms: C_2  and  C_5
REMARK    5  A    between atoms: C_7  and  C_8
REMARK    6  A    between atoms: C_8  and  N_9
REMARK    7  A    between atoms: C_11  and  C_12
REMARK    8  A    between atoms: C_12  and  C_13
REMARK    9  A    between atoms: C_13  and  N_14
REMARK   10  A    between atoms: C_21  and  C_22
REMARK   11  A    between atoms: C_22  and  C_23
REMARK   12  A    between atoms: C_22  and  C_24
REMARK   13  A    between atoms: C_22  and  C_25
REMARK                            x       y       z     vdW  Elec       q    Type
REMARK                         _______ _______ _______ _____ _____    ______ ____
ROOT
ATOM      1  C   UNL     1       2.475   7.940  17.343  0.00  0.00    +0.000 C 
ENDROOT
BRANCH   1   4
ATOM      2  C   UNL     1       3.367   4.482  18.732  0.00  0.00    +0.000 A 
ATOM      3  C   UNL     1       2.631   5.612  18.308  0.00  0.00    +0.000 A 
ATOM      4  C   UNL     1       3.281   6.772  17.864  0.00  0.00    +0.000 A 
ATOM      5  C   UNL     1       4.685   6.815  17.849  0.00  0.00    +0.000 A 
ATOM      6  C   UNL     1       5.452   5.704  18.253  0.00  0.00    +0.000 A 
ATOM      7  C   UNL     1       4.766   4.556  18.683  0.00  0.00    +0.000 A 
BRANCH   2   9
ATOM      8  C   UNL     1       3.340   2.679  20.396  0.00  0.00    +0.000 C 
ATOM      9  C   UNL     1       2.694   3.137  19.077  0.00  0.00    +0.000 C 
ATOM     10  C   UNL     1       2.901   2.070  17.976  0.00  0.00    +0.000 C 
ATOM     11  C   UNL     1       1.159   3.246  19.295  0.00  0.00    +0.000 C 
ENDBRANCH   2   9
BRANCH   6  12
ATOM     12  C   UNL     1       6.996   5.732  18.175  0.00  0.00    +0.000 C 
ATOM     13  C   UNL     1       7.591   5.649  19.593  0.00  0.00    +0.000 C 
ATOM     14  C   UNL     1       7.590   4.560  17.348  0.00  0.00    +0.000 C 
ATOM     15  C   UNL     1       7.440   7.043  17.492  0.00  0.00    +0.000 C 
ENDBRANCH   6  12
ENDBRANCH   1   4
BRANCH   1  16
ATOM     16  N   UNL     1       1.892   8.709  18.436  0.00  0.00    +0.000 N 
ATOM     17  C   UNL     1       1.535   9.999  18.398  0.00  0.00    +0.000 A 
ATOM     18  C   UNL     1       1.048  10.302  19.654  0.00  0.00    +0.000 A 
ATOM     19  N   UNL     1       1.105   9.184  20.405  0.00  0.00    +0.000 NA
ATOM     20  N   UNL     1       1.628   8.231  19.642  0.00  0.00    +0.000 NA
BRANCH  18  21
ATOM     21  C   UNL     1       0.559  11.633  20.156  0.00  0.00    +0.000 C 
BRANCH  21  22
ATOM     22  C   UNL     1      -0.959  11.783  19.993  0.00  0.00    +0.000 C 
BRANCH  22  23
ATOM     23  N   UNL     1      -1.512  10.749  19.141  0.00  0.00    +0.000 N 
ATOM     24  C   UNL     1      -1.889  11.002  17.783  0.00  0.00    +0.000 C 
ATOM     25  N   UNL     1      -1.745  12.161  17.243  0.00  0.00    +0.000 NA
ATOM     26  N   UNL     1      -2.448   9.953  17.013  0.00  0.00    +0.000 N 
ATOM     27  H   UNL     1      -1.657   9.804  19.525  0.00  0.00    +0.000 HD
ATOM     28  H   UNL     1      -1.352  12.974  17.737  0.00  0.00    +0.000 HD
ATOM     29  H   UNL     1      -2.579   9.016  17.419  0.00  0.00    +0.000 HD
ATOM     30  H   UNL     1      -2.726  10.110  16.035  0.00  0.00    +0.000 HD
ENDBRANCH  22  23
ENDBRANCH  21  22
ENDBRANCH  18  21
ENDBRANCH   1  16
TORSDOF 7
ENDMDL
MODEL 9
REMARK VINA RESULT:      -8.0      1.975      4.178
REMARK  Name = 
REMARK  13 active torsions:
REMARK  status: ('A' for Active; 'I' for Inactive)
REMARK    1  A    between atoms: C_1  and  C_2
REMARK    2  A    between atoms: C_2  and  C_3
REMARK    3  A    between atoms: C_2  and  C_4
REMARK    4  A    between atoms: C_2  and  C_5
REMARK    5  A    between atoms: C_7  and  C_8
REMARK    6  A    between atoms: C_8  and  N_9
REMARK    7  A    between atoms: C_11  and  C_12
REMARK    8  A    between atoms: C_12  and  C_13
REMARK    9  A    between atoms: C_13  and  N_14
REMARK   10  A    between atoms: C_21  and  C_22
REMARK   11  A    between atoms: C_22  and  C_23
REMARK   12  A    between atoms: C_22  and  C_24
REMARK   13  A    between atoms: C_22  and  C_25
REMARK                            x       y       z     vdW  Elec       q    Type
REMARK                         _______ _______ _______ _____ _____    ______ ____
ROOT
ATOM      1  C   UNL     1       2.545   8.381  17.639  0.00  0.00    +0.000 C 
ENDROOT
BRANCH   1   4
ATOM      2  C   UNL     1       5.388   5.843  18.037  0.00  0.00    +0.000 A 
ATOM      3  C   UNL     1       4.672   7.023  17.733  0.00  0.00    +0.000 A 
ATOM      4  C   UNL     1       3.281   7.086  17.897  0.00  0.00    +0.000 A 
ATOM      5  C   UNL     1       2.588   5.957  18.363  0.00  0.00    +0.000 A 
ATOM      6  C   UNL     1       3.270   4.767  18.688  0.00  0.00    +0.000 A 
ATOM      7  C   UNL     1       4.664   4.744  18.519  0.00  0.00    +0.000 A 
BRANCH   2   9
ATOM      8  C   UNL     1       7.387   7.093  17.356  0.00  0.00    +0.000 C 
ATOM      9  C   UNL     1       6.930   5.783  18.021  0.00  0.00    +0.000 C 
ATOM     10  C   UNL     1       7.470   4.564  17.236  0.00  0.00    +0.000 C 
ATOM     11  C   UNL     1       7.565   5.705  19.437  0.00  0.00    +0.000 C 
ENDBRANCH   2   9
BRANCH   6  12
ATOM     12  C   UNL     1       2.512   3.547  19.260  0.00  0.00    +0.000 C 
ATOM     13  C   UNL     1       1.662   3.982  20.469  0.00  0.00    +0.000 C 
ATOM     14  C   UNL     1       1.559   2.879  18.233  0.00  0.00    +0.000 C 
ATOM     15  C   UNL     1       3.537   2.478  19.693  0.00  0.00    +0.000 C 
ENDBRANCH   6  12
ENDBRANCH   1   4
BRANCH   1  16
ATOM     16  N   UNL     1       1.777   8.793  18.808  0.00  0.00    +0.000 N 
ATOM     17  C   UNL     1       1.526   8.053  19.895  0.00  0.00    +0.000 A 
ATOM     18  C   UNL     1       0.758   8.839  20.730  0.00  0.00    +0.000 A 
ATOM     19  N   UNL     1       0.586  10.036  20.133  0.00  0.00    +0.000 NA
ATOM     20  N   UNL     1       1.211   9.980  18.964  0.00  0.00    +0.000 NA
BRANCH  18  21
ATOM     21  C   UNL     1       0.166   8.465  22.061  0.00  0.00    +0.000 C 
BRANCH  21  22
ATOM     22  C   UNL     1       0.292   9.603  23.082  0.00  0.00    +0.000 C 
BRANCH  22  23
ATOM     23  N   UNL     1      -0.997  10.181  23.406  0.00  0.00    +0.000 N 
ATOM     24  C   UNL     1      -1.407  11.458  22.903  0.00  0.00    +0.000 C 
ATOM     25  N   UNL     1      -0.654  12.156  22.127  0.00  0.00    +0.000 NA
ATOM     26  N   UNL     1      -2.670  11.977  23.278  0.00  0.00    +0.000 N 
ATOM     27  H   UNL     1      -1.637   9.669  24.030  0.00  0.00    +0.000 HD
ATOM     28  H   UNL     1       0.278  11.851  21.814  0.00  0.00    +0.000 HD
ATOM     29  H   UNL     1      -3.292  11.443  23.902  0.00  0.00    +0.000 HD
ATOM     30  H   UNL     1      -2.986  12.892  22.931  0.00  0.00    +0.000 HD
ENDBRANCH  22  23
ENDBRANCH  21  22
ENDBRANCH  18  21
ENDBRANCH   1  16
TORSDOF 7
ENDMDL
