MODEL 1
REMARK VINA RESULT:      -7.3      0.000      0.000
REMARK  Name = 
REMARK  5 active torsions:
REMARK  status: ('A' for Active; 'I' for Inactive)
REMARK    1  A    between atoms: N1_5  and  C1*_6
REMARK    2  A    between atoms: C4*_8  and  C5*_9
REMARK    3  A    between atoms: C5*_9  and  O5*_10
REMARK    4  A    between atoms: C3*_11  and  O3*_12
REMARK    5  A    between atoms: C2*_13  and  O2*_14
REMARK                            x       y       z     vdW  Elec       q    Type
REMARK                         _______ _______ _______ _____ _____    ______ ____
ROOT
ATOM      1  C1*   C A   1       5.468   3.910  18.398  0.00  0.00    +0.000 C 
ATOM      2  O4*   C A   1       6.127   4.865  19.256  0.00  0.00    +0.000 OA
ATOM      3  C4*   C A   1       6.724   5.881  18.408  0.00  0.00    +0.000 C 
ATOM      4  C3*   C A   1       6.874   5.243  17.031  0.00  0.00    +0.000 C 
ATOM      5  C2*   C A   1       5.637   4.364  16.936  0.00  0.00    +0.000 C 
ENDROOT
BRANCH   1  10
ATOM      6  N4    C A   1       0.329   3.104  20.245  0.00  0.00    +0.000 N 
ATOM      7  C4    C A   1       1.596   3.292  19.763  0.00  0.00    +0.000 A 
ATOM      8  C5    C A   1       1.824   4.299  18.711  0.00  0.00    +0.000 A 
ATOM      9  C6    C A   1       3.082   4.435  18.301  0.00  0.00    +0.000 A 
ATOM     10  N1    C A   1       4.098   3.669  18.834  0.00  0.00    +0.000 N 
ATOM     11  C2    C A   1       3.843   2.729  19.837  0.00  0.00    +0.000 A 
ATOM     12  O2    C A   1       4.753   2.071  20.341  0.00  0.00    +0.000 OA
ATOM     13  N3    C A   1       2.545   2.572  20.273  0.00  0.00    +0.000 NA
ATOM     14  H41   C A   1      -0.295   3.902  20.248  0.00  0.00    +0.000 HD
ATOM     15  H42   C A   1       0.320   2.580  21.115  0.00  0.00    +0.000 HD
ENDBRANCH   1  10
BRANCH   4  16
ATOM     16  O3*   C A   1       8.035   4.398  16.916  0.00  0.00    +0.000 OA
ATOM     17  H3*   C A   1       7.905   3.608  17.472  0.00  0.00    +0.000 HD
ENDBRANCH   4  16
BRANCH   5  18
ATOM     18  O2*   C A   1       5.844   3.257  16.054  0.00  0.00    +0.000 OA
ATOM     19  H2*   C A   1       6.781   3.310  15.771  0.00  0.00    +0.000 HD
ENDBRANCH   5  18
BRANCH   3  20
ATOM     20  C5*   C A   1       8.046   6.333  19.030  0.00  0.00    +0.000 C 
BRANCH  20  21
ATOM     21  O5*   C A   1       8.517   5.358  19.959  0.00  0.00    +0.000 OA
ATOM     22  H5*   C A   1       7.824   4.672  20.009  0.00  0.00    +0.000 HD
ENDBRANCH  20  21
ENDBRANCH   3  20
TORSDOF 5
ENDMDL
MODEL 2
REMARK VINA RESULT:      -7.0      1.098      1.146
REMARK  Name = 
REMARK  5 active torsions:
REMARK  status: ('A' for Active; 'I' for Inactive)
REMARK    1  A    between atoms: N1_5  and  C1*_6
REMARK    2  A    between atoms: C4*_8  and  C5*_9
REMARK    3  A    between atoms: C5*_9  and  O5*_10
REMARK    4  A    between atoms: C3*_11  and  O3*_12
REMARK    5  A    between atoms: C2*_13  and  O2*_14
REMARK                            x       y       z     vdW  Elec       q    Type
REMARK                         _______ _______ _______ _____ _____    ______ ____
ROOT
ATOM      1  C1*   C A   1       5.404   4.138  17.955  0.00  0.00    +0.000 C 
ATOM      2  O4*   C A   1       5.922   5.348  18.548  0.00  0.00    +0.000 OA
ATOM      3  C4*   C A   1       6.389   6.201  17.471  0.00  0.00    +0.000 C 
ATOM      4  C3*   C A   1       6.637   5.279  16.282  0.00  0.00    +0.000 C 
ATOM      5  C2*   C A   1       5.528   4.249  16.424  0.00  0.00    +0.000 C 
ENDROOT
BRANCH   1  10
ATOM      6  N4    C A   1       0.409   3.103  20.066  0.00  0.00    +0.000 N 
ATOM      7  C4    C A   1       1.641   3.345  19.520  0.00  0.00    +0.000 A 
ATOM      8  C5    C A   1       1.752   4.265  18.374  0.00  0.00    +0.000 A 
ATOM      9  C6    C A   1       2.981   4.461  17.904  0.00  0.00    +0.000 A 
ATOM     10  N1    C A   1       4.073   3.831  18.464  0.00  0.00    +0.000 N 
ATOM     11  C2    C A   1       3.928   2.971  19.556  0.00  0.00    +0.000 A 
ATOM     12  O2    C A   1       4.904   2.436  20.081  0.00  0.00    +0.000 OA
ATOM     13  N3    C A   1       2.662   2.753  20.055  0.00  0.00    +0.000 NA
ATOM     14  H41   C A   1      -0.278   3.845  20.022  0.00  0.00    +0.000 HD
ATOM     15  H42   C A   1       0.471   2.662  20.979  0.00  0.00    +0.000 HD
ENDBRANCH   1  10
BRANCH   4  16
ATOM     16  O3*   C A   1       7.901   4.590  16.347  0.00  0.00    +0.000 OA
ATOM     17  H3*   C A   1       8.305   4.589  15.460  0.00  0.00    +0.000 HD
ENDBRANCH   4  16
BRANCH   5  18
ATOM     18  O2*   C A   1       5.889   3.001  15.826  0.00  0.00    +0.000 OA
ATOM     19  H2*   C A   1       6.364   3.226  14.999  0.00  0.00    +0.000 HD
ENDBRANCH   5  18
BRANCH   3  20
ATOM     20  C5*   C A   1       7.632   6.957  17.940  0.00  0.00    +0.000 C 
BRANCH  20  21
ATOM     21  O5*   C A   1       7.807   8.150  17.178  0.00  0.00    +0.000 OA
ATOM     22  H5*   C A   1       8.654   8.048  16.703  0.00  0.00    +0.000 HD
ENDBRANCH  20  21
ENDBRANCH   3  20
TORSDOF 5
ENDMDL
MODEL 3
REMARK VINA RESULT:      -6.9      2.625      5.642
REMARK  Name = 
REMARK  5 active torsions:
REMARK  status: ('A' for Active; 'I' for Inactive)
REMARK    1  A    between atoms: N1_5  and  C1*_6
REMARK    2  A    between atoms: C4*_8  and  C5*_9
REMARK    3  A    between atoms: C5*_9  and  O5*_10
REMARK    4  A    between atoms: C3*_11  and  O3*_12
REMARK    5  A    between atoms: C2*_13  and  O2*_14
REMARK                            x       y       z     vdW  Elec       q    Type
REMARK                         _______ _______ _______ _____ _____    ______ ____
ROOT
ATOM      1  C1*   C A   1       4.518   3.981  18.080  0.00  0.00    +0.000 C 
ATOM      2  O4*   C A   1       3.452   3.123  17.622  0.00  0.00    +0.000 OA
ATOM      3  C4*   C A   1       2.203   3.667  18.124  0.00  0.00    +0.000 C 
ATOM      4  C3*   C A   1       2.575   4.541  19.318  0.00  0.00    +0.000 C 
ATOM      5  C2*   C A   1       3.905   5.139  18.889  0.00  0.00    +0.000 C 
ENDROOT
BRANCH   1  10
ATOM      6  N4    C A   1       7.918   5.238  13.917  0.00  0.00    +0.000 N 
ATOM      7  C4    C A   1       7.064   4.951  14.947  0.00  0.00    +0.000 A 
ATOM      8  C5    C A   1       5.636   4.726  14.656  0.00  0.00    +0.000 A 
ATOM      9  C6    C A   1       4.869   4.441  15.705  0.00  0.00    +0.000 A 
ATOM     10  N1    C A   1       5.392   4.368  16.979  0.00  0.00    +0.000 N 
ATOM     11  C2    C A   1       6.753   4.580  17.214  0.00  0.00    +0.000 A 
ATOM     12  O2    C A   1       7.230   4.479  18.343  0.00  0.00    +0.000 OA
ATOM     13  N3    C A   1       7.564   4.880  16.140  0.00  0.00    +0.000 NA
ATOM     14  H41   C A   1       7.704   4.848  13.007  0.00  0.00    +0.000 HD
ATOM     15  H42   C A   1       8.893   5.133  14.182  0.00  0.00    +0.000 HD
ENDBRANCH   1  10
BRANCH   4  16
ATOM     16  O3*   C A   1       2.790   3.791  20.529  0.00  0.00    +0.000 OA
ATOM     17  H3*   C A   1       3.597   4.121  20.965  0.00  0.00    +0.000 HD
ENDBRANCH   4  16
BRANCH   5  18
ATOM     18  O2*   C A   1       4.712   5.490  20.017  0.00  0.00    +0.000 OA
ATOM     19  H2*   C A   1       4.945   6.434  19.899  0.00  0.00    +0.000 HD
ENDBRANCH   5  18
BRANCH   3  20
ATOM     20  C5*   C A   1       1.262   2.513  18.469  0.00  0.00    +0.000 C 
BRANCH  20  21
ATOM     21  O5*   C A   1       2.008   1.371  18.886  0.00  0.00    +0.000 OA
ATOM     22  H5*   C A   1       1.411   0.850  19.457  0.00  0.00    +0.000 HD
ENDBRANCH  20  21
ENDBRANCH   3  20
TORSDOF 5
ENDMDL
MODEL 4
REMARK VINA RESULT:      -6.7      2.656      5.454
REMARK  Name = 
REMARK  5 active torsions:
REMARK  status: ('A' for Active; 'I' for Inactive)
REMARK    1  A    between atoms: N1_5  and  C1*_6
REMARK    2  A    between atoms: C4*_8  and  C5*_9
REMARK    3  A    between atoms: C5*_9  and  O5*_10
REMARK    4  A    between atoms: C3*_11  and  O3*_12
REMARK    5  A    between atoms: C2*_13  and  O2*_14
REMARK                            x       y       z     vdW  Elec       q    Type
REMARK                         _______ _______ _______ _____ _____    ______ ____
ROOT
ATOM      1  C1*   C A   1       4.432   5.134  19.228  0.00  0.00    +0.000 C 
ATOM      2  O4*   C A   1       4.436   3.800  19.779  0.00  0.00    +0.000 OA
ATOM      3  C4*   C A   1       3.055   3.407  19.990  0.00  0.00    +0.000 C 
ATOM      4  C3*   C A   1       2.256   4.704  20.064  0.00  0.00    +0.000 C 
ATOM      5  C2*   C A   1       2.971   5.591  19.059  0.00  0.00    +0.000 C 
ENDROOT
BRANCH   1  10
ATOM      6  N4    C A   1       7.639   5.211  14.735  0.00  0.00    +0.000 N 
ATOM      7  C4    C A   1       6.837   5.217  15.844  0.00  0.00    +0.000 A 
ATOM      8  C5    C A   1       5.372   5.203  15.672  0.00  0.00    +0.000 A 
ATOM      9  C6    C A   1       4.657   5.199  16.794  0.00  0.00    +0.000 A 
ATOM     10  N1    C A   1       5.264   5.212  18.033  0.00  0.00    +0.000 N 
ATOM     11  C2    C A   1       6.656   5.217  18.155  0.00  0.00    +0.000 A 
ATOM     12  O2    C A   1       7.200   5.190  19.258  0.00  0.00    +0.000 OA
ATOM     13  N3    C A   1       7.414   5.224  17.004  0.00  0.00    +0.000 NA
ATOM     14  H41   C A   1       7.292   4.743  13.907  0.00  0.00    +0.000 HD
ATOM     15  H42   C A   1       8.603   4.977  14.957  0.00  0.00    +0.000 HD
ENDBRANCH   1  10
BRANCH   4  16
ATOM     16  O3*   C A   1       2.321   5.342  21.354  0.00  0.00    +0.000 OA
ATOM     17  H3*   C A   1       2.995   6.045  21.324  0.00  0.00    +0.000 HD
ENDBRANCH   4  16
BRANCH   5  18
ATOM     18  O2*   C A   1       2.807   6.978  19.372  0.00  0.00    +0.000 OA
ATOM     19  H2*   C A   1       2.053   7.289  18.828  0.00  0.00    +0.000 HD
ENDBRANCH   5  18
BRANCH   3  20
ATOM     20  C5*   C A   1       2.971   2.552  21.255  0.00  0.00    +0.000 C 
BRANCH  20  21
ATOM     21  O5*   C A   1       1.684   2.681  21.857  0.00  0.00    +0.000 OA
ATOM     22  H5*   C A   1       1.762   2.295  22.751  0.00  0.00    +0.000 HD
ENDBRANCH  20  21
ENDBRANCH   3  20
TORSDOF 5
ENDMDL
MODEL 5
REMARK VINA RESULT:      -6.7      1.834      3.140
REMARK  Name = 
REMARK  5 active torsions:
REMARK  status: ('A' for Active; 'I' for Inactive)
REMARK    1  A    between atoms: N1_5  and  C1*_6
REMARK    2  A    between atoms: C4*_8  and  C5*_9
REMARK    3  A    between atoms: C5*_9  and  O5*_10
REMARK    4  A    between atoms: C3*_11  and  O3*_12
REMARK    5  A    between atoms: C2*_13  and  O2*_14
REMARK                            x       y       z     vdW  Elec       q    Type
REMARK                         _______ _______ _______ _____ _____    ______ ____
ROOT
ATOM      1  C1*   C A   1       4.821   4.918  17.225  0.00  0.00    +0.000 C 
ATOM      2  O4*   C A   1       4.823   4.471  15.853  0.00  0.00    +0.000 OA
ATOM      3  C4*   C A   1       6.154   3.974  15.554  0.00  0.00    +0.000 C 
ATOM      4  C3*   C A   1       7.082   4.616  16.580  0.00  0.00    +0.000 C 
ATOM      5  C2*   C A   1       6.215   4.663  17.827  0.00  0.00    +0.000 C 
ENDROOT
BRANCH   1  10
ATOM      6  N4    C A   1       0.434   2.937  19.927  0.00  0.00    +0.000 N 
ATOM      7  C4    C A   1       1.537   3.407  19.267  0.00  0.00    +0.000 A 
ATOM      8  C5    C A   1       2.032   2.680  18.083  0.00  0.00    +0.000 A 
ATOM      9  C6    C A   1       3.099   3.202  17.487  0.00  0.00    +0.000 A 
ATOM     10  N1    C A   1       3.698   4.351  17.961  0.00  0.00    +0.000 N 
ATOM     11  C2    C A   1       3.194   5.017  19.082  0.00  0.00    +0.000 A 
ATOM     12  O2    C A   1       3.703   6.062  19.485  0.00  0.00    +0.000 OA
ATOM     13  N3    C A   1       2.090   4.489  19.716  0.00  0.00    +0.000 NA
ATOM     14  H41   C A   1      -0.263   2.442  19.384  0.00  0.00    +0.000 HD
ATOM     15  H42   C A   1       0.039   3.627  20.561  0.00  0.00    +0.000 HD
ENDBRANCH   1  10
BRANCH   4  16
ATOM     16  O3*   C A   1       7.460   5.965  16.244  0.00  0.00    +0.000 OA
ATOM     17  H3*   C A   1       7.282   6.114  15.297  0.00  0.00    +0.000 HD
ENDBRANCH   4  16
BRANCH   5  18
ATOM     18  O2*   C A   1       6.617   5.717  18.708  0.00  0.00    +0.000 OA
ATOM     19  H2*   C A   1       6.489   6.550  18.206  0.00  0.00    +0.000 HD
ENDBRANCH   5  18
BRANCH   3  20
ATOM     20  C5*   C A   1       6.498   4.317  14.104  0.00  0.00    +0.000 C 
BRANCH  20  21
ATOM     21  O5*   C A   1       6.285   3.187  13.262  0.00  0.00    +0.000 OA
ATOM     22  H5*   C A   1       6.746   3.381  12.423  0.00  0.00    +0.000 HD
ENDBRANCH  20  21
ENDBRANCH   3  20
TORSDOF 5
ENDMDL
MODEL 6
REMARK VINA RESULT:      -6.7      1.787      2.886
REMARK  Name = 
REMARK  5 active torsions:
REMARK  status: ('A' for Active; 'I' for Inactive)
REMARK    1  A    between atoms: N1_5  and  C1*_6
REMARK    2  A    between atoms: C4*_8  and  C5*_9
REMARK    3  A    between atoms: C5*_9  and  O5*_10
REMARK    4  A    between atoms: C3*_11  and  O3*_12
REMARK    5  A    between atoms: C2*_13  and  O2*_14
REMARK                            x       y       z     vdW  Elec       q    Type
REMARK                         _______ _______ _______ _____ _____    ______ ____
ROOT
ATOM      1  C1*   C A   1       5.103   5.188  18.553  0.00  0.00    +0.000 C 
ATOM      2  O4*   C A   1       4.867   5.036  17.137  0.00  0.00    +0.000 OA
ATOM      3  C4*   C A   1       6.087   4.520  16.541  0.00  0.00    +0.000 C 
ATOM      4  C3*   C A   1       7.209   4.869  17.513  0.00  0.00    +0.000 C 
ATOM      5  C2*   C A   1       6.535   4.718  18.867  0.00  0.00    +0.000 C 
ENDROOT
BRANCH   1  10
ATOM      6  N4    C A   1       0.950   2.834  21.325  0.00  0.00    +0.000 N 
ATOM      7  C4    C A   1       1.996   3.414  20.659  0.00  0.00    +0.000 A 
ATOM      8  C5    C A   1       3.104   2.566  20.182  0.00  0.00    +0.000 A 
ATOM      9  C6    C A   1       4.079   3.196  19.533  0.00  0.00    +0.000 A 
ATOM     10  N1    C A   1       4.043   4.561  19.333  0.00  0.00    +0.000 N 
ATOM     11  C2    C A   1       2.970   5.330  19.793  0.00  0.00    +0.000 A 
ATOM     12  O2    C A   1       2.917   6.541  19.583  0.00  0.00    +0.000 OA
ATOM     13  N3    C A   1       1.952   4.695  20.470  0.00  0.00    +0.000 NA
ATOM     14  H41   C A   1       0.709   1.881  21.082  0.00  0.00    +0.000 HD
ATOM     15  H42   C A   1       0.144   3.450  21.391  0.00  0.00    +0.000 HD
ENDBRANCH   1  10
BRANCH   4  16
ATOM     16  O3*   C A   1       7.669   6.229  17.390  0.00  0.00    +0.000 OA
ATOM     17  H3*   C A   1       7.749   6.616  18.281  0.00  0.00    +0.000 HD
ENDBRANCH   4  16
BRANCH   5  18
ATOM     18  O2*   C A   1       7.160   5.536  19.860  0.00  0.00    +0.000 OA
ATOM     19  H2*   C A   1       8.013   5.824  19.474  0.00  0.00    +0.000 HD
ENDBRANCH   5  18
BRANCH   3  20
ATOM     20  C5*   C A   1       6.256   5.131  15.150  0.00  0.00    +0.000 C 
BRANCH  20  21
ATOM     21  O5*   C A   1       7.640   5.245  14.823  0.00  0.00    +0.000 OA
ATOM     22  H5*   C A   1       7.917   4.365  14.503  0.00  0.00    +0.000 HD
ENDBRANCH  20  21
ENDBRANCH   3  20
TORSDOF 5
ENDMDL
MODEL 7
REMARK VINA RESULT:      -6.6      1.208      1.341
REMARK  Name = 
REMARK  5 active torsions:
REMARK  status: ('A' for Active; 'I' for Inactive)
REMARK    1  A    between atoms: N1_5  and  C1*_6
REMARK    2  A    between atoms: C4*_8  and  C5*_9
REMARK    3  A    between atoms: C5*_9  and  O5*_10
REMARK    4  A    between atoms: C3*_11  and  O3*_12
REMARK    5  A    between atoms: C2*_13  and  O2*_14
REMARK                            x       y       z     vdW  Elec       q    Type
REMARK                         _______ _______ _______ _____ _____    ______ ____
ROOT
ATOM      1  C1*   C A   1       5.432   4.065  18.628  0.00  0.00    +0.000 C 
ATOM      2  O4*   C A   1       6.069   5.276  19.087  0.00  0.00    +0.000 OA
ATOM      3  C4*   C A   1       6.245   6.143  17.937  0.00  0.00    +0.000 C 
ATOM      4  C3*   C A   1       6.199   5.233  16.713  0.00  0.00    +0.000 C 
ATOM      5  C2*   C A   1       5.170   4.189  17.116  0.00  0.00    +0.000 C 
ENDROOT
BRANCH   1  10
ATOM      6  N4    C A   1       1.163   2.881  21.922  0.00  0.00    +0.000 N 
ATOM      7  C4    C A   1       2.206   3.169  21.084  0.00  0.00    +0.000 A 
ATOM      8  C5    C A   1       2.157   4.397  20.269  0.00  0.00    +0.000 A 
ATOM      9  C6    C A   1       3.211   4.616  19.488  0.00  0.00    +0.000 A 
ATOM     10  N1    C A   1       4.273   3.737  19.449  0.00  0.00    +0.000 N 
ATOM     11  C2    C A   1       4.286   2.587  20.243  0.00  0.00    +0.000 A 
ATOM     12  O2    C A   1       5.248   1.820  20.239  0.00  0.00    +0.000 OA
ATOM     13  N3    C A   1       3.202   2.340  21.057  0.00  0.00    +0.000 NA
ATOM     14  H41   C A   1       0.652   3.660  22.319  0.00  0.00    +0.000 HD
ATOM     15  H42   C A   1       1.400   2.164  22.601  0.00  0.00    +0.000 HD
ENDBRANCH   1  10
BRANCH   4  16
ATOM     16  O3*   C A   1       7.446   4.559  16.455  0.00  0.00    +0.000 OA
ATOM     17  H3*   C A   1       7.320   3.602  16.589  0.00  0.00    +0.000 HD
ENDBRANCH   4  16
BRANCH   5  18
ATOM     18  O2*   C A   1       5.384   2.950  16.434  0.00  0.00    +0.000 OA
ATOM     19  H2*   C A   1       5.871   2.377  17.062  0.00  0.00    +0.000 HD
ENDBRANCH   5  18
BRANCH   3  20
ATOM     20  C5*   C A   1       7.559   6.911  18.090  0.00  0.00    +0.000 C 
BRANCH  20  21
ATOM     21  O5*   C A   1       7.952   7.479  16.842  0.00  0.00    +0.000 OA
ATOM     22  H5*   C A   1       8.915   7.336  16.770  0.00  0.00    +0.000 HD
ENDBRANCH  20  21
ENDBRANCH   3  20
TORSDOF 5
ENDMDL
MODEL 8
REMARK VINA RESULT:      -6.6      3.053      5.626
REMARK  Name = 
REMARK  5 active torsions:
REMARK  status: ('A' for Active; 'I' for Inactive)
REMARK    1  A    between atoms: N1_5  and  C1*_6
REMARK    2  A    between atoms: C4*_8  and  C5*_9
REMARK    3  A    between atoms: C5*_9  and  O5*_10
REMARK    4  A    between atoms: C3*_11  and  O3*_12
REMARK    5  A    between atoms: C2*_13  and  O2*_14
REMARK                            x       y       z     vdW  Elec       q    Type
REMARK                         _______ _______ _______ _____ _____    ______ ____
ROOT
ATOM      1  C1*   C A   1       3.109   4.626  18.262  0.00  0.00    +0.000 C 
ATOM      2  O4*   C A   1       3.634   4.281  19.561  0.00  0.00    +0.000 OA
ATOM      3  C4*   C A   1       2.939   3.090  20.014  0.00  0.00    +0.000 C 
ATOM      4  C3*   C A   1       1.635   3.039  19.224  0.00  0.00    +0.000 C 
ATOM      5  C2*   C A   1       2.049   3.582  17.866  0.00  0.00    +0.000 C 
ENDROOT
BRANCH   1  10
ATOM      6  N4    C A   1       7.318   5.474  14.792  0.00  0.00    +0.000 N 
ATOM      7  C4    C A   1       6.259   5.257  15.631  0.00  0.00    +0.000 A 
ATOM      8  C5    C A   1       5.831   3.872  15.905  0.00  0.00    +0.000 A 
ATOM      9  C6    C A   1       4.803   3.738  16.739  0.00  0.00    +0.000 A 
ATOM     10  N1    C A   1       4.184   4.836  17.299  0.00  0.00    +0.000 N 
ATOM     11  C2    C A   1       4.625   6.133  17.022  0.00  0.00    +0.000 A 
ATOM     12  O2    C A   1       4.099   7.112  17.549  0.00  0.00    +0.000 OA
ATOM     13  N3    C A   1       5.687   6.293  16.158  0.00  0.00    +0.000 NA
ATOM     14  H41   C A   1       8.043   4.768  14.758  0.00  0.00    +0.000 HD
ATOM     15  H42   C A   1       7.679   6.422  14.863  0.00  0.00    +0.000 HD
ENDBRANCH   1  10
BRANCH   4  16
ATOM     16  O3*   C A   1       0.609   3.897  19.758  0.00  0.00    +0.000 OA
ATOM     17  H3*   C A   1       0.939   4.311  20.576  0.00  0.00    +0.000 HD
ENDBRANCH   4  16
BRANCH   5  18
ATOM     18  O2*   C A   1       0.944   4.177  17.178  0.00  0.00    +0.000 OA
ATOM     19  H2*   C A   1       0.831   3.660  16.354  0.00  0.00    +0.000 HD
ENDBRANCH   5  18
BRANCH   3  20
ATOM     20  C5*   C A   1       2.744   3.175  21.528  0.00  0.00    +0.000 C 
BRANCH  20  21
ATOM     21  O5*   C A   1       1.624   2.389  21.930  0.00  0.00    +0.000 OA
ATOM     22  H5*   C A   1       0.835   2.946  21.787  0.00  0.00    +0.000 HD
ENDBRANCH  20  21
ENDBRANCH   3  20
TORSDOF 5
ENDMDL
MODEL 9
REMARK VINA RESULT:      -6.6      2.315      3.114
REMARK  Name = 
REMARK  5 active torsions:
REMARK  status: ('A' for Active; 'I' for Inactive)
REMARK    1  A    between atoms: N1_5  and  C1*_6
REMARK    2  A    between atoms: C4*_8  and  C5*_9
REMARK    3  A    between atoms: C5*_9  and  O5*_10
REMARK    4  A    between atoms: C3*_11  and  O3*_12
REMARK    5  A    between atoms: C2*_13  and  O2*_14
REMARK                            x       y       z     vdW  Elec       q    Type
REMARK                         _______ _______ _______ _____ _____    ______ ____
ROOT
ATOM      1  C1*   C A   1       3.730   5.039  17.347  0.00  0.00    +0.000 C 
ATOM      2  O4*   C A   1       4.694   4.105  16.817  0.00  0.00    +0.000 OA
ATOM      3  C4*   C A   1       5.967   4.796  16.718  0.00  0.00    +0.000 C 
ATOM      4  C3*   C A   1       5.636   6.285  16.687  0.00  0.00    +0.000 C 
ATOM      5  C2*   C A   1       4.440   6.377  17.621  0.00  0.00    +0.000 C 
ENDROOT
BRANCH   1  10
ATOM      6  N4    C A   1       0.996   2.652  21.507  0.00  0.00    +0.000 N 
ATOM      7  C4    C A   1       1.673   3.268  20.489  0.00  0.00    +0.000 A 
ATOM      8  C5    C A   1       3.072   3.682  20.702  0.00  0.00    +0.000 A 
ATOM      9  C6    C A   1       3.669   4.263  19.665  0.00  0.00    +0.000 A 
ATOM     10  N1    C A   1       3.004   4.462  18.473  0.00  0.00    +0.000 N 
ATOM     11  C2    C A   1       1.680   4.048  18.306  0.00  0.00    +0.000 A 
ATOM     12  O2    C A   1       1.096   4.191  17.233  0.00  0.00    +0.000 OA
ATOM     13  N3    C A   1       1.043   3.447  19.371  0.00  0.00    +0.000 NA
ATOM     14  H41   C A   1       1.534   2.091  22.156  0.00  0.00    +0.000 HD
ATOM     15  H42   C A   1       0.146   2.197  21.186  0.00  0.00    +0.000 HD
ENDBRANCH   1  10
BRANCH   4  16
ATOM     16  O3*   C A   1       5.228   6.752  15.387  0.00  0.00    +0.000 OA
ATOM     17  H3*   C A   1       4.256   6.822  15.368  0.00  0.00    +0.000 HD
ENDBRANCH   4  16
BRANCH   5  18
ATOM     18  O2*   C A   1       3.609   7.497  17.302  0.00  0.00    +0.000 OA
ATOM     19  H2*   C A   1       4.177   8.120  16.802  0.00  0.00    +0.000 HD
ENDBRANCH   5  18
BRANCH   3  20
ATOM     20  C5*   C A   1       6.707   4.299  15.476  0.00  0.00    +0.000 C 
BRANCH  20  21
ATOM     21  O5*   C A   1       7.576   5.313  14.975  0.00  0.00    +0.000 OA
ATOM     22  H5*   C A   1       7.841   5.849  15.747  0.00  0.00    +0.000 HD
ENDBRANCH  20  21
ENDBRANCH   3  20
TORSDOF 5
ENDMDL
