MODEL 1
REMARK VINA RESULT:      -8.5      0.000      0.000
REMARK  Name = 
REMARK  5 active torsions:
REMARK  status: ('A' for Active; 'I' for Inactive)
REMARK    1  A    between atoms: C_2  and  C_4
REMARK    2  A    between atoms: C_4  and  C_5
REMARK    3  A    between atoms: C_4  and  C_18
REMARK    4  A    between atoms: C_8  and  S_9
REMARK    5  A    between atoms: S_9  and  C_10
REMARK                            x       y       z     vdW  Elec       q    Type
REMARK                         _______ _______ _______ _____ _____    ______ ____
ROOT
ATOM      1  C   UNL     1       5.894   5.535  18.191  0.00  0.00    +0.000 C 
ENDROOT
BRANCH   1   2
ATOM      2  C   UNL     1       4.600   4.893  18.708  0.00  0.00    +0.000 A 
ATOM      3  C   UNL     1       4.596   3.601  19.270  0.00  0.00    +0.000 A 
ATOM      4  C   UNL     1       3.428   3.040  19.798  0.00  0.00    +0.000 A 
ATOM      5  C   UNL     1       2.238   3.754  19.760  0.00  0.00    +0.000 A 
ATOM      6 CL   UNL     1       0.807   3.071  20.428  0.00  0.00    +0.000 Cl
ATOM      7  C   UNL     1       2.200   5.020  19.186  0.00  0.00    +0.000 A 
ATOM      8  C   UNL     1       3.368   5.582  18.658  0.00  0.00    +0.000 A 
ATOM      9 CL   UNL     1       3.225   7.158  17.961  0.00  0.00    +0.000 Cl
ENDBRANCH   1   2
BRANCH   1  10
ATOM     10  C   UNL     1       6.176   5.385  16.711  0.00  0.00    +0.000 A 
ATOM     11  C   UNL     1       5.399   4.629  15.844  0.00  0.00    +0.000 A 
ATOM     12  C   UNL     1       5.799   4.500  14.511  0.00  0.00    +0.000 A 
ATOM     13  C   UNL     1       6.967   5.119  14.098  0.00  0.00    +0.000 A 
ATOM     14  N   UNL     1       7.704   5.851  14.957  0.00  0.00    +0.000 NA
ATOM     15  N   UNL     1       7.310   5.979  16.268  0.00  0.00    +0.000 NA
BRANCH  13  16
ATOM     16  S   UNL     1       7.511   5.034  12.410  0.00  0.00    +0.000 S 
BRANCH  16  17
ATOM     17  C   UNL     1       6.738   3.529  11.842  0.00  0.00    +0.000 A 
ATOM     18  C   UNL     1       7.549   2.443  11.490  0.00  0.00    +0.000 A 
ATOM     19  C   UNL     1       6.983   1.237  11.073  0.00  0.00    +0.000 A 
ATOM     20  C   UNL     1       5.597   1.101  11.013  0.00  0.00    +0.000 A 
ATOM     21  C   UNL     1       4.780   2.170  11.378  0.00  0.00    +0.000 A 
ATOM     22  C   UNL     1       5.347   3.378  11.795  0.00  0.00    +0.000 A 
ENDBRANCH  16  17
ENDBRANCH  13  16
ENDBRANCH   1  10
BRANCH   1  24
ATOM     23  N   UNL     1       8.017   4.287  18.347  0.00  0.00    +0.000 N 
ATOM     24  C   UNL     1       7.145   5.132  18.985  0.00  0.00    +0.000 C 
ATOM     25  O   UNL     1       7.412   5.541  20.113  0.00  0.00    +0.000 OA
ATOM     26  H   UNL     1       8.797   3.947  18.895  0.00  0.00    +0.000 HD
ATOM     27  H   UNL     1       7.741   3.738  17.543  0.00  0.00    +0.000 HD
ENDBRANCH   1  24
TORSDOF 5
ENDMDL
MODEL 2
REMARK VINA RESULT:      -8.1      5.815      7.973
REMARK  Name = 
REMARK  5 active torsions:
REMARK  status: ('A' for Active; 'I' for Inactive)
REMARK    1  A    between atoms: C_2  and  C_4
REMARK    2  A    between atoms: C_4  and  C_5
REMARK    3  A    between atoms: C_4  and  C_18
REMARK    4  A    between atoms: C_8  and  S_9
REMARK    5  A    between atoms: S_9  and  C_10
REMARK                            x       y       z     vdW  Elec       q    Type
REMARK                         _______ _______ _______ _____ _____    ______ ____
ROOT
ATOM      1  C   UNL     1       0.706   9.962  20.174  0.00  0.00    +0.000 C 
ENDROOT
BRANCH   1   2
ATOM      2  C   UNL     1      -0.558  10.452  19.455  0.00  0.00    +0.000 A 
ATOM      3  C   UNL     1      -1.136   9.716  18.402  0.00  0.00    +0.000 A 
ATOM      4  C   UNL     1      -2.323  10.130  17.788  0.00  0.00    +0.000 A 
ATOM      5  C   UNL     1      -2.947  11.298  18.206  0.00  0.00    +0.000 A 
ATOM      6 CL   UNL     1      -4.417  11.796  17.465  0.00  0.00    +0.000 Cl
ATOM      7  C   UNL     1      -2.389  12.065  19.223  0.00  0.00    +0.000 A 
ATOM      8  C   UNL     1      -1.201  11.650  19.837  0.00  0.00    +0.000 A 
ATOM      9 CL   UNL     1      -0.578  12.667  21.088  0.00  0.00    +0.000 Cl
ENDBRANCH   1   2
BRANCH   1  10
ATOM     10  C   UNL     1       1.534   8.922  19.448  0.00  0.00    +0.000 A 
ATOM     11  C   UNL     1       1.982   9.059  18.140  0.00  0.00    +0.000 A 
ATOM     12  C   UNL     1       2.674   8.001  17.546  0.00  0.00    +0.000 A 
ATOM     13  C   UNL     1       2.881   6.840  18.274  0.00  0.00    +0.000 A 
ATOM     14  N   UNL     1       2.440   6.733  19.543  0.00  0.00    +0.000 NA
ATOM     15  N   UNL     1       1.760   7.773  20.129  0.00  0.00    +0.000 NA
BRANCH  13  16
ATOM     16  S   UNL     1       3.791   5.474  17.597  0.00  0.00    +0.000 S 
BRANCH  16  17
ATOM     17  C   UNL     1       5.475   5.915  17.991  0.00  0.00    +0.000 A 
ATOM     18  C   UNL     1       6.108   6.911  17.236  0.00  0.00    +0.000 A 
ATOM     19  C   UNL     1       7.413   7.308  17.533  0.00  0.00    +0.000 A 
ATOM     20  C   UNL     1       8.096   6.719  18.595  0.00  0.00    +0.000 A 
ATOM     21  C   UNL     1       7.470   5.738  19.364  0.00  0.00    +0.000 A 
ATOM     22  C   UNL     1       6.163   5.340  19.066  0.00  0.00    +0.000 A 
ENDBRANCH  16  17
ENDBRANCH  13  16
ENDBRANCH   1  10
BRANCH   1  24
ATOM     23  N   UNL     1      -0.513   8.531  21.773  0.00  0.00    +0.000 N 
ATOM     24  C   UNL     1       0.455   9.489  21.613  0.00  0.00    +0.000 C 
ATOM     25  O   UNL     1       1.081   9.889  22.593  0.00  0.00    +0.000 OA
ATOM     26  H   UNL     1      -0.745   8.280  22.726  0.00  0.00    +0.000 HD
ATOM     27  H   UNL     1      -1.210   8.349  21.062  0.00  0.00    +0.000 HD
ENDBRANCH   1  24
TORSDOF 5
ENDMDL
MODEL 3
REMARK VINA RESULT:      -8.0      6.645      8.792
REMARK  Name = 
REMARK  5 active torsions:
REMARK  status: ('A' for Active; 'I' for Inactive)
REMARK    1  A    between atoms: C_2  and  C_4
REMARK    2  A    between atoms: C_4  and  C_5
REMARK    3  A    between atoms: C_4  and  C_18
REMARK    4  A    between atoms: C_8  and  S_9
REMARK    5  A    between atoms: S_9  and  C_10
REMARK                            x       y       z     vdW  Elec       q    Type
REMARK                         _______ _______ _______ _____ _____    ______ ____
ROOT
ATOM      1  C   UNL     1       0.337  10.884  19.499  0.00  0.00    +0.000 C 
ENDROOT
BRANCH   1   2
ATOM      2  C   UNL     1      -1.081  10.940  18.917  0.00  0.00    +0.000 A 
ATOM      3  C   UNL     1      -1.638   9.841  18.234  0.00  0.00    +0.000 A 
ATOM      4  C   UNL     1      -2.954   9.870  17.758  0.00  0.00    +0.000 A 
ATOM      5  C   UNL     1      -3.732  11.005  17.941  0.00  0.00    +0.000 A 
ATOM      6 CL   UNL     1      -5.355  11.032  17.373  0.00  0.00    +0.000 Cl
ATOM      7  C   UNL     1      -3.204  12.119  18.584  0.00  0.00    +0.000 A 
ATOM      8  C   UNL     1      -1.888  12.091  19.061  0.00  0.00    +0.000 A 
ATOM      9 CL   UNL     1      -1.315  13.522  19.844  0.00  0.00    +0.000 Cl
ENDBRANCH   1   2
BRANCH   1  10
ATOM     10  C   UNL     1       1.181   9.690  19.105  0.00  0.00    +0.000 A 
ATOM     11  C   UNL     1       1.710   9.496  17.835  0.00  0.00    +0.000 A 
ATOM     12  C   UNL     1       2.409   8.318  17.565  0.00  0.00    +0.000 A 
ATOM     13  C   UNL     1       2.544   7.370  18.566  0.00  0.00    +0.000 A 
ATOM     14  N   UNL     1       2.026   7.583  19.793  0.00  0.00    +0.000 NA
ATOM     15  N   UNL     1       1.337   8.742  20.061  0.00  0.00    +0.000 NA
BRANCH  13  16
ATOM     16  S   UNL     1       3.458   5.871  18.305  0.00  0.00    +0.000 S 
BRANCH  16  17
ATOM     17  C   UNL     1       2.538   4.696  19.284  0.00  0.00    +0.000 A 
ATOM     18  C   UNL     1       2.820   4.586  20.651  0.00  0.00    +0.000 A 
ATOM     19  C   UNL     1       2.101   3.703  21.459  0.00  0.00    +0.000 A 
ATOM     20  C   UNL     1       1.083   2.927  20.907  0.00  0.00    +0.000 A 
ATOM     21  C   UNL     1       0.782   3.040  19.550  0.00  0.00    +0.000 A 
ATOM     22  C   UNL     1       1.503   3.924  18.742  0.00  0.00    +0.000 A 
ENDBRANCH  16  17
ENDBRANCH  13  16
ENDBRANCH   1  10
BRANCH   1  24
ATOM     23  N   UNL     1      -0.472  10.266  21.746  0.00  0.00    +0.000 N 
ATOM     24  C   UNL     1       0.388  11.053  21.025  0.00  0.00    +0.000 C 
ATOM     25  O   UNL     1       1.158  11.810  21.613  0.00  0.00    +0.000 OA
ATOM     26  H   UNL     1      -0.508  10.435  22.744  0.00  0.00    +0.000 HD
ATOM     27  H   UNL     1      -1.276   9.820  21.323  0.00  0.00    +0.000 HD
ENDBRANCH   1  24
TORSDOF 5
ENDMDL
MODEL 4
REMARK VINA RESULT:      -8.0      6.012      8.177
REMARK  Name = 
REMARK  5 active torsions:
REMARK  status: ('A' for Active; 'I' for Inactive)
REMARK    1  A    between atoms: C_2  and  C_4
REMARK    2  A    between atoms: C_4  and  C_5
REMARK    3  A    between atoms: C_4  and  C_18
REMARK    4  A    between atoms: C_8  and  S_9
REMARK    5  A    between atoms: S_9  and  C_10
REMARK                            x       y       z     vdW  Elec       q    Type
REMARK                         _______ _______ _______ _____ _____    ______ ____
ROOT
ATOM      1  C   UNL     1       0.489  10.225  20.062  0.00  0.00    +0.000 C 
ENDROOT
BRANCH   1   2
ATOM      2  C   UNL     1      -0.793  10.596  19.307  0.00  0.00    +0.000 A 
ATOM      3  C   UNL     1      -1.292   9.788  18.266  0.00  0.00    +0.000 A 
ATOM      4  C   UNL     1      -2.495  10.092  17.619  0.00  0.00    +0.000 A 
ATOM      5  C   UNL     1      -3.215  11.220  17.990  0.00  0.00    +0.000 A 
ATOM      6 CL   UNL     1      -4.703  11.582  17.208  0.00  0.00    +0.000 Cl
ATOM      7  C   UNL     1      -2.737  12.056  18.993  0.00  0.00    +0.000 A 
ATOM      8  C   UNL     1      -1.534  11.752  19.641  0.00  0.00    +0.000 A 
ATOM      9 CL   UNL     1      -1.016  12.849  20.872  0.00  0.00    +0.000 Cl
ENDBRANCH   1   2
BRANCH   1  10
ATOM     10  C   UNL     1       1.390   9.204  19.400  0.00  0.00    +0.000 A 
ATOM     11  C   UNL     1       1.839   9.296  18.089  0.00  0.00    +0.000 A 
ATOM     12  C   UNL     1       2.605   8.255  17.560  0.00  0.00    +0.000 A 
ATOM     13  C   UNL     1       2.882   7.153  18.353  0.00  0.00    +0.000 A 
ATOM     14  N   UNL     1       2.439   7.088  19.624  0.00  0.00    +0.000 NA
ATOM     15  N   UNL     1       1.686   8.113  20.147  0.00  0.00    +0.000 NA
BRANCH  13  16
ATOM     16  S   UNL     1       3.886   5.815  17.759  0.00  0.00    +0.000 S 
BRANCH  16  17
ATOM     17  C   UNL     1       3.019   4.388  18.390  0.00  0.00    +0.000 A 
ATOM     18  C   UNL     1       3.616   3.627  19.403  0.00  0.00    +0.000 A 
ATOM     19  C   UNL     1       2.957   2.523  19.946  0.00  0.00    +0.000 A 
ATOM     20  C   UNL     1       1.687   2.174  19.489  0.00  0.00    +0.000 A 
ATOM     21  C   UNL     1       1.076   2.935  18.492  0.00  0.00    +0.000 A 
ATOM     22  C   UNL     1       1.737   4.040  17.947  0.00  0.00    +0.000 A 
ENDBRANCH  16  17
ENDBRANCH  13  16
ENDBRANCH   1  10
BRANCH   1  24
ATOM     23  N   UNL     1      -0.635   8.787  21.722  0.00  0.00    +0.000 N 
ATOM     24  C   UNL     1       0.251   9.813  21.522  0.00  0.00    +0.000 C 
ATOM     25  O   UNL     1       0.820  10.320  22.487  0.00  0.00    +0.000 OA
ATOM     26  H   UNL     1      -0.865   8.569  22.684  0.00  0.00    +0.000 HD
ATOM     27  H   UNL     1      -1.300   8.505  21.012  0.00  0.00    +0.000 HD
ENDBRANCH   1  24
TORSDOF 5
ENDMDL
MODEL 5
REMARK VINA RESULT:      -7.7      8.468     11.674
REMARK  Name = 
REMARK  5 active torsions:
REMARK  status: ('A' for Active; 'I' for Inactive)
REMARK    1  A    between atoms: C_2  and  C_4
REMARK    2  A    between atoms: C_4  and  C_5
REMARK    3  A    between atoms: C_4  and  C_18
REMARK    4  A    between atoms: C_8  and  S_9
REMARK    5  A    between atoms: S_9  and  C_10
REMARK                            x       y       z     vdW  Elec       q    Type
REMARK                         _______ _______ _______ _____ _____    ______ ____
ROOT
ATOM      1  C   UNL     1       0.318  10.667  19.570  0.00  0.00    +0.000 C 
ENDROOT
BRANCH   1   2
ATOM      2  C   UNL     1       1.149   9.433  19.201  0.00  0.00    +0.000 A 
ATOM      3  C   UNL     1       1.755   9.307  17.935  0.00  0.00    +0.000 A 
ATOM      4  C   UNL     1       2.565   8.211  17.620  0.00  0.00    +0.000 A 
ATOM      5  C   UNL     1       2.772   7.209  18.560  0.00  0.00    +0.000 A 
ATOM      6 CL   UNL     1       3.784   5.872  18.178  0.00  0.00    +0.000 Cl
ATOM      7  C   UNL     1       2.165   7.286  19.808  0.00  0.00    +0.000 A 
ATOM      8  C   UNL     1       1.355   8.384  20.124  0.00  0.00    +0.000 A 
ATOM      9 CL   UNL     1       0.640   8.393  21.698  0.00  0.00    +0.000 Cl
ENDBRANCH   1   2
BRANCH   1  10
ATOM     10  C   UNL     1      -1.043  10.784  18.916  0.00  0.00    +0.000 A 
ATOM     11  C   UNL     1      -1.462  10.002  17.847  0.00  0.00    +0.000 A 
ATOM     12  C   UNL     1      -2.711  10.250  17.274  0.00  0.00    +0.000 A 
ATOM     13  C   UNL     1      -3.491  11.277  17.780  0.00  0.00    +0.000 A 
ATOM     14  N   UNL     1      -3.065  12.019  18.822  0.00  0.00    +0.000 NA
ATOM     15  N   UNL     1      -1.836  11.776  19.387  0.00  0.00    +0.000 NA
BRANCH  13  16
ATOM     16  S   UNL     1      -5.108  11.618  17.130  0.00  0.00    +0.000 S 
BRANCH  16  17
ATOM     17  C   UNL     1      -6.149  11.343  18.552  0.00  0.00    +0.000 A 
ATOM     18  C   UNL     1      -6.498  10.030  18.892  0.00  0.00    +0.000 A 
ATOM     19  C   UNL     1      -7.284   9.769  20.016  0.00  0.00    +0.000 A 
ATOM     20  C   UNL     1      -7.721  10.821  20.820  0.00  0.00    +0.000 A 
ATOM     21  C   UNL     1      -7.365  12.131  20.501  0.00  0.00    +0.000 A 
ATOM     22  C   UNL     1      -6.579  12.392  19.374  0.00  0.00    +0.000 A 
ENDBRANCH  16  17
ENDBRANCH  13  16
ENDBRANCH   1  10
BRANCH   1  24
ATOM     23  N   UNL     1       0.864  12.658  18.219  0.00  0.00    +0.000 N 
ATOM     24  C   UNL     1       1.071  11.995  19.400  0.00  0.00    +0.000 C 
ATOM     25  O   UNL     1       1.801  12.492  20.256  0.00  0.00    +0.000 OA
ATOM     26  H   UNL     1       1.425  13.487  18.063  0.00  0.00    +0.000 HD
ATOM     27  H   UNL     1       0.484  12.196  17.402  0.00  0.00    +0.000 HD
ENDBRANCH   1  24
TORSDOF 5
ENDMDL
MODEL 6
REMARK VINA RESULT:      -7.6      6.972      9.494
REMARK  Name = 
REMARK  5 active torsions:
REMARK  status: ('A' for Active; 'I' for Inactive)
REMARK    1  A    between atoms: C_2  and  C_4
REMARK    2  A    between atoms: C_4  and  C_5
REMARK    3  A    between atoms: C_4  and  C_18
REMARK    4  A    between atoms: C_8  and  S_9
REMARK    5  A    between atoms: S_9  and  C_10
REMARK                            x       y       z     vdW  Elec       q    Type
REMARK                         _______ _______ _______ _____ _____    ______ ____
ROOT
ATOM      1  C   UNL     1      -0.567  10.923  19.083  0.00  0.00    +0.000 C 
ENDROOT
BRANCH   1   2
ATOM      2  C   UNL     1      -0.073  12.371  19.183  0.00  0.00    +0.000 A 
ATOM      3  C   UNL     1       1.171  12.761  18.651  0.00  0.00    +0.000 A 
ATOM      4  C   UNL     1       1.594  14.095  18.686  0.00  0.00    +0.000 A 
ATOM      5  C   UNL     1       0.786  15.062  19.270  0.00  0.00    +0.000 A 
ATOM      6 CL   UNL     1       1.298  16.704  19.295  0.00  0.00    +0.000 Cl
ATOM      7  C   UNL     1      -0.435  14.707  19.832  0.00  0.00    +0.000 A 
ATOM      8  C   UNL     1      -0.858  13.373  19.796  0.00  0.00    +0.000 A 
ATOM      9 CL   UNL     1      -2.388  13.025  20.522  0.00  0.00    +0.000 Cl
ENDBRANCH   1   2
BRANCH   1  10
ATOM     10  C   UNL     1       0.500   9.852  18.984  0.00  0.00    +0.000 A 
ATOM     11  C   UNL     1       1.102   9.463  17.794  0.00  0.00    +0.000 A 
ATOM     12  C   UNL     1       2.020   8.410  17.812  0.00  0.00    +0.000 A 
ATOM     13  C   UNL     1       2.292   7.775  19.013  0.00  0.00    +0.000 A 
ATOM     14  N   UNL     1       1.698   8.174  20.155  0.00  0.00    +0.000 NA
ATOM     15  N   UNL     1       0.795   9.211  20.140  0.00  0.00    +0.000 NA
BRANCH  13  16
ATOM     16  S   UNL     1       3.481   6.461  19.115  0.00  0.00    +0.000 S 
BRANCH  16  17
ATOM     17  C   UNL     1       2.435   5.020  19.249  0.00  0.00    +0.000 A 
ATOM     18  C   UNL     1       1.968   4.639  20.514  0.00  0.00    +0.000 A 
ATOM     19  C   UNL     1       1.121   3.539  20.658  0.00  0.00    +0.000 A 
ATOM     20  C   UNL     1       0.724   2.813  19.536  0.00  0.00    +0.000 A 
ATOM     21  C   UNL     1       1.170   3.193  18.271  0.00  0.00    +0.000 A 
ATOM     22  C   UNL     1       2.019   4.295  18.126  0.00  0.00    +0.000 A 
ENDBRANCH  16  17
ENDBRANCH  13  16
ENDBRANCH   1  10
BRANCH   1  24
ATOM     23  N   UNL     1      -1.668  11.660  17.002  0.00  0.00    +0.000 N 
ATOM     24  C   UNL     1      -1.608  10.698  17.977  0.00  0.00    +0.000 C 
ATOM     25  O   UNL     1      -2.344   9.715  17.906  0.00  0.00    +0.000 OA
ATOM     26  H   UNL     1      -2.411  11.565  16.320  0.00  0.00    +0.000 HD
ATOM     27  H   UNL     1      -1.276  12.584  17.134  0.00  0.00    +0.000 HD
ENDBRANCH   1  24
TORSDOF 5
ENDMDL
MODEL 7
REMARK VINA RESULT:      -7.6      5.401      8.638
REMARK  Name = 
REMARK  5 active torsions:
REMARK  status: ('A' for Active; 'I' for Inactive)
REMARK    1  A    between atoms: C_2  and  C_4
REMARK    2  A    between atoms: C_4  and  C_5
REMARK    3  A    between atoms: C_4  and  C_18
REMARK    4  A    between atoms: C_8  and  S_9
REMARK    5  A    between atoms: S_9  and  C_10
REMARK                            x       y       z     vdW  Elec       q    Type
REMARK                         _______ _______ _______ _____ _____    ______ ____
ROOT
ATOM      1  C   UNL     1       3.064   5.695  18.457  0.00  0.00    +0.000 C 
ENDROOT
BRANCH   1   2
ATOM      2  C   UNL     1       4.009   5.484  17.267  0.00  0.00    +0.000 A 
ATOM      3  C   UNL     1       4.666   6.566  16.650  0.00  0.00    +0.000 A 
ATOM      4  C   UNL     1       5.576   6.368  15.606  0.00  0.00    +0.000 A 
ATOM      5  C   UNL     1       5.834   5.083  15.147  0.00  0.00    +0.000 A 
ATOM      6 CL   UNL     1       6.967   4.838  13.877  0.00  0.00    +0.000 Cl
ATOM      7  C   UNL     1       5.180   3.994  15.713  0.00  0.00    +0.000 A 
ATOM      8  C   UNL     1       4.270   4.192  16.758  0.00  0.00    +0.000 A 
ATOM      9 CL   UNL     1       3.503   2.781  17.398  0.00  0.00    +0.000 Cl
ENDBRANCH   1   2
BRANCH   1  10
ATOM     10  C   UNL     1       2.430   7.065  18.579  0.00  0.00    +0.000 A 
ATOM     11  C   UNL     1       2.376   7.992  17.547  0.00  0.00    +0.000 A 
ATOM     12  C   UNL     1       1.834   9.255  17.797  0.00  0.00    +0.000 A 
ATOM     13  C   UNL     1       1.380   9.551  19.072  0.00  0.00    +0.000 A 
ATOM     14  N   UNL     1       1.439   8.633  20.057  0.00  0.00    +0.000 NA
ATOM     15  N   UNL     1       1.971   7.390  19.812  0.00  0.00    +0.000 NA
BRANCH  13  16
ATOM     16  S   UNL     1       0.640  11.120  19.449  0.00  0.00    +0.000 S 
BRANCH  16  17
ATOM     17  C   UNL     1      -0.996  10.938  18.758  0.00  0.00    +0.000 A 
ATOM     18  C   UNL     1      -2.014  11.794  19.196  0.00  0.00    +0.000 A 
ATOM     19  C   UNL     1      -3.299  11.707  18.657  0.00  0.00    +0.000 A 
ATOM     20  C   UNL     1      -3.576  10.768  17.665  0.00  0.00    +0.000 A 
ATOM     21  C   UNL     1      -2.566   9.922  17.209  0.00  0.00    +0.000 A 
ATOM     22  C   UNL     1      -1.279  10.009  17.749  0.00  0.00    +0.000 A 
ENDBRANCH  16  17
ENDBRANCH  13  16
ENDBRANCH   1  10
BRANCH   1  24
ATOM     23  N   UNL     1       2.793   4.862  20.764  0.00  0.00    +0.000 N 
ATOM     24  C   UNL     1       3.674   5.301  19.810  0.00  0.00    +0.000 C 
ATOM     25  O   UNL     1       4.878   5.329  20.062  0.00  0.00    +0.000 OA
ATOM     26  H   UNL     1       3.176   4.686  21.684  0.00  0.00    +0.000 HD
ATOM     27  H   UNL     1       1.799   5.046  20.702  0.00  0.00    +0.000 HD
ENDBRANCH   1  24
TORSDOF 5
ENDMDL
MODEL 8
REMARK VINA RESULT:      -7.6      8.578     11.779
REMARK  Name = 
REMARK  5 active torsions:
REMARK  status: ('A' for Active; 'I' for Inactive)
REMARK    1  A    between atoms: C_2  and  C_4
REMARK    2  A    between atoms: C_4  and  C_5
REMARK    3  A    between atoms: C_4  and  C_18
REMARK    4  A    between atoms: C_8  and  S_9
REMARK    5  A    between atoms: S_9  and  C_10
REMARK                            x       y       z     vdW  Elec       q    Type
REMARK                         _______ _______ _______ _____ _____    ______ ____
ROOT
ATOM      1  C   UNL     1       0.241  10.908  19.243  0.00  0.00    +0.000 C 
ENDROOT
BRANCH   1   2
ATOM      2  C   UNL     1       0.971   9.561  19.179  0.00  0.00    +0.000 A 
ATOM      3  C   UNL     1       1.548   9.095  17.981  0.00  0.00    +0.000 A 
ATOM      4  C   UNL     1       2.269   7.897  17.936  0.00  0.00    +0.000 A 
ATOM      5  C   UNL     1       2.412   7.131  19.087  0.00  0.00    +0.000 A 
ATOM      6 CL   UNL     1       3.314   5.668  19.035  0.00  0.00    +0.000 Cl
ATOM      7  C   UNL     1       1.829   7.546  20.279  0.00  0.00    +0.000 A 
ATOM      8  C   UNL     1       1.109   8.746  20.324  0.00  0.00    +0.000 A 
ATOM      9 CL   UNL     1       0.418   9.179  21.848  0.00  0.00    +0.000 Cl
ENDBRANCH   1   2
BRANCH   1  10
ATOM     10  C   UNL     1      -1.167  10.939  18.686  0.00  0.00    +0.000 A 
ATOM     11  C   UNL     1      -1.592  10.178  17.604  0.00  0.00    +0.000 A 
ATOM     12  C   UNL     1      -2.895  10.346  17.128  0.00  0.00    +0.000 A 
ATOM     13  C   UNL     1      -3.720  11.275  17.739  0.00  0.00    +0.000 A 
ATOM     14  N   UNL     1      -3.286  11.999  18.790  0.00  0.00    +0.000 NA
ATOM     15  N   UNL     1      -2.005  11.835  19.260  0.00  0.00    +0.000 NA
BRANCH  13  16
ATOM     16  S   UNL     1      -5.400  11.508  17.214  0.00  0.00    +0.000 S 
BRANCH  16  17
ATOM     17  C   UNL     1      -6.314  11.104  18.693  0.00  0.00    +0.000 A 
ATOM     18  C   UNL     1      -6.723  12.142  19.539  0.00  0.00    +0.000 A 
ATOM     19  C   UNL     1      -7.468  11.872  20.688  0.00  0.00    +0.000 A 
ATOM     20  C   UNL     1      -7.820  10.560  20.999  0.00  0.00    +0.000 A 
ATOM     21  C   UNL     1      -7.432   9.520  20.155  0.00  0.00    +0.000 A 
ATOM     22  C   UNL     1      -6.685   9.790  19.004  0.00  0.00    +0.000 A 
ENDBRANCH  16  17
ENDBRANCH  13  16
ENDBRANCH   1  10
BRANCH   1  24
ATOM     23  N   UNL     1       0.306  13.116  18.142  0.00  0.00    +0.000 N 
ATOM     24  C   UNL     1       1.042  12.076  18.648  0.00  0.00    +0.000 C 
ATOM     25  O   UNL     1       2.270  12.137  18.633  0.00  0.00    +0.000 OA
ATOM     26  H   UNL     1       0.823  13.846  17.669  0.00  0.00    +0.000 HD
ATOM     27  H   UNL     1      -0.675  13.016  17.908  0.00  0.00    +0.000 HD
ENDBRANCH   1  24
TORSDOF 5
ENDMDL
MODEL 9
REMARK VINA RESULT:      -7.6      6.389      8.607
REMARK  Name = 
REMARK  5 active torsions:
REMARK  status: ('A' for Active; 'I' for Inactive)
REMARK    1  A    between atoms: C_2  and  C_4
REMARK    2  A    between atoms: C_4  and  C_5
REMARK    3  A    between atoms: C_4  and  C_18
REMARK    4  A    between atoms: C_8  and  S_9
REMARK    5  A    between atoms: S_9  and  C_10
REMARK                            x       y       z     vdW  Elec       q    Type
REMARK                         _______ _______ _______ _____ _____    ______ ____
ROOT
ATOM      1  C   UNL     1       0.777  11.211  18.871  0.00  0.00    +0.000 C 
ENDROOT
BRANCH   1   2
ATOM      2  C   UNL     1      -0.176  11.451  20.049  0.00  0.00    +0.000 A 
ATOM      3  C   UNL     1       0.236  11.244  21.380  0.00  0.00    +0.000 A 
ATOM      4  C   UNL     1      -0.613  11.523  22.458  0.00  0.00    +0.000 A 
ATOM      5  C   UNL     1      -1.896  12.000  22.223  0.00  0.00    +0.000 A 
ATOM      6 CL   UNL     1      -2.931  12.361  23.548  0.00  0.00    +0.000 Cl
ATOM      7  C   UNL     1      -2.345  12.187  20.921  0.00  0.00    +0.000 A 
ATOM      8  C   UNL     1      -1.496  11.909  19.843  0.00  0.00    +0.000 A 
ATOM      9 CL   UNL     1      -2.141  12.169  18.260  0.00  0.00    +0.000 Cl
ENDBRANCH   1   2
BRANCH   1  10
ATOM     10  C   UNL     1       1.379   9.826  18.763  0.00  0.00    +0.000 A 
ATOM     11  C   UNL     1       1.414   8.909  19.806  0.00  0.00    +0.000 A 
ATOM     12  C   UNL     1       2.065   7.688  19.615  0.00  0.00    +0.000 A 
ATOM     13  C   UNL     1       2.669   7.432  18.395  0.00  0.00    +0.000 A 
ATOM     14  N   UNL     1       2.618   8.336  17.395  0.00  0.00    +0.000 NA
ATOM     15  N   UNL     1       1.977   9.538  17.582  0.00  0.00    +0.000 NA
BRANCH  13  16
ATOM     16  S   UNL     1       3.474   5.884  18.067  0.00  0.00    +0.000 S 
BRANCH  16  17
ATOM     17  C   UNL     1       2.541   4.754  19.087  0.00  0.00    +0.000 A 
ATOM     18  C   UNL     1       2.844   4.667  20.451  0.00  0.00    +0.000 A 
ATOM     19  C   UNL     1       2.117   3.821  21.290  0.00  0.00    +0.000 A 
ATOM     20  C   UNL     1       1.071   3.058  20.773  0.00  0.00    +0.000 A 
ATOM     21  C   UNL     1       0.749   3.150  19.419  0.00  0.00    +0.000 A 
ATOM     22  C   UNL     1       1.479   3.997  18.579  0.00  0.00    +0.000 A 
ENDBRANCH  16  17
ENDBRANCH  13  16
ENDBRANCH   1  10
BRANCH   1  24
ATOM     23  N   UNL     1       2.467  12.396  17.519  0.00  0.00    +0.000 N 
ATOM     24  C   UNL     1       1.897  12.256  18.758  0.00  0.00    +0.000 C 
ATOM     25  O   UNL     1       2.273  12.972  19.684  0.00  0.00    +0.000 OA
ATOM     26  H   UNL     1       3.264  13.017  17.457  0.00  0.00    +0.000 HD
ATOM     27  H   UNL     1       2.375  11.687  16.802  0.00  0.00    +0.000 HD
ENDBRANCH   1  24
TORSDOF 5
ENDMDL
