MODEL 1
REMARK VINA RESULT:      -8.1      0.000      0.000
REMARK  Name = 
REMARK  9 active torsions:
REMARK  status: ('A' for Active; 'I' for Inactive)
REMARK    1  A    between atoms: C_1  and  C_2
REMARK    2  A    between atoms: C_2  and  C_3
REMARK    3  A    between atoms: N_5  and  C_6
REMARK    4  A    between atoms: C_10  and  N_11
REMARK    5  A    between atoms: C_15  and  S_16
REMARK    6  A    between atoms: S_16  and  C_17
REMARK    7  A    between atoms: C_17  and  C_18
REMARK    8  A    between atoms: N_20  and  C_21
REMARK    9  A    between atoms: C_21  and  C_22
REMARK                            x       y       z     vdW  Elec       q    Type
REMARK                         _______ _______ _______ _____ _____    ______ ____
ROOT
ATOM      1  N   UNL     1       3.788   3.578  18.449  0.00  0.00    +0.000 N 
ATOM      2  N   UNL     1       3.204   2.386  18.177  0.00  0.00    +0.000 NA
ATOM      3  N   UNL     1       2.193   2.273  19.025  0.00  0.00    +0.000 NA
ATOM      4  N   UNL     1       2.045   3.409  19.781  0.00  0.00    +0.000 NA
ATOM      5  C   UNL     1       3.003   4.225  19.397  0.00  0.00    +0.000 A 
ENDROOT
BRANCH   1  10
ATOM      6  C   UNL     1       6.262   4.093  15.724  0.00  0.00    +0.000 A 
ATOM      7  C   UNL     1       7.370   4.491  16.479  0.00  0.00    +0.000 A 
ATOM      8  C   UNL     1       7.271   4.697  17.853  0.00  0.00    +0.000 A 
ATOM      9  C   UNL     1       6.060   4.467  18.499  0.00  0.00    +0.000 A 
ATOM     10  C   UNL     1       4.947   4.003  17.757  0.00  0.00    +0.000 A 
ATOM     11  C   UNL     1       5.030   3.912  16.362  0.00  0.00    +0.000 A 
BRANCH   6  14
ATOM     12  C   UNL     1       7.124   4.589  13.465  0.00  0.00    +0.000 C 
ATOM     13  O   UNL     1       7.816   5.559  13.787  0.00  0.00    +0.000 OA
ATOM     14  N   UNL     1       6.360   3.827  14.336  0.00  0.00    +0.000 N 
ATOM     15  H   UNL     1       6.028   2.925  14.008  0.00  0.00    +0.000 HD
BRANCH  12  17
ATOM     16  C   UNL     1       6.315   2.799  11.937  0.00  0.00    +0.000 C 
ATOM     17  C   UNL     1       7.085   4.110  12.030  0.00  0.00    +0.000 C 
ENDBRANCH  12  17
ENDBRANCH   6  14
ENDBRANCH   1  10
BRANCH   5  18
ATOM     18  S   UNL     1       3.010   5.940  19.690  0.00  0.00    +0.000 S 
BRANCH  18  19
ATOM     19  C   UNL     1       2.540   6.666  18.103  0.00  0.00    +0.000 C 
BRANCH  19  20
ATOM     20  C   UNL     1       2.117   8.115  18.244  0.00  0.00    +0.000 C 
ATOM     21  O   UNL     1       2.193   8.918  17.315  0.00  0.00    +0.000 OA
ATOM     22  N   UNL     1       1.599   8.442  19.478  0.00  0.00    +0.000 N 
ATOM     23  H   UNL     1       1.776   7.842  20.276  0.00  0.00    +0.000 HD
BRANCH  22  24
ATOM     24  C   UNL     1       1.099   9.771  19.753  0.00  0.00    +0.000 C 
BRANCH  24  25
ATOM     25  C   UNL     1       0.573   9.819  21.136  0.00  0.00    +0.000 A 
ATOM     26  C   UNL     1       0.744   8.999  22.231  0.00  0.00    +0.000 A 
ATOM     27  C   UNL     1      -0.052   9.542  23.265  0.00  0.00    +0.000 A 
ATOM     28  C   UNL     1      -0.644  10.668  22.742  0.00  0.00    +0.000 A 
ATOM     29  O   UNL     1      -0.265  10.849  21.449  0.00  0.00    +0.000 OA
ENDBRANCH  24  25
ENDBRANCH  22  24
ENDBRANCH  19  20
ENDBRANCH  18  19
ENDBRANCH   5  18
TORSDOF 8
ENDMDL
MODEL 2
REMARK VINA RESULT:      -7.9      1.682      8.842
REMARK  Name = 
REMARK  9 active torsions:
REMARK  status: ('A' for Active; 'I' for Inactive)
REMARK    1  A    between atoms: C_1  and  C_2
REMARK    2  A    between atoms: C_2  and  C_3
REMARK    3  A    between atoms: N_5  and  C_6
REMARK    4  A    between atoms: C_10  and  N_11
REMARK    5  A    between atoms: C_15  and  S_16
REMARK    6  A    between atoms: S_16  and  C_17
REMARK    7  A    between atoms: C_17  and  C_18
REMARK    8  A    between atoms: N_20  and  C_21
REMARK    9  A    between atoms: C_21  and  C_22
REMARK                            x       y       z     vdW  Elec       q    Type
REMARK                         _______ _______ _______ _____ _____    ______ ____
ROOT
ATOM      1  N   UNL     1       2.789   5.014  18.130  0.00  0.00    +0.000 N 
ATOM      2  N   UNL     1       1.739   4.226  17.797  0.00  0.00    +0.000 NA
ATOM      3  N   UNL     1       2.252   3.045  17.487  0.00  0.00    +0.000 NA
ATOM      4  N   UNL     1       3.608   3.018  17.703  0.00  0.00    +0.000 NA
ATOM      5  C   UNL     1       3.929   4.217  18.136  0.00  0.00    +0.000 A 
ENDROOT
BRANCH   1  10
ATOM      6  C   UNL     1       1.870   8.066  20.043  0.00  0.00    +0.000 A 
ATOM      7  C   UNL     1       1.888   9.009  19.010  0.00  0.00    +0.000 A 
ATOM      8  C   UNL     1       2.308   8.668  17.727  0.00  0.00    +0.000 A 
ATOM      9  C   UNL     1       2.681   7.355  17.450  0.00  0.00    +0.000 A 
ATOM     10  C   UNL     1       2.607   6.377  18.470  0.00  0.00    +0.000 A 
ATOM     11  C   UNL     1       2.295   6.759  19.780  0.00  0.00    +0.000 A 
BRANCH   6  14
ATOM     12  C   UNL     1       0.189   9.028  21.571  0.00  0.00    +0.000 C 
ATOM     13  O   UNL     1      -0.613   9.377  20.699  0.00  0.00    +0.000 OA
ATOM     14  N   UNL     1       1.395   8.384  21.338  0.00  0.00    +0.000 N 
ATOM     15  H   UNL     1       1.853   7.939  22.127  0.00  0.00    +0.000 HD
BRANCH  12  17
ATOM     16  C   UNL     1      -0.964  10.510  23.204  0.00  0.00    +0.000 C 
ATOM     17  C   UNL     1      -0.117   9.255  23.036  0.00  0.00    +0.000 C 
ENDBRANCH  12  17
ENDBRANCH   6  14
ENDBRANCH   1  10
BRANCH   5  18
ATOM     18  S   UNL     1       5.402   4.597  18.979  0.00  0.00    +0.000 S 
BRANCH  18  19
ATOM     19  C   UNL     1       6.202   5.843  17.942  0.00  0.00    +0.000 C 
BRANCH  19  20
ATOM     20  C   UNL     1       7.098   5.217  16.891  0.00  0.00    +0.000 C 
ATOM     21  O   UNL     1       7.983   4.410  17.175  0.00  0.00    +0.000 OA
ATOM     22  N   UNL     1       6.806   5.587  15.597  0.00  0.00    +0.000 N 
ATOM     23  H   UNL     1       6.253   6.418  15.421  0.00  0.00    +0.000 HD
BRANCH  22  24
ATOM     24  C   UNL     1       7.535   5.033  14.477  0.00  0.00    +0.000 C 
BRANCH  24  25
ATOM     25  C   UNL     1       6.590   4.328  13.581  0.00  0.00    +0.000 A 
ATOM     26  C   UNL     1       5.273   3.948  13.722  0.00  0.00    +0.000 A 
ATOM     27  C   UNL     1       4.923   3.266  12.534  0.00  0.00    +0.000 A 
ATOM     28  C   UNL     1       6.044   3.288  11.736  0.00  0.00    +0.000 A 
ATOM     29  O   UNL     1       7.062   3.937  12.361  0.00  0.00    +0.000 OA
ENDBRANCH  24  25
ENDBRANCH  22  24
ENDBRANCH  19  20
ENDBRANCH  18  19
ENDBRANCH   5  18
TORSDOF 8
ENDMDL
MODEL 3
REMARK VINA RESULT:      -7.8      2.475      2.976
REMARK  Name = 
REMARK  9 active torsions:
REMARK  status: ('A' for Active; 'I' for Inactive)
REMARK    1  A    between atoms: C_1  and  C_2
REMARK    2  A    between atoms: C_2  and  C_3
REMARK    3  A    between atoms: N_5  and  C_6
REMARK    4  A    between atoms: C_10  and  N_11
REMARK    5  A    between atoms: C_15  and  S_16
REMARK    6  A    between atoms: S_16  and  C_17
REMARK    7  A    between atoms: C_17  and  C_18
REMARK    8  A    between atoms: N_20  and  C_21
REMARK    9  A    between atoms: C_21  and  C_22
REMARK                            x       y       z     vdW  Elec       q    Type
REMARK                         _______ _______ _______ _____ _____    ______ ____
ROOT
ATOM      1  N   UNL     1       3.707   5.033  19.464  0.00  0.00    +0.000 N 
ATOM      2  N   UNL     1       3.302   3.932  20.143  0.00  0.00    +0.000 NA
ATOM      3  N   UNL     1       2.226   4.298  20.823  0.00  0.00    +0.000 NA
ATOM      4  N   UNL     1       1.863   5.589  20.528  0.00  0.00    +0.000 NA
ATOM      5  C   UNL     1       2.752   6.024  19.661  0.00  0.00    +0.000 A 
ENDROOT
BRANCH   1  10
ATOM      6  C   UNL     1       6.021   4.334  16.640  0.00  0.00    +0.000 A 
ATOM      7  C   UNL     1       7.241   4.636  17.252  0.00  0.00    +0.000 A 
ATOM      8  C   UNL     1       7.293   5.170  18.537  0.00  0.00    +0.000 A 
ATOM      9  C   UNL     1       6.113   5.374  19.246  0.00  0.00    +0.000 A 
ATOM     10  C   UNL     1       4.874   5.015  18.663  0.00  0.00    +0.000 A 
ATOM     11  C   UNL     1       4.830   4.588  17.331  0.00  0.00    +0.000 A 
BRANCH   6  14
ATOM     12  C   UNL     1       6.419   4.358  14.205  0.00  0.00    +0.000 C 
ATOM     13  O   UNL     1       6.957   5.468  14.159  0.00  0.00    +0.000 OA
ATOM     14  N   UNL     1       5.954   3.740  15.356  0.00  0.00    +0.000 N 
ATOM     15  H   UNL     1       5.752   2.746  15.310  0.00  0.00    +0.000 HD
BRANCH  12  17
ATOM     16  C   UNL     1       7.177   4.048  11.855  0.00  0.00    +0.000 C 
ATOM     17  C   UNL     1       6.253   3.529  12.949  0.00  0.00    +0.000 C 
ENDBRANCH  12  17
ENDBRANCH   6  14
ENDBRANCH   1  10
BRANCH   5  18
ATOM     18  S   UNL     1       2.523   7.403  18.625  0.00  0.00    +0.000 S 
BRANCH  18  19
ATOM     19  C   UNL     1       1.595   8.576  19.641  0.00  0.00    +0.000 C 
BRANCH  19  20
ATOM     20  C   UNL     1       1.226   9.828  18.870  0.00  0.00    +0.000 C 
ATOM     21  O   UNL     1       1.983  10.342  18.046  0.00  0.00    +0.000 OA
ATOM     22  N   UNL     1      -0.038  10.309  19.131  0.00  0.00    +0.000 N 
ATOM     23  H   UNL     1      -0.526  10.019  19.971  0.00  0.00    +0.000 HD
BRANCH  22  24
ATOM     24  C   UNL     1      -0.558  11.465  18.433  0.00  0.00    +0.000 C 
BRANCH  24  25
ATOM     25  C   UNL     1      -1.896  11.143  17.887  0.00  0.00    +0.000 A 
ATOM     26  C   UNL     1      -2.319  10.307  16.876  0.00  0.00    +0.000 A 
ATOM     27  C   UNL     1      -3.722  10.456  16.792  0.00  0.00    +0.000 A 
ATOM     28  C   UNL     1      -4.069  11.360  17.769  0.00  0.00    +0.000 A 
ATOM     29  O   UNL     1      -2.967  11.779  18.445  0.00  0.00    +0.000 OA
ENDBRANCH  24  25
ENDBRANCH  22  24
ENDBRANCH  19  20
ENDBRANCH  18  19
ENDBRANCH   5  18
TORSDOF 8
ENDMDL
MODEL 4
REMARK VINA RESULT:      -7.8      2.392      3.263
REMARK  Name = 
REMARK  9 active torsions:
REMARK  status: ('A' for Active; 'I' for Inactive)
REMARK    1  A    between atoms: C_1  and  C_2
REMARK    2  A    between atoms: C_2  and  C_3
REMARK    3  A    between atoms: N_5  and  C_6
REMARK    4  A    between atoms: C_10  and  N_11
REMARK    5  A    between atoms: C_15  and  S_16
REMARK    6  A    between atoms: S_16  and  C_17
REMARK    7  A    between atoms: C_17  and  C_18
REMARK    8  A    between atoms: N_20  and  C_21
REMARK    9  A    between atoms: C_21  and  C_22
REMARK                            x       y       z     vdW  Elec       q    Type
REMARK                         _______ _______ _______ _____ _____    ______ ____
ROOT
ATOM      1  N   UNL     1       4.940   3.922  18.236  0.00  0.00    +0.000 N 
ATOM      2  N   UNL     1       5.922   4.015  19.165  0.00  0.00    +0.000 NA
ATOM      3  N   UNL     1       5.447   3.438  20.258  0.00  0.00    +0.000 NA
ATOM      4  N   UNL     1       4.210   2.885  20.033  0.00  0.00    +0.000 NA
ATOM      5  C   UNL     1       3.919   3.149  18.779  0.00  0.00    +0.000 A 
ENDROOT
BRANCH   1  10
ATOM      6  C   UNL     1       5.925   4.349  14.677  0.00  0.00    +0.000 A 
ATOM      7  C   UNL     1       5.730   5.727  14.540  0.00  0.00    +0.000 A 
ATOM      8  C   UNL     1       5.175   6.484  15.567  0.00  0.00    +0.000 A 
ATOM      9  C   UNL     1       4.840   5.872  16.772  0.00  0.00    +0.000 A 
ATOM     10  C   UNL     1       5.090   4.490  16.948  0.00  0.00    +0.000 A 
ATOM     11  C   UNL     1       5.541   3.721  15.868  0.00  0.00    +0.000 A 
BRANCH   6  14
ATOM     12  C   UNL     1       5.906   3.234  12.476  0.00  0.00    +0.000 C 
ATOM     13  O   UNL     1       4.764   3.574  12.154  0.00  0.00    +0.000 OA
ATOM     14  N   UNL     1       6.538   3.574  13.662  0.00  0.00    +0.000 N 
ATOM     15  H   UNL     1       7.544   3.444  13.717  0.00  0.00    +0.000 HD
BRANCH  12  17
ATOM     16  C   UNL     1       6.036   1.122  11.166  0.00  0.00    +0.000 C 
ATOM     17  C   UNL     1       6.760   2.411  11.536  0.00  0.00    +0.000 C 
ENDBRANCH  12  17
ENDBRANCH   6  14
ENDBRANCH   1  10
BRANCH   5  18
ATOM     18  S   UNL     1       2.707   2.312  17.852  0.00  0.00    +0.000 S 
BRANCH  18  19
ATOM     19  C   UNL     1       1.168   3.172  18.250  0.00  0.00    +0.000 C 
BRANCH  19  20
ATOM     20  C   UNL     1       1.365   4.222  19.325  0.00  0.00    +0.000 C 
ATOM     21  O   UNL     1       1.030   4.039  20.495  0.00  0.00    +0.000 OA
ATOM     22  N   UNL     1       1.992   5.371  18.895  0.00  0.00    +0.000 N 
ATOM     23  H   UNL     1       2.029   5.587  17.905  0.00  0.00    +0.000 HD
BRANCH  22  24
ATOM     24  C   UNL     1       2.303   6.444  19.814  0.00  0.00    +0.000 C 
BRANCH  24  25
ATOM     25  C   UNL     1       2.013   7.742  19.164  0.00  0.00    +0.000 A 
ATOM     26  C   UNL     1       2.278   8.238  17.905  0.00  0.00    +0.000 A 
ATOM     27  C   UNL     1       1.792   9.565  17.888  0.00  0.00    +0.000 A 
ATOM     28  C   UNL     1       1.245   9.789  19.130  0.00  0.00    +0.000 A 
ATOM     29  O   UNL     1       1.369   8.684  19.912  0.00  0.00    +0.000 OA
ENDBRANCH  24  25
ENDBRANCH  22  24
ENDBRANCH  19  20
ENDBRANCH  18  19
ENDBRANCH   5  18
TORSDOF 8
ENDMDL
MODEL 5
REMARK VINA RESULT:      -7.8      1.280      1.421
REMARK  Name = 
REMARK  9 active torsions:
REMARK  status: ('A' for Active; 'I' for Inactive)
REMARK    1  A    between atoms: C_1  and  C_2
REMARK    2  A    between atoms: C_2  and  C_3
REMARK    3  A    between atoms: N_5  and  C_6
REMARK    4  A    between atoms: C_10  and  N_11
REMARK    5  A    between atoms: C_15  and  S_16
REMARK    6  A    between atoms: S_16  and  C_17
REMARK    7  A    between atoms: C_17  and  C_18
REMARK    8  A    between atoms: N_20  and  C_21
REMARK    9  A    between atoms: C_21  and  C_22
REMARK                            x       y       z     vdW  Elec       q    Type
REMARK                         _______ _______ _______ _____ _____    ______ ____
ROOT
ATOM      1  N   UNL     1       3.482   4.531  17.933  0.00  0.00    +0.000 N 
ATOM      2  N   UNL     1       2.946   3.512  17.219  0.00  0.00    +0.000 NA
ATOM      3  N   UNL     1       1.719   3.344  17.687  0.00  0.00    +0.000 NA
ATOM      4  N   UNL     1       1.408   4.295  18.627  0.00  0.00    +0.000 NA
ATOM      5  C   UNL     1       2.479   5.048  18.747  0.00  0.00    +0.000 A 
ENDROOT
BRANCH   1  10
ATOM      6  C   UNL     1       6.674   5.391  16.233  0.00  0.00    +0.000 A 
ATOM      7  C   UNL     1       7.536   5.395  17.334  0.00  0.00    +0.000 A 
ATOM      8  C   UNL     1       7.055   5.231  18.630  0.00  0.00    +0.000 A 
ATOM      9  C   UNL     1       5.695   5.018  18.838  0.00  0.00    +0.000 A 
ATOM     10  C   UNL     1       4.819   4.949  17.729  0.00  0.00    +0.000 A 
ATOM     11  C   UNL     1       5.299   5.231  16.444  0.00  0.00    +0.000 A 
BRANCH   6  14
ATOM     12  C   UNL     1       6.896   4.561  13.920  0.00  0.00    +0.000 C 
ATOM     13  O   UNL     1       6.214   3.544  14.068  0.00  0.00    +0.000 OA
ATOM     14  N   UNL     1       7.154   5.502  14.905  0.00  0.00    +0.000 N 
ATOM     15  H   UNL     1       7.520   6.404  14.614  0.00  0.00    +0.000 HD
BRANCH  12  17
ATOM     16  C   UNL     1       8.598   5.941  12.739  0.00  0.00    +0.000 C 
ATOM     17  C   UNL     1       7.502   4.895  12.574  0.00  0.00    +0.000 C 
ENDBRANCH  12  17
ENDBRANCH   6  14
ENDBRANCH   1  10
BRANCH   5  18
ATOM     18  S   UNL     1       2.489   6.642  19.445  0.00  0.00    +0.000 S 
BRANCH  18  19
ATOM     19  C   UNL     1       2.663   7.749  18.027  0.00  0.00    +0.000 C 
BRANCH  19  20
ATOM     20  C   UNL     1       1.941   9.065  18.243  0.00  0.00    +0.000 C 
ATOM     21  O   UNL     1       2.119  10.042  17.516  0.00  0.00    +0.000 OA
ATOM     22  N   UNL     1       1.038   9.058  19.283  0.00  0.00    +0.000 N 
ATOM     23  H   UNL     1       1.094   8.341  19.997  0.00  0.00    +0.000 HD
BRANCH  22  24
ATOM     24  C   UNL     1       0.229  10.220  19.580  0.00  0.00    +0.000 C 
BRANCH  24  25
ATOM     25  C   UNL     1      -0.121  10.215  21.019  0.00  0.00    +0.000 A 
ATOM     26  C   UNL     1      -0.090   9.233  21.987  0.00  0.00    +0.000 A 
ATOM     27  C   UNL     1      -0.587   9.823  23.171  0.00  0.00    +0.000 A 
ATOM     28  C   UNL     1      -0.874  11.131  22.856  0.00  0.00    +0.000 A 
ATOM     29  O   UNL     1      -0.588  11.381  21.551  0.00  0.00    +0.000 OA
ENDBRANCH  24  25
ENDBRANCH  22  24
ENDBRANCH  19  20
ENDBRANCH  18  19
ENDBRANCH   5  18
TORSDOF 8
ENDMDL
MODEL 6
REMARK VINA RESULT:      -7.8      4.477      7.211
REMARK  Name = 
REMARK  9 active torsions:
REMARK  status: ('A' for Active; 'I' for Inactive)
REMARK    1  A    between atoms: C_1  and  C_2
REMARK    2  A    between atoms: C_2  and  C_3
REMARK    3  A    between atoms: N_5  and  C_6
REMARK    4  A    between atoms: C_10  and  N_11
REMARK    5  A    between atoms: C_15  and  S_16
REMARK    6  A    between atoms: S_16  and  C_17
REMARK    7  A    between atoms: C_17  and  C_18
REMARK    8  A    between atoms: N_20  and  C_21
REMARK    9  A    between atoms: C_21  and  C_22
REMARK                            x       y       z     vdW  Elec       q    Type
REMARK                         _______ _______ _______ _____ _____    ______ ____
ROOT
ATOM      1  N   UNL     1       5.687   5.704  16.220  0.00  0.00    +0.000 N 
ATOM      2  N   UNL     1       5.410   5.482  14.912  0.00  0.00    +0.000 NA
ATOM      3  N   UNL     1       6.566   5.184  14.340  0.00  0.00    +0.000 NA
ATOM      4  N   UNL     1       7.578   5.113  15.265  0.00  0.00    +0.000 NA
ATOM      5  C   UNL     1       7.027   5.394  16.425  0.00  0.00    +0.000 A 
ENDROOT
BRANCH   1  10
ATOM      6  C   UNL     1       2.923   5.527  18.699  0.00  0.00    +0.000 A 
ATOM      7  C   UNL     1       2.446   6.839  18.618  0.00  0.00    +0.000 A 
ATOM      8  C   UNL     1       3.096   7.798  17.846  0.00  0.00    +0.000 A 
ATOM      9  C   UNL     1       4.220   7.441  17.106  0.00  0.00    +0.000 A 
ATOM     10  C   UNL     1       4.677   6.102  17.128  0.00  0.00    +0.000 A 
ATOM     11  C   UNL     1       4.083   5.179  17.998  0.00  0.00    +0.000 A 
BRANCH   6  14
ATOM     12  C   UNL     1       1.374   3.613  18.859  0.00  0.00    +0.000 C 
ATOM     13  O   UNL     1       1.108   3.544  17.656  0.00  0.00    +0.000 OA
ATOM     14  N   UNL     1       2.242   4.528  19.436  0.00  0.00    +0.000 N 
ATOM     15  H   UNL     1       2.564   4.343  20.381  0.00  0.00    +0.000 HD
BRANCH  12  17
ATOM     16  C   UNL     1       1.389   2.823  21.219  0.00  0.00    +0.000 C 
ATOM     17  C   UNL     1       0.770   2.631  19.841  0.00  0.00    +0.000 C 
ENDBRANCH  12  17
ENDBRANCH   6  14
ENDBRANCH   1  10
BRANCH   5  18
ATOM     18  S   UNL     1       7.733   5.010  17.968  0.00  0.00    +0.000 S 
BRANCH  18  19
ATOM     19  C   UNL     1       7.584   6.540  18.920  0.00  0.00    +0.000 C 
BRANCH  19  20
ATOM     20  C   UNL     1       8.028   7.750  18.122  0.00  0.00    +0.000 C 
ATOM     21  O   UNL     1       7.832   7.850  16.911  0.00  0.00    +0.000 OA
ATOM     22  N   UNL     1       8.620   8.743  18.872  0.00  0.00    +0.000 N 
ATOM     23  H   UNL     1       8.982   8.532  19.795  0.00  0.00    +0.000 HD
BRANCH  22  24
ATOM     24  C   UNL     1       9.048   9.985  18.265  0.00  0.00    +0.000 C 
BRANCH  24  25
ATOM     25  C   UNL     1       9.409  10.948  19.330  0.00  0.00    +0.000 A 
ATOM     26  C   UNL     1       9.421  10.863  20.706  0.00  0.00    +0.000 A 
ATOM     27  C   UNL     1       9.823  12.131  21.182  0.00  0.00    +0.000 A 
ATOM     28  C   UNL     1      10.048  12.905  20.067  0.00  0.00    +0.000 A 
ATOM     29  O   UNL     1       9.805  12.193  18.936  0.00  0.00    +0.000 OA
ENDBRANCH  24  25
ENDBRANCH  22  24
ENDBRANCH  19  20
ENDBRANCH  18  19
ENDBRANCH   5  18
TORSDOF 8
ENDMDL
MODEL 7
REMARK VINA RESULT:      -7.8      2.195      3.018
REMARK  Name = 
REMARK  9 active torsions:
REMARK  status: ('A' for Active; 'I' for Inactive)
REMARK    1  A    between atoms: C_1  and  C_2
REMARK    2  A    between atoms: C_2  and  C_3
REMARK    3  A    between atoms: N_5  and  C_6
REMARK    4  A    between atoms: C_10  and  N_11
REMARK    5  A    between atoms: C_15  and  S_16
REMARK    6  A    between atoms: S_16  and  C_17
REMARK    7  A    between atoms: C_17  and  C_18
REMARK    8  A    between atoms: N_20  and  C_21
REMARK    9  A    between atoms: C_21  and  C_22
REMARK                            x       y       z     vdW  Elec       q    Type
REMARK                         _______ _______ _______ _____ _____    ______ ____
ROOT
ATOM      1  N   UNL     1       4.587   3.307  19.033  0.00  0.00    +0.000 N 
ATOM      2  N   UNL     1       5.527   2.961  19.945  0.00  0.00    +0.000 NA
ATOM      3  N   UNL     1       4.934   2.123  20.781  0.00  0.00    +0.000 NA
ATOM      4  N   UNL     1       3.652   1.840  20.379  0.00  0.00    +0.000 NA
ATOM      5  C   UNL     1       3.455   2.538  19.282  0.00  0.00    +0.000 A 
ENDROOT
BRANCH   1  10
ATOM      6  C   UNL     1       5.444   4.719  15.703  0.00  0.00    +0.000 A 
ATOM      7  C   UNL     1       5.788   6.021  16.078  0.00  0.00    +0.000 A 
ATOM      8  C   UNL     1       5.630   6.461  17.389  0.00  0.00    +0.000 A 
ATOM      9  C   UNL     1       5.159   5.582  18.360  0.00  0.00    +0.000 A 
ATOM     10  C   UNL     1       4.866   4.243  18.008  0.00  0.00    +0.000 A 
ATOM     11  C   UNL     1       4.920   3.848  16.665  0.00  0.00    +0.000 A 
BRANCH   6  14
ATOM     12  C   UNL     1       6.780   4.530  13.637  0.00  0.00    +0.000 C 
ATOM     13  O   UNL     1       7.736   5.207  14.024  0.00  0.00    +0.000 OA
ATOM     14  N   UNL     1       5.649   4.240  14.386  0.00  0.00    +0.000 N 
ATOM     15  H   UNL     1       5.046   3.490  14.061  0.00  0.00    +0.000 HD
BRANCH  12  17
ATOM     16  C   UNL     1       5.456   3.206  11.997  0.00  0.00    +0.000 C 
ATOM     17  C   UNL     1       6.786   3.901  12.260  0.00  0.00    +0.000 C 
ENDBRANCH  12  17
ENDBRANCH   6  14
ENDBRANCH   1  10
BRANCH   5  18
ATOM     18  S   UNL     1       2.197   2.218  18.124  0.00  0.00    +0.000 S 
BRANCH  18  19
ATOM     19  C   UNL     1       0.788   3.182  18.716  0.00  0.00    +0.000 C 
BRANCH  19  20
ATOM     20  C   UNL     1       1.209   4.261  19.694  0.00  0.00    +0.000 C 
ATOM     21  O   UNL     1       1.091   4.130  20.912  0.00  0.00    +0.000 OA
ATOM     22  N   UNL     1       1.778   5.372  19.110  0.00  0.00    +0.000 N 
ATOM     23  H   UNL     1       1.637   5.552  18.123  0.00  0.00    +0.000 HD
BRANCH  22  24
ATOM     24  C   UNL     1       2.282   6.465  19.913  0.00  0.00    +0.000 C 
BRANCH  24  25
ATOM     25  C   UNL     1       2.018   7.744  19.216  0.00  0.00    +0.000 A 
ATOM     26  C   UNL     1       2.408   8.241  17.991  0.00  0.00    +0.000 A 
ATOM     27  C   UNL     1       1.872   9.546  17.899  0.00  0.00    +0.000 A 
ATOM     28  C   UNL     1       1.174   9.756  19.066  0.00  0.00    +0.000 A 
ATOM     29  O   UNL     1       1.251   8.663  19.871  0.00  0.00    +0.000 OA
ENDBRANCH  24  25
ENDBRANCH  22  24
ENDBRANCH  19  20
ENDBRANCH  18  19
ENDBRANCH   5  18
TORSDOF 8
ENDMDL
MODEL 8
REMARK VINA RESULT:      -7.7      1.657      2.034
REMARK  Name = 
REMARK  9 active torsions:
REMARK  status: ('A' for Active; 'I' for Inactive)
REMARK    1  A    between atoms: C_1  and  C_2
REMARK    2  A    between atoms: C_2  and  C_3
REMARK    3  A    between atoms: N_5  and  C_6
REMARK    4  A    between atoms: C_10  and  N_11
REMARK    5  A    between atoms: C_15  and  S_16
REMARK    6  A    between atoms: S_16  and  C_17
REMARK    7  A    between atoms: C_17  and  C_18
REMARK    8  A    between atoms: N_20  and  C_21
REMARK    9  A    between atoms: C_21  and  C_22
REMARK                            x       y       z     vdW  Elec       q    Type
REMARK                         _______ _______ _______ _____ _____    ______ ____
ROOT
ATOM      1  N   UNL     1       3.266   4.068  19.157  0.00  0.00    +0.000 N 
ATOM      2  N   UNL     1       2.703   2.842  19.032  0.00  0.00    +0.000 NA
ATOM      3  N   UNL     1       1.660   2.833  19.849  0.00  0.00    +0.000 NA
ATOM      4  N   UNL     1       1.474   4.062  20.433  0.00  0.00    +0.000 NA
ATOM      5  C   UNL     1       2.438   4.829  19.976  0.00  0.00    +0.000 A 
ENDROOT
BRANCH   1  10
ATOM      6  C   UNL     1       5.811   4.286  16.457  0.00  0.00    +0.000 A 
ATOM      7  C   UNL     1       6.906   4.741  17.198  0.00  0.00    +0.000 A 
ATOM      8  C   UNL     1       6.778   5.080  18.543  0.00  0.00    +0.000 A 
ATOM      9  C   UNL     1       5.549   4.929  19.178  0.00  0.00    +0.000 A 
ATOM     10  C   UNL     1       4.447   4.410  18.456  0.00  0.00    +0.000 A 
ATOM     11  C   UNL     1       4.562   4.183  17.079  0.00  0.00    +0.000 A 
BRANCH   6  14
ATOM     12  C   UNL     1       6.759   4.530  14.192  0.00  0.00    +0.000 C 
ATOM     13  O   UNL     1       7.483   5.497  14.445  0.00  0.00    +0.000 OA
ATOM     14  N   UNL     1       5.937   3.885  15.105  0.00  0.00    +0.000 N 
ATOM     15  H   UNL     1       5.575   2.971  14.852  0.00  0.00    +0.000 HD
BRANCH  12  17
ATOM     16  C   UNL     1       5.348   3.394  12.486  0.00  0.00    +0.000 C 
ATOM     17  C   UNL     1       6.741   3.919  12.807  0.00  0.00    +0.000 C 
ENDBRANCH  12  17
ENDBRANCH   6  14
ENDBRANCH   1  10
BRANCH   5  18
ATOM     18  S   UNL     1       2.420   6.568  20.027  0.00  0.00    +0.000 S 
BRANCH  18  19
ATOM     19  C   UNL     1       2.288   7.065  18.294  0.00  0.00    +0.000 C 
BRANCH  19  20
ATOM     20  C   UNL     1       2.085   8.560  18.146  0.00  0.00    +0.000 C 
ATOM     21  O   UNL     1       2.558   9.200  17.207  0.00  0.00    +0.000 OA
ATOM     22  N   UNL     1       1.291   9.129  19.117  0.00  0.00    +0.000 N 
ATOM     23  H   UNL     1       1.128   8.638  19.989  0.00  0.00    +0.000 HD
BRANCH  22  24
ATOM     24  C   UNL     1       0.958  10.536  19.083  0.00  0.00    +0.000 C 
BRANCH  24  25
ATOM     25  C   UNL     1      -0.471  10.691  18.728  0.00  0.00    +0.000 A 
ATOM     26  C   UNL     1      -1.246  10.167  17.715  0.00  0.00    +0.000 A 
ATOM     27  C   UNL     1      -2.538  10.718  17.873  0.00  0.00    +0.000 A 
ATOM     28  C   UNL     1      -2.474  11.530  18.983  0.00  0.00    +0.000 A 
ATOM     29  O   UNL     1      -1.223  11.515  19.513  0.00  0.00    +0.000 OA
ENDBRANCH  24  25
ENDBRANCH  22  24
ENDBRANCH  19  20
ENDBRANCH  18  19
ENDBRANCH   5  18
TORSDOF 8
ENDMDL
MODEL 9
REMARK VINA RESULT:      -7.7      2.332      8.105
REMARK  Name = 
REMARK  9 active torsions:
REMARK  status: ('A' for Active; 'I' for Inactive)
REMARK    1  A    between atoms: C_1  and  C_2
REMARK    2  A    between atoms: C_2  and  C_3
REMARK    3  A    between atoms: N_5  and  C_6
REMARK    4  A    between atoms: C_10  and  N_11
REMARK    5  A    between atoms: C_15  and  S_16
REMARK    6  A    between atoms: S_16  and  C_17
REMARK    7  A    between atoms: C_17  and  C_18
REMARK    8  A    between atoms: N_20  and  C_21
REMARK    9  A    between atoms: C_21  and  C_22
REMARK                            x       y       z     vdW  Elec       q    Type
REMARK                         _______ _______ _______ _____ _____    ______ ____
ROOT
ATOM      1  N   UNL     1       1.867   4.425  20.131  0.00  0.00    +0.000 N 
ATOM      2  N   UNL     1       1.977   3.900  21.375  0.00  0.00    +0.000 NA
ATOM      3  N   UNL     1       1.733   2.605  21.248  0.00  0.00    +0.000 NA
ATOM      4  N   UNL     1       1.561   2.256  19.931  0.00  0.00    +0.000 NA
ATOM      5  C   UNL     1       1.684   3.370  19.243  0.00  0.00    +0.000 A 
ENDROOT
BRANCH   1  10
ATOM      6  C   UNL     1       1.620   8.106  20.585  0.00  0.00    +0.000 A 
ATOM      7  C   UNL     1       1.959   8.528  19.296  0.00  0.00    +0.000 A 
ATOM      8  C   UNL     1       2.373   7.622  18.324  0.00  0.00    +0.000 A 
ATOM      9  C   UNL     1       2.416   6.263  18.623  0.00  0.00    +0.000 A 
ATOM     10  C   UNL     1       2.016   5.815  19.904  0.00  0.00    +0.000 A 
ATOM     11  C   UNL     1       1.713   6.747  20.904  0.00  0.00    +0.000 A 
BRANCH   6  14
ATOM     12  C   UNL     1      -0.141   8.963  22.086  0.00  0.00    +0.000 C 
ATOM     13  O   UNL     1      -1.004   8.136  21.780  0.00  0.00    +0.000 OA
ATOM     14  N   UNL     1       1.145   9.009  21.567  0.00  0.00    +0.000 N 
ATOM     15  H   UNL     1       1.833   9.572  22.058  0.00  0.00    +0.000 HD
BRANCH  12  17
ATOM     16  C   UNL     1      -1.043  11.249  22.479  0.00  0.00    +0.000 C 
ATOM     17  C   UNL     1      -0.422  10.021  23.132  0.00  0.00    +0.000 C 
ENDBRANCH  12  17
ENDBRANCH   6  14
ENDBRANCH   1  10
BRANCH   5  18
ATOM     18  S   UNL     1       2.006   3.443  17.535  0.00  0.00    +0.000 S 
BRANCH  18  19
ATOM     19  C   UNL     1       3.707   2.853  17.375  0.00  0.00    +0.000 C 
BRANCH  19  20
ATOM     20  C   UNL     1       4.623   3.912  16.795  0.00  0.00    +0.000 C 
ATOM     21  O   UNL     1       4.245   5.061  16.572  0.00  0.00    +0.000 OA
ATOM     22  N   UNL     1       5.920   3.495  16.588  0.00  0.00    +0.000 N 
ATOM     23  H   UNL     1       6.132   2.504  16.548  0.00  0.00    +0.000 HD
BRANCH  22  24
ATOM     24  C   UNL     1       6.929   4.405  16.092  0.00  0.00    +0.000 C 
BRANCH  24  25
ATOM     25  C   UNL     1       7.330   5.328  17.178  0.00  0.00    +0.000 A 
ATOM     26  C   UNL     1       7.522   6.692  17.223  0.00  0.00    +0.000 A 
ATOM     27  C   UNL     1       7.945   6.993  18.538  0.00  0.00    +0.000 A 
ATOM     28  C   UNL     1       7.967   5.796  19.216  0.00  0.00    +0.000 A 
ATOM     29  O   UNL     1       7.588   4.778  18.399  0.00  0.00    +0.000 OA
ENDBRANCH  24  25
ENDBRANCH  22  24
ENDBRANCH  19  20
ENDBRANCH  18  19
ENDBRANCH   5  18
TORSDOF 8
ENDMDL
