MODEL 1
REMARK VINA RESULT:      -8.0      0.000      0.000
REMARK  Name = 
REMARK  14 active torsions:
REMARK  status: ('A' for Active; 'I' for Inactive)
REMARK    1  A    between atoms: C_1  and  C_2
REMARK    2  A    between atoms: N_4  and  C_5
REMARK    3  A    between atoms: C_5  and  C_13
REMARK    4  A    between atoms: C_6  and  C_7
REMARK    5  A    between atoms: C_13  and  O_15
REMARK    6  A    between atoms: O_15  and  C_16
REMARK    7  A    between atoms: C_16  and  C_17
REMARK    8  A    between atoms: C_17  and  C_18
REMARK    9  A    between atoms: C_18  and  O_19
REMARK   10  A    between atoms: O_19  and  C_20
REMARK   11  A    between atoms: C_20  and  C_22
REMARK   12  A    between atoms: C_22  and  N_30
REMARK   13  A    between atoms: C_23  and  C_24
REMARK   14  A    between atoms: C_31  and  C_32
REMARK                            x       y       z     vdW  Elec       q    Type
REMARK                         _______ _______ _______ _____ _____    ______ ____
ROOT
ATOM      1  C   UNL     1       2.483   6.405  17.990  0.00  0.00    +0.000 C 
ENDROOT
BRANCH   1   2
ATOM      2  C   UNL     1       2.453   7.835  18.528  0.00  0.00    +0.000 C 
BRANCH   2   3
ATOM      3  O   UNL     1       1.743   8.704  17.622  0.00  0.00    +0.000 OA
BRANCH   3   4
ATOM      4  C   UNL     1       1.702  10.018  17.958  0.00  0.00    +0.000 C 
ATOM      5  O   UNL     1       2.448  10.887  17.521  0.00  0.00    +0.000 OA
BRANCH   4   6
ATOM      6  C   UNL     1       0.564  10.349  18.885  0.00  0.00    +0.000 C 
ATOM      7  C   UNL     1       0.754  11.054  20.015  0.00  0.00    +0.000 C 
BRANCH   7   8
ATOM      8  C   UNL     1      -0.237  11.264  21.080  0.00  0.00    +0.000 A 
ATOM      9  C   UNL     1      -0.308  10.355  22.146  0.00  0.00    +0.000 A 
ATOM     10  C   UNL     1      -1.171  10.587  23.220  0.00  0.00    +0.000 A 
ATOM     11  C   UNL     1      -1.971  11.727  23.234  0.00  0.00    +0.000 A 
ATOM     12  C   UNL     1      -1.921  12.624  22.167  0.00  0.00    +0.000 A 
ATOM     13  C   UNL     1      -1.058  12.394  21.091  0.00  0.00    +0.000 A 
ENDBRANCH   7   8
BRANCH   6  17
ATOM     14  C   UNL     1      -2.816   9.850  17.415  0.00  0.00    +0.000 C 
ATOM     15  C   UNL     1      -1.598  10.618  17.866  0.00  0.00    +0.000 C 
ATOM     16  O   UNL     1      -1.452  11.810  17.611  0.00  0.00    +0.000 OA
ATOM     17  N   UNL     1      -0.670   9.819  18.524  0.00  0.00    +0.000 N 
ATOM     18  H   UNL     1      -0.586   8.930  18.037  0.00  0.00    +0.000 HD
ENDBRANCH   6  17
ENDBRANCH   4   6
ENDBRANCH   3   4
ENDBRANCH   2   3
ENDBRANCH   1   2
BRANCH   1  19
ATOM     19  C   UNL     1       2.769   5.368  19.074  0.00  0.00    +0.000 C 
BRANCH  19  20
ATOM     20  O   UNL     1       4.041   4.724  18.838  0.00  0.00    +0.000 OA
BRANCH  20  21
ATOM     21  C   UNL     1       4.074   3.858  17.794  0.00  0.00    +0.000 C 
ATOM     22  O   UNL     1       3.283   2.939  17.615  0.00  0.00    +0.000 OA
BRANCH  21  23
ATOM     23  C   UNL     1       5.209   4.104  16.822  0.00  0.00    +0.000 C 
ATOM     24  C   UNL     1       4.943   4.281  15.511  0.00  0.00    +0.000 C 
BRANCH  24  25
ATOM     25  C   UNL     1       5.862   4.237  14.361  0.00  0.00    +0.000 A 
ATOM     26  C   UNL     1       5.563   3.443  13.245  0.00  0.00    +0.000 A 
ATOM     27  C   UNL     1       6.335   3.538  12.083  0.00  0.00    +0.000 A 
ATOM     28  C   UNL     1       7.417   4.414  12.033  0.00  0.00    +0.000 A 
ATOM     29  C   UNL     1       7.733   5.192  13.145  0.00  0.00    +0.000 A 
ATOM     30  C   UNL     1       6.952   5.111  14.301  0.00  0.00    +0.000 A 
ENDBRANCH  24  25
BRANCH  23  31
ATOM     31  N   UNL     1       6.459   3.945  17.387  0.00  0.00    +0.000 N 
ATOM     32  C   UNL     1       7.346   4.855  17.887  0.00  0.00    +0.000 C 
ATOM     33  C   UNL     1       7.079   6.334  17.840  0.00  0.00    +0.000 C 
ATOM     34  O   UNL     1       8.350   4.433  18.468  0.00  0.00    +0.000 OA
ATOM     35  H   UNL     1       6.585   3.066  17.889  0.00  0.00    +0.000 HD
ENDBRANCH  23  31
ENDBRANCH  21  23
ENDBRANCH  20  21
ENDBRANCH  19  20
ENDBRANCH   1  19
TORSDOF 12
ENDMDL
MODEL 2
REMARK VINA RESULT:      -7.9      5.763     10.240
REMARK  Name = 
REMARK  14 active torsions:
REMARK  status: ('A' for Active; 'I' for Inactive)
REMARK    1  A    between atoms: C_1  and  C_2
REMARK    2  A    between atoms: N_4  and  C_5
REMARK    3  A    between atoms: C_5  and  C_13
REMARK    4  A    between atoms: C_6  and  C_7
REMARK    5  A    between atoms: C_13  and  O_15
REMARK    6  A    between atoms: O_15  and  C_16
REMARK    7  A    between atoms: C_16  and  C_17
REMARK    8  A    between atoms: C_17  and  C_18
REMARK    9  A    between atoms: C_18  and  O_19
REMARK   10  A    between atoms: O_19  and  C_20
REMARK   11  A    between atoms: C_20  and  C_22
REMARK   12  A    between atoms: C_22  and  N_30
REMARK   13  A    between atoms: C_23  and  C_24
REMARK   14  A    between atoms: C_31  and  C_32
REMARK                            x       y       z     vdW  Elec       q    Type
REMARK                         _______ _______ _______ _____ _____    ______ ____
ROOT
ATOM      1  C   UNL     1       8.325   7.905  18.416  0.00  0.00    +0.000 C 
ENDROOT
BRANCH   1   2
ATOM      2  C   UNL     1       7.238   7.180  17.624  0.00  0.00    +0.000 C 
BRANCH   2   3
ATOM      3  O   UNL     1       7.804   6.094  16.862  0.00  0.00    +0.000 OA
BRANCH   3   4
ATOM      4  C   UNL     1       7.587   4.844  17.344  0.00  0.00    +0.000 C 
ATOM      5  O   UNL     1       8.412   4.158  17.937  0.00  0.00    +0.000 OA
BRANCH   4   6
ATOM      6  C   UNL     1       6.167   4.384  17.157  0.00  0.00    +0.000 C 
ATOM      7  C   UNL     1       5.255   4.481  18.143  0.00  0.00    +0.000 C 
BRANCH   7   8
ATOM      8  C   UNL     1       3.910   3.891  18.136  0.00  0.00    +0.000 A 
ATOM      9  C   UNL     1       3.731   2.574  18.584  0.00  0.00    +0.000 A 
ATOM     10  C   UNL     1       2.449   2.026  18.682  0.00  0.00    +0.000 A 
ATOM     11  C   UNL     1       1.338   2.789  18.332  0.00  0.00    +0.000 A 
ATOM     12  C   UNL     1       1.510   4.092  17.865  0.00  0.00    +0.000 A 
ATOM     13  C   UNL     1       2.792   4.643  17.765  0.00  0.00    +0.000 A 
ENDBRANCH   7   8
BRANCH   6  17
ATOM     14  C   UNL     1       5.445   3.811  13.554  0.00  0.00    +0.000 C 
ATOM     15  C   UNL     1       5.565   4.594  14.838  0.00  0.00    +0.000 C 
ATOM     16  O   UNL     1       5.439   5.815  14.867  0.00  0.00    +0.000 OA
ATOM     17  N   UNL     1       5.890   3.795  15.928  0.00  0.00    +0.000 N 
ATOM     18  H   UNL     1       6.598   3.118  15.650  0.00  0.00    +0.000 HD
ENDBRANCH   6  17
ENDBRANCH   4   6
ENDBRANCH   3   4
ENDBRANCH   2   3
ENDBRANCH   1   2
BRANCH   1  19
ATOM     19  C   UNL     1       8.374   9.403  18.123  0.00  0.00    +0.000 C 
BRANCH  19  20
ATOM     20  O   UNL     1       9.235  10.078  19.067  0.00  0.00    +0.000 OA
BRANCH  20  21
ATOM     21  C   UNL     1       9.939  11.127  18.571  0.00  0.00    +0.000 C 
ATOM     22  O   UNL     1      10.537  11.132  17.501  0.00  0.00    +0.000 OA
BRANCH  21  23
ATOM     23  C   UNL     1       9.948  12.346  19.469  0.00  0.00    +0.000 C 
ATOM     24  C   UNL     1       9.629  12.219  20.774  0.00  0.00    +0.000 C 
BRANCH  24  25
ATOM     25  C   UNL     1       9.283  13.263  21.754  0.00  0.00    +0.000 A 
ATOM     26  C   UNL     1       8.338  13.007  22.758  0.00  0.00    +0.000 A 
ATOM     27  C   UNL     1       8.142  13.927  23.793  0.00  0.00    +0.000 A 
ATOM     28  C   UNL     1       8.875  15.112  23.824  0.00  0.00    +0.000 A 
ATOM     29  C   UNL     1       9.802  15.382  22.819  0.00  0.00    +0.000 A 
ATOM     30  C   UNL     1      10.012  14.456  21.793  0.00  0.00    +0.000 A 
ENDBRANCH  24  25
BRANCH  23  31
ATOM     31  N   UNL     1      10.125  13.531  18.785  0.00  0.00    +0.000 N 
ATOM     32  C   UNL     1       9.235  14.346  18.144  0.00  0.00    +0.000 C 
ATOM     33  C   UNL     1       7.776  14.000  18.038  0.00  0.00    +0.000 C 
ATOM     34  O   UNL     1       9.638  15.434  17.723  0.00  0.00    +0.000 OA
ATOM     35  H   UNL     1      10.894  14.106  19.130  0.00  0.00    +0.000 HD
ENDBRANCH  23  31
ENDBRANCH  21  23
ENDBRANCH  20  21
ENDBRANCH  19  20
ENDBRANCH   1  19
TORSDOF 12
ENDMDL
MODEL 3
REMARK VINA RESULT:      -7.7      1.837      2.956
REMARK  Name = 
REMARK  14 active torsions:
REMARK  status: ('A' for Active; 'I' for Inactive)
REMARK    1  A    between atoms: C_1  and  C_2
REMARK    2  A    between atoms: N_4  and  C_5
REMARK    3  A    between atoms: C_5  and  C_13
REMARK    4  A    between atoms: C_6  and  C_7
REMARK    5  A    between atoms: C_13  and  O_15
REMARK    6  A    between atoms: O_15  and  C_16
REMARK    7  A    between atoms: C_16  and  C_17
REMARK    8  A    between atoms: C_17  and  C_18
REMARK    9  A    between atoms: C_18  and  O_19
REMARK   10  A    between atoms: O_19  and  C_20
REMARK   11  A    between atoms: C_20  and  C_22
REMARK   12  A    between atoms: C_22  and  N_30
REMARK   13  A    between atoms: C_23  and  C_24
REMARK   14  A    between atoms: C_31  and  C_32
REMARK                            x       y       z     vdW  Elec       q    Type
REMARK                         _______ _______ _______ _____ _____    ______ ____
ROOT
ATOM      1  C   UNL     1       2.512   6.866  18.778  0.00  0.00    +0.000 C 
ENDROOT
BRANCH   1   2
ATOM      2  C   UNL     1       2.891   8.114  17.982  0.00  0.00    +0.000 C 
BRANCH   2   3
ATOM      3  O   UNL     1       1.721   8.907  17.694  0.00  0.00    +0.000 OA
BRANCH   3   4
ATOM      4  C   UNL     1       1.133   9.517  18.754  0.00  0.00    +0.000 C 
ATOM      5  O   UNL     1       1.529   9.467  19.912  0.00  0.00    +0.000 OA
BRANCH   4   6
ATOM      6  C   UNL     1      -0.048  10.362  18.361  0.00  0.00    +0.000 C 
ATOM      7  C   UNL     1      -1.274   9.832  18.196  0.00  0.00    +0.000 C 
BRANCH   7   8
ATOM      8  C   UNL     1      -2.443  10.519  17.630  0.00  0.00    +0.000 A 
ATOM      9  C   UNL     1      -2.777  10.317  16.282  0.00  0.00    +0.000 A 
ATOM     10  C   UNL     1      -3.939  10.879  15.748  0.00  0.00    +0.000 A 
ATOM     11  C   UNL     1      -4.776  11.646  16.555  0.00  0.00    +0.000 A 
ATOM     12  C   UNL     1      -4.439  11.868  17.890  0.00  0.00    +0.000 A 
ATOM     13  C   UNL     1      -3.275  11.308  18.428  0.00  0.00    +0.000 A 
ENDBRANCH   7   8
BRANCH   6  17
ATOM     14  C   UNL     1       0.645  13.995  18.753  0.00  0.00    +0.000 C 
ATOM     15  C   UNL     1       0.163  12.623  19.154  0.00  0.00    +0.000 C 
ATOM     16  O   UNL     1      -0.193  12.370  20.301  0.00  0.00    +0.000 OA
ATOM     17  N   UNL     1       0.235  11.701  18.115  0.00  0.00    +0.000 N 
ATOM     18  H   UNL     1       1.109  11.830  17.611  0.00  0.00    +0.000 HD
ENDBRANCH   6  17
ENDBRANCH   4   6
ENDBRANCH   3   4
ENDBRANCH   2   3
ENDBRANCH   1   2
BRANCH   1  19
ATOM     19  C   UNL     1       2.649   5.579  17.968  0.00  0.00    +0.000 C 
BRANCH  19  20
ATOM     20  O   UNL     1       3.699   4.747  18.510  0.00  0.00    +0.000 OA
BRANCH  20  21
ATOM     21  C   UNL     1       4.078   3.702  17.730  0.00  0.00    +0.000 C 
ATOM     22  O   UNL     1       3.585   2.582  17.762  0.00  0.00    +0.000 OA
BRANCH  21  23
ATOM     23  C   UNL     1       5.212   4.023  16.778  0.00  0.00    +0.000 C 
ATOM     24  C   UNL     1       4.957   4.187  15.463  0.00  0.00    +0.000 C 
BRANCH  24  25
ATOM     25  C   UNL     1       5.895   4.205  14.328  0.00  0.00    +0.000 A 
ATOM     26  C   UNL     1       5.646   3.424  13.190  0.00  0.00    +0.000 A 
ATOM     27  C   UNL     1       6.433   3.575  12.044  0.00  0.00    +0.000 A 
ATOM     28  C   UNL     1       7.480   4.494  12.031  0.00  0.00    +0.000 A 
ATOM     29  C   UNL     1       7.746   5.260  13.165  0.00  0.00    +0.000 A 
ATOM     30  C   UNL     1       6.951   5.123  14.305  0.00  0.00    +0.000 A 
ENDBRANCH  24  25
BRANCH  23  31
ATOM     31  N   UNL     1       6.460   3.940  17.362  0.00  0.00    +0.000 N 
ATOM     32  C   UNL     1       7.271   4.899  17.899  0.00  0.00    +0.000 C 
ATOM     33  C   UNL     1       6.899   6.356  17.880  0.00  0.00    +0.000 C 
ATOM     34  O   UNL     1       8.293   4.536  18.490  0.00  0.00    +0.000 OA
ATOM     35  H   UNL     1       6.640   3.061  17.846  0.00  0.00    +0.000 HD
ENDBRANCH  23  31
ENDBRANCH  21  23
ENDBRANCH  20  21
ENDBRANCH  19  20
ENDBRANCH   1  19
TORSDOF 12
ENDMDL
MODEL 4
REMARK VINA RESULT:      -7.6      6.251      8.326
REMARK  Name = 
REMARK  14 active torsions:
REMARK  status: ('A' for Active; 'I' for Inactive)
REMARK    1  A    between atoms: C_1  and  C_2
REMARK    2  A    between atoms: N_4  and  C_5
REMARK    3  A    between atoms: C_5  and  C_13
REMARK    4  A    between atoms: C_6  and  C_7
REMARK    5  A    between atoms: C_13  and  O_15
REMARK    6  A    between atoms: O_15  and  C_16
REMARK    7  A    between atoms: C_16  and  C_17
REMARK    8  A    between atoms: C_17  and  C_18
REMARK    9  A    between atoms: C_18  and  O_19
REMARK   10  A    between atoms: O_19  and  C_20
REMARK   11  A    between atoms: C_20  and  C_22
REMARK   12  A    between atoms: C_22  and  N_30
REMARK   13  A    between atoms: C_23  and  C_24
REMARK   14  A    between atoms: C_31  and  C_32
REMARK                            x       y       z     vdW  Elec       q    Type
REMARK                         _______ _______ _______ _____ _____    ______ ____
ROOT
ATOM      1  C   UNL     1       8.419   8.922  17.845  0.00  0.00    +0.000 C 
ENDROOT
BRANCH   1   2
ATOM      2  C   UNL     1       8.911  10.099  18.685  0.00  0.00    +0.000 C 
BRANCH   2   3
ATOM      3  O   UNL     1       8.848  11.325  17.927  0.00  0.00    +0.000 OA
BRANCH   3   4
ATOM      4  C   UNL     1       9.888  12.183  18.084  0.00  0.00    +0.000 C 
ATOM      5  O   UNL     1      10.907  12.198  17.403  0.00  0.00    +0.000 OA
BRANCH   4   6
ATOM      6  C   UNL     1       9.641  13.211  19.155  0.00  0.00    +0.000 C 
ATOM      7  C   UNL     1      10.372  13.247  20.284  0.00  0.00    +0.000 C 
BRANCH   7   8
ATOM      8  C   UNL     1      10.093  14.072  21.468  0.00  0.00    +0.000 A 
ATOM      9  C   UNL     1      10.753  15.299  21.625  0.00  0.00    +0.000 A 
ATOM     10  C   UNL     1      10.431  16.147  22.688  0.00  0.00    +0.000 A 
ATOM     11  C   UNL     1       9.448  15.773  23.602  0.00  0.00    +0.000 A 
ATOM     12  C   UNL     1       8.803  14.545  23.463  0.00  0.00    +0.000 A 
ATOM     13  C   UNL     1       9.124  13.694  22.400  0.00  0.00    +0.000 A 
ENDBRANCH   7   8
BRANCH   6  17
ATOM     14  C   UNL     1       7.463  15.942  17.879  0.00  0.00    +0.000 C 
ATOM     15  C   UNL     1       8.753  15.213  18.160  0.00  0.00    +0.000 C 
ATOM     16  O   UNL     1       9.826  15.592  17.700  0.00  0.00    +0.000 OA
ATOM     17  N   UNL     1       8.568  14.065  18.922  0.00  0.00    +0.000 N 
ATOM     18  H   UNL     1       7.741  13.572  18.593  0.00  0.00    +0.000 HD
ENDBRANCH   6  17
ENDBRANCH   4   6
ENDBRANCH   3   4
ENDBRANCH   2   3
ENDBRANCH   1   2
BRANCH   1  19
ATOM     19  C   UNL     1       8.315   7.624  18.644  0.00  0.00    +0.000 C 
BRANCH  19  20
ATOM     20  O   UNL     1       7.550   6.638  17.916  0.00  0.00    +0.000 OA
BRANCH  20  21
ATOM     21  C   UNL     1       7.278   5.493  18.591  0.00  0.00    +0.000 C 
ATOM     22  O   UNL     1       7.979   5.010  19.472  0.00  0.00    +0.000 OA
BRANCH  21  23
ATOM     23  C   UNL     1       5.996   4.811  18.161  0.00  0.00    +0.000 C 
ATOM     24  C   UNL     1       4.910   4.859  18.961  0.00  0.00    +0.000 C 
BRANCH  24  25
ATOM     25  C   UNL     1       3.680   4.050  18.910  0.00  0.00    +0.000 A 
ATOM     26  C   UNL     1       3.445   3.058  19.872  0.00  0.00    +0.000 A 
ATOM     27  C   UNL     1       2.204   2.416  19.935  0.00  0.00    +0.000 A 
ATOM     28  C   UNL     1       1.197   2.749  19.030  0.00  0.00    +0.000 A 
ATOM     29  C   UNL     1       1.431   3.721  18.058  0.00  0.00    +0.000 A 
ATOM     30  C   UNL     1       2.664   4.376  18.004  0.00  0.00    +0.000 A 
ENDBRANCH  24  25
BRANCH  23  31
ATOM     31  N   UNL     1       6.139   4.040  17.025  0.00  0.00    +0.000 N 
ATOM     32  C   UNL     1       5.879   4.309  15.711  0.00  0.00    +0.000 C 
ATOM     33  C   UNL     1       5.282   5.618  15.272  0.00  0.00    +0.000 C 
ATOM     34  O   UNL     1       6.229   3.482  14.865  0.00  0.00    +0.000 OA
ATOM     35  H   UNL     1       6.903   3.366  17.068  0.00  0.00    +0.000 HD
ENDBRANCH  23  31
ENDBRANCH  21  23
ENDBRANCH  20  21
ENDBRANCH  19  20
ENDBRANCH   1  19
TORSDOF 12
ENDMDL
MODEL 5
REMARK VINA RESULT:      -7.4      1.840      3.143
REMARK  Name = 
REMARK  14 active torsions:
REMARK  status: ('A' for Active; 'I' for Inactive)
REMARK    1  A    between atoms: C_1  and  C_2
REMARK    2  A    between atoms: N_4  and  C_5
REMARK    3  A    between atoms: C_5  and  C_13
REMARK    4  A    between atoms: C_6  and  C_7
REMARK    5  A    between atoms: C_13  and  O_15
REMARK    6  A    between atoms: O_15  and  C_16
REMARK    7  A    between atoms: C_16  and  C_17
REMARK    8  A    between atoms: C_17  and  C_18
REMARK    9  A    between atoms: C_18  and  O_19
REMARK   10  A    between atoms: O_19  and  C_20
REMARK   11  A    between atoms: C_20  and  C_22
REMARK   12  A    between atoms: C_22  and  N_30
REMARK   13  A    between atoms: C_23  and  C_24
REMARK   14  A    between atoms: C_31  and  C_32
REMARK                            x       y       z     vdW  Elec       q    Type
REMARK                         _______ _______ _______ _____ _____    ______ ____
ROOT
ATOM      1  C   UNL     1       3.047   6.963  19.258  0.00  0.00    +0.000 C 
ENDROOT
BRANCH   1   2
ATOM      2  C   UNL     1       1.712   7.696  19.387  0.00  0.00    +0.000 C 
BRANCH   2   3
ATOM      3  O   UNL     1       1.913   9.031  19.895  0.00  0.00    +0.000 OA
BRANCH   3   4
ATOM      4  C   UNL     1       0.820   9.646  20.416  0.00  0.00    +0.000 C 
ATOM      5  O   UNL     1       0.578   9.771  21.611  0.00  0.00    +0.000 OA
BRANCH   4   6
ATOM      6  C   UNL     1      -0.063  10.259  19.364  0.00  0.00    +0.000 C 
ATOM      7  C   UNL     1      -1.320   9.828  19.155  0.00  0.00    +0.000 C 
BRANCH   7   8
ATOM      8  C   UNL     1      -2.192  10.216  18.038  0.00  0.00    +0.000 A 
ATOM      9  C   UNL     1      -3.258  11.099  18.269  0.00  0.00    +0.000 A 
ATOM     10  C   UNL     1      -4.039  11.561  17.206  0.00  0.00    +0.000 A 
ATOM     11  C   UNL     1      -3.761  11.144  15.907  0.00  0.00    +0.000 A 
ATOM     12  C   UNL     1      -2.716  10.250  15.673  0.00  0.00    +0.000 A 
ATOM     13  C   UNL     1      -1.933   9.785  16.735  0.00  0.00    +0.000 A 
ENDBRANCH   7   8
BRANCH   6  17
ATOM     14  C   UNL     1       1.477  13.434  18.190  0.00  0.00    +0.000 C 
ATOM     15  C   UNL     1       0.676  12.533  19.096  0.00  0.00    +0.000 C 
ATOM     16  O   UNL     1       0.257  12.913  20.185  0.00  0.00    +0.000 OA
ATOM     17  N   UNL     1       0.536  11.246  18.588  0.00  0.00    +0.000 N 
ATOM     18  H   UNL     1       1.420  10.944  18.186  0.00  0.00    +0.000 HD
ENDBRANCH   6  17
ENDBRANCH   4   6
ENDBRANCH   3   4
ENDBRANCH   2   3
ENDBRANCH   1   2
BRANCH   1  19
ATOM     19  C   UNL     1       3.383   6.589  17.817  0.00  0.00    +0.000 C 
BRANCH  19  20
ATOM     20  O   UNL     1       3.055   5.205  17.560  0.00  0.00    +0.000 OA
BRANCH  20  21
ATOM     21  C   UNL     1       4.048   4.313  17.807  0.00  0.00    +0.000 C 
ATOM     22  O   UNL     1       4.066   3.518  18.739  0.00  0.00    +0.000 OA
BRANCH  21  23
ATOM     23  C   UNL     1       5.191   4.372  16.816  0.00  0.00    +0.000 C 
ATOM     24  C   UNL     1       4.932   4.530  15.501  0.00  0.00    +0.000 C 
BRANCH  24  25
ATOM     25  C   UNL     1       5.820   4.323  14.345  0.00  0.00    +0.000 A 
ATOM     26  C   UNL     1       5.436   3.471  13.300  0.00  0.00    +0.000 A 
ATOM     27  C   UNL     1       6.189   3.413  12.124  0.00  0.00    +0.000 A 
ATOM     28  C   UNL     1       7.337   4.191  11.989  0.00  0.00    +0.000 A 
ATOM     29  C   UNL     1       7.737   5.026  13.032  0.00  0.00    +0.000 A 
ATOM     30  C   UNL     1       6.976   5.099  14.201  0.00  0.00    +0.000 A 
ENDBRANCH  24  25
BRANCH  23  31
ATOM     31  N   UNL     1       6.418   4.073  17.375  0.00  0.00    +0.000 N 
ATOM     32  C   UNL     1       7.407   4.878  17.865  0.00  0.00    +0.000 C 
ATOM     33  C   UNL     1       7.311   6.377  17.811  0.00  0.00    +0.000 C 
ATOM     34  O   UNL     1       8.359   4.346  18.443  0.00  0.00    +0.000 OA
ATOM     35  H   UNL     1       6.446   3.188  17.881  0.00  0.00    +0.000 HD
ENDBRANCH  23  31
ENDBRANCH  21  23
ENDBRANCH  20  21
ENDBRANCH  19  20
ENDBRANCH   1  19
TORSDOF 12
ENDMDL
MODEL 6
REMARK VINA RESULT:      -7.3      1.630      2.415
REMARK  Name = 
REMARK  14 active torsions:
REMARK  status: ('A' for Active; 'I' for Inactive)
REMARK    1  A    between atoms: C_1  and  C_2
REMARK    2  A    between atoms: N_4  and  C_5
REMARK    3  A    between atoms: C_5  and  C_13
REMARK    4  A    between atoms: C_6  and  C_7
REMARK    5  A    between atoms: C_13  and  O_15
REMARK    6  A    between atoms: O_15  and  C_16
REMARK    7  A    between atoms: C_16  and  C_17
REMARK    8  A    between atoms: C_17  and  C_18
REMARK    9  A    between atoms: C_18  and  O_19
REMARK   10  A    between atoms: O_19  and  C_20
REMARK   11  A    between atoms: C_20  and  C_22
REMARK   12  A    between atoms: C_22  and  N_30
REMARK   13  A    between atoms: C_23  and  C_24
REMARK   14  A    between atoms: C_31  and  C_32
REMARK                            x       y       z     vdW  Elec       q    Type
REMARK                         _______ _______ _______ _____ _____    ______ ____
ROOT
ATOM      1  C   UNL     1       3.134   7.961  18.079  0.00  0.00    +0.000 C 
ENDROOT
BRANCH   1   2
ATOM      2  C   UNL     1       1.857   8.610  17.549  0.00  0.00    +0.000 C 
BRANCH   2   3
ATOM      3  O   UNL     1       1.009   9.027  18.639  0.00  0.00    +0.000 OA
BRANCH   3   4
ATOM      4  C   UNL     1       0.917  10.364  18.852  0.00  0.00    +0.000 C 
ATOM      5  O   UNL     1       1.748  11.197  18.509  0.00  0.00    +0.000 OA
BRANCH   4   6
ATOM      6  C   UNL     1      -0.383  10.766  19.494  0.00  0.00    +0.000 C 
ATOM      7  C   UNL     1      -1.180  11.705  18.953  0.00  0.00    +0.000 C 
BRANCH   7   8
ATOM      8  C   UNL     1      -2.360  12.308  19.589  0.00  0.00    +0.000 A 
ATOM      9  C   UNL     1      -2.188  13.323  20.542  0.00  0.00    +0.000 A 
ATOM     10  C   UNL     1      -3.295  13.980  21.086  0.00  0.00    +0.000 A 
ATOM     11  C   UNL     1      -4.580  13.628  20.682  0.00  0.00    +0.000 A 
ATOM     12  C   UNL     1      -4.759  12.605  19.750  0.00  0.00    +0.000 A 
ATOM     13  C   UNL     1      -3.653  11.944  19.205  0.00  0.00    +0.000 A 
ENDBRANCH   7   8
BRANCH   6  17
ATOM     14  C   UNL     1      -0.591   9.946  23.116  0.00  0.00    +0.000 C 
ATOM     15  C   UNL     1      -0.069  10.627  21.875  0.00  0.00    +0.000 C 
ATOM     16  O   UNL     1       0.748  11.541  21.931  0.00  0.00    +0.000 OA
ATOM     17  N   UNL     1      -0.660  10.149  20.710  0.00  0.00    +0.000 N 
ATOM     18  H   UNL     1      -1.656  10.021  20.866  0.00  0.00    +0.000 HD
ENDBRANCH   6  17
ENDBRANCH   4   6
ENDBRANCH   3   4
ENDBRANCH   2   3
ENDBRANCH   1   2
BRANCH   1  19
ATOM     19  C   UNL     1       2.971   6.469  18.358  0.00  0.00    +0.000 C 
BRANCH  19  20
ATOM     20  O   UNL     1       4.258   5.811  18.374  0.00  0.00    +0.000 OA
BRANCH  20  21
ATOM     21  C   UNL     1       4.302   4.598  17.766  0.00  0.00    +0.000 C 
ATOM     22  O   UNL     1       3.578   3.648  18.034  0.00  0.00    +0.000 OA
BRANCH  21  23
ATOM     23  C   UNL     1       5.363   4.486  16.691  0.00  0.00    +0.000 C 
ATOM     24  C   UNL     1       5.022   4.642  15.394  0.00  0.00    +0.000 C 
BRANCH  24  25
ATOM     25  C   UNL     1       5.784   4.293  14.183  0.00  0.00    +0.000 A 
ATOM     26  C   UNL     1       5.245   3.410  13.237  0.00  0.00    +0.000 A 
ATOM     27  C   UNL     1       5.881   3.219  12.006  0.00  0.00    +0.000 A 
ATOM     28  C   UNL     1       7.066   3.896  11.719  0.00  0.00    +0.000 A 
ATOM     29  C   UNL     1       7.618   4.760  12.663  0.00  0.00    +0.000 A 
ATOM     30  C   UNL     1       6.974   4.966  13.886  0.00  0.00    +0.000 A 
ENDBRANCH  24  25
BRANCH  23  31
ATOM     31  N   UNL     1       6.583   4.048  17.166  0.00  0.00    +0.000 N 
ATOM     32  C   UNL     1       7.636   4.728  17.709  0.00  0.00    +0.000 C 
ATOM     33  C   UNL     1       7.637   6.227  17.831  0.00  0.00    +0.000 C 
ATOM     34  O   UNL     1       8.568   4.075  18.187  0.00  0.00    +0.000 OA
ATOM     35  H   UNL     1       6.567   3.111  17.566  0.00  0.00    +0.000 HD
ENDBRANCH  23  31
ENDBRANCH  21  23
ENDBRANCH  20  21
ENDBRANCH  19  20
ENDBRANCH   1  19
TORSDOF 12
ENDMDL
MODEL 7
REMARK VINA RESULT:      -7.3      5.654      8.076
REMARK  Name = 
REMARK  14 active torsions:
REMARK  status: ('A' for Active; 'I' for Inactive)
REMARK    1  A    between atoms: C_1  and  C_2
REMARK    2  A    between atoms: N_4  and  C_5
REMARK    3  A    between atoms: C_5  and  C_13
REMARK    4  A    between atoms: C_6  and  C_7
REMARK    5  A    between atoms: C_13  and  O_15
REMARK    6  A    between atoms: O_15  and  C_16
REMARK    7  A    between atoms: C_16  and  C_17
REMARK    8  A    between atoms: C_17  and  C_18
REMARK    9  A    between atoms: C_18  and  O_19
REMARK   10  A    between atoms: O_19  and  C_20
REMARK   11  A    between atoms: C_20  and  C_22
REMARK   12  A    between atoms: C_22  and  N_30
REMARK   13  A    between atoms: C_23  and  C_24
REMARK   14  A    between atoms: C_31  and  C_32
REMARK                            x       y       z     vdW  Elec       q    Type
REMARK                         _______ _______ _______ _____ _____    ______ ____
ROOT
ATOM      1  C   UNL     1       7.460   8.962  17.946  0.00  0.00    +0.000 C 
ENDROOT
BRANCH   1   2
ATOM      2  C   UNL     1       8.813   9.273  18.584  0.00  0.00    +0.000 C 
BRANCH   2   3
ATOM      3  O   UNL     1       9.451  10.377  17.910  0.00  0.00    +0.000 OA
BRANCH   3   4
ATOM      4  C   UNL     1      10.075  11.286  18.702  0.00  0.00    +0.000 C 
ATOM      5  O   UNL     1      11.223  11.196  19.119  0.00  0.00    +0.000 OA
BRANCH   4   6
ATOM      6  C   UNL     1       9.232  12.504  18.969  0.00  0.00    +0.000 C 
ATOM      7  C   UNL     1       8.840  13.325  17.977  0.00  0.00    +0.000 C 
BRANCH   7   8
ATOM      8  C   UNL     1       8.190  14.632  18.144  0.00  0.00    +0.000 A 
ATOM      9  C   UNL     1       6.798  14.696  18.301  0.00  0.00    +0.000 A 
ATOM     10  C   UNL     1       6.168  15.916  18.561  0.00  0.00    +0.000 A 
ATOM     11  C   UNL     1       6.925  17.080  18.666  0.00  0.00    +0.000 A 
ATOM     12  C   UNL     1       8.308  17.027  18.490  0.00  0.00    +0.000 A 
ATOM     13  C   UNL     1       8.941  15.807  18.228  0.00  0.00    +0.000 A 
ENDBRANCH   7   8
BRANCH   6  17
ATOM     14  C   UNL     1       9.278  13.845  22.438  0.00  0.00    +0.000 C 
ATOM     15  C   UNL     1       9.805  13.558  21.054  0.00  0.00    +0.000 C 
ATOM     16  O   UNL     1      10.852  14.050  20.643  0.00  0.00    +0.000 OA
ATOM     17  N   UNL     1       8.953  12.751  20.309  0.00  0.00    +0.000 N 
ATOM     18  H   UNL     1       7.991  13.047  20.460  0.00  0.00    +0.000 HD
ENDBRANCH   6  17
ENDBRANCH   4   6
ENDBRANCH   3   4
ENDBRANCH   2   3
ENDBRANCH   1   2
BRANCH   1  19
ATOM     19  C   UNL     1       7.324   7.502  17.521  0.00  0.00    +0.000 C 
BRANCH  19  20
ATOM     20  O   UNL     1       8.138   6.651  18.358  0.00  0.00    +0.000 OA
BRANCH  20  21
ATOM     21  C   UNL     1       7.455   5.806  19.172  0.00  0.00    +0.000 C 
ATOM     22  O   UNL     1       7.767   5.530  20.324  0.00  0.00    +0.000 OA
BRANCH  21  23
ATOM     23  C   UNL     1       6.229   5.189  18.533  0.00  0.00    +0.000 C 
ATOM     24  C   UNL     1       5.022   5.334  19.119  0.00  0.00    +0.000 C 
BRANCH  24  25
ATOM     25  C   UNL     1       3.770   4.601  18.865  0.00  0.00    +0.000 A 
ATOM     26  C   UNL     1       2.716   5.216  18.176  0.00  0.00    +0.000 A 
ATOM     27  C   UNL     1       1.603   4.470  17.776  0.00  0.00    +0.000 A 
ATOM     28  C   UNL     1       1.528   3.111  18.073  0.00  0.00    +0.000 A 
ATOM     29  C   UNL     1       2.564   2.496  18.775  0.00  0.00    +0.000 A 
ATOM     30  C   UNL     1       3.685   3.236  19.161  0.00  0.00    +0.000 A 
ENDBRANCH  24  25
BRANCH  23  31
ATOM     31  N   UNL     1       6.522   4.367  17.463  0.00  0.00    +0.000 N 
ATOM     32  C   UNL     1       6.156   4.430  16.149  0.00  0.00    +0.000 C 
ATOM     33  C   UNL     1       5.233   5.498  15.631  0.00  0.00    +0.000 C 
ATOM     34  O   UNL     1       6.674   3.634  15.360  0.00  0.00    +0.000 OA
ATOM     35  H   UNL     1       7.433   3.911  17.520  0.00  0.00    +0.000 HD
ENDBRANCH  23  31
ENDBRANCH  21  23
ENDBRANCH  20  21
ENDBRANCH  19  20
ENDBRANCH   1  19
TORSDOF 12
ENDMDL
MODEL 8
REMARK VINA RESULT:      -7.3      6.367     10.580
REMARK  Name = 
REMARK  14 active torsions:
REMARK  status: ('A' for Active; 'I' for Inactive)
REMARK    1  A    between atoms: C_1  and  C_2
REMARK    2  A    between atoms: N_4  and  C_5
REMARK    3  A    between atoms: C_5  and  C_13
REMARK    4  A    between atoms: C_6  and  C_7
REMARK    5  A    between atoms: C_13  and  O_15
REMARK    6  A    between atoms: O_15  and  C_16
REMARK    7  A    between atoms: C_16  and  C_17
REMARK    8  A    between atoms: C_17  and  C_18
REMARK    9  A    between atoms: C_18  and  O_19
REMARK   10  A    between atoms: O_19  and  C_20
REMARK   11  A    between atoms: C_20  and  C_22
REMARK   12  A    between atoms: C_22  and  N_30
REMARK   13  A    between atoms: C_23  and  C_24
REMARK   14  A    between atoms: C_31  and  C_32
REMARK                            x       y       z     vdW  Elec       q    Type
REMARK                         _______ _______ _______ _____ _____    ______ ____
ROOT
ATOM      1  C   UNL     1       8.805   9.771  17.769  0.00  0.00    +0.000 C 
ENDROOT
BRANCH   1   2
ATOM      2  C   UNL     1       7.514   8.954  17.777  0.00  0.00    +0.000 C 
BRANCH   2   3
ATOM      3  O   UNL     1       7.739   7.643  17.221  0.00  0.00    +0.000 OA
BRANCH   3   4
ATOM      4  C   UNL     1       7.560   6.594  18.063  0.00  0.00    +0.000 C 
ATOM      5  O   UNL     1       8.234   6.360  19.060  0.00  0.00    +0.000 OA
BRANCH   4   6
ATOM      6  C   UNL     1       6.365   5.754  17.705  0.00  0.00    +0.000 C 
ATOM      7  C   UNL     1       5.259   5.731  18.472  0.00  0.00    +0.000 C 
BRANCH   7   8
ATOM      8  C   UNL     1       4.124   4.810  18.325  0.00  0.00    +0.000 A 
ATOM      9  C   UNL     1       2.867   5.316  17.962  0.00  0.00    +0.000 A 
ATOM     10  C   UNL     1       1.798   4.450  17.717  0.00  0.00    +0.000 A 
ATOM     11  C   UNL     1       1.977   3.074  17.835  0.00  0.00    +0.000 A 
ATOM     12  C   UNL     1       3.218   2.565  18.216  0.00  0.00    +0.000 A 
ATOM     13  C   UNL     1       4.290   3.430  18.462  0.00  0.00    +0.000 A 
ENDBRANCH   7   8
BRANCH   6  17
ATOM     14  C   UNL     1       6.371   4.484  14.209  0.00  0.00    +0.000 C 
ATOM     15  C   UNL     1       5.990   5.385  15.357  0.00  0.00    +0.000 C 
ATOM     16  O   UNL     1       5.334   6.409  15.189  0.00  0.00    +0.000 OA
ATOM     17  N   UNL     1       6.515   4.959  16.573  0.00  0.00    +0.000 N 
ATOM     18  H   UNL     1       7.474   4.651  16.436  0.00  0.00    +0.000 HD
ENDBRANCH   6  17
ENDBRANCH   4   6
ENDBRANCH   3   4
ENDBRANCH   2   3
ENDBRANCH   1   2
BRANCH   1  19
ATOM     19  C   UNL     1       9.062  10.492  19.090  0.00  0.00    +0.000 C 
BRANCH  19  20
ATOM     20  O   UNL     1      10.431  10.946  19.164  0.00  0.00    +0.000 OA
BRANCH  20  21
ATOM     21  C   UNL     1      10.706  12.089  18.485  0.00  0.00    +0.000 C 
ATOM     22  O   UNL     1      11.085  12.144  17.322  0.00  0.00    +0.000 OA
BRANCH  21  23
ATOM     23  C   UNL     1      10.513  13.352  19.298  0.00  0.00    +0.000 C 
ATOM     24  C   UNL     1      10.497  13.287  20.645  0.00  0.00    +0.000 C 
BRANCH  24  25
ATOM     25  C   UNL     1      10.041  14.292  21.621  0.00  0.00    +0.000 A 
ATOM     26  C   UNL     1       9.020  13.982  22.531  0.00  0.00    +0.000 A 
ATOM     27  C   UNL     1       8.711  14.864  23.571  0.00  0.00    +0.000 A 
ATOM     28  C   UNL     1       9.407  16.065  23.701  0.00  0.00    +0.000 A 
ATOM     29  C   UNL     1      10.410  16.388  22.788  0.00  0.00    +0.000 A 
ATOM     30  C   UNL     1      10.732  15.500  21.758  0.00  0.00    +0.000 A 
ENDBRANCH  24  25
BRANCH  23  31
ATOM     31  N   UNL     1      10.191  14.454  18.531  0.00  0.00    +0.000 N 
ATOM     32  C   UNL     1       8.985  14.949  18.122  0.00  0.00    +0.000 C 
ATOM     33  C   UNL     1       7.691  14.254  18.444  0.00  0.00    +0.000 C 
ATOM     34  O   UNL     1       8.966  16.043  17.550  0.00  0.00    +0.000 OA
ATOM     35  H   UNL     1      10.843  15.233  18.619  0.00  0.00    +0.000 HD
ENDBRANCH  23  31
ENDBRANCH  21  23
ENDBRANCH  20  21
ENDBRANCH  19  20
ENDBRANCH   1  19
TORSDOF 12
ENDMDL
MODEL 9
REMARK VINA RESULT:      -7.3      6.114      8.388
REMARK  Name = 
REMARK  14 active torsions:
REMARK  status: ('A' for Active; 'I' for Inactive)
REMARK    1  A    between atoms: C_1  and  C_2
REMARK    2  A    between atoms: N_4  and  C_5
REMARK    3  A    between atoms: C_5  and  C_13
REMARK    4  A    between atoms: C_6  and  C_7
REMARK    5  A    between atoms: C_13  and  O_15
REMARK    6  A    between atoms: O_15  and  C_16
REMARK    7  A    between atoms: C_16  and  C_17
REMARK    8  A    between atoms: C_17  and  C_18
REMARK    9  A    between atoms: C_18  and  O_19
REMARK   10  A    between atoms: O_19  and  C_20
REMARK   11  A    between atoms: C_20  and  C_22
REMARK   12  A    between atoms: C_22  and  N_30
REMARK   13  A    between atoms: C_23  and  C_24
REMARK   14  A    between atoms: C_31  and  C_32
REMARK                            x       y       z     vdW  Elec       q    Type
REMARK                         _______ _______ _______ _____ _____    ______ ____
ROOT
ATOM      1  C   UNL     1       7.824   8.880  17.710  0.00  0.00    +0.000 C 
ENDROOT
BRANCH   1   2
ATOM      2  C   UNL     1       8.935   9.187  18.713  0.00  0.00    +0.000 C 
BRANCH   2   3
ATOM      3  O   UNL     1       8.860  10.559  19.151  0.00  0.00    +0.000 OA
BRANCH   3   4
ATOM      4  C   UNL     1       9.794  11.404  18.645  0.00  0.00    +0.000 C 
ATOM      5  O   UNL     1      10.423  11.228  17.608  0.00  0.00    +0.000 OA
BRANCH   4   6
ATOM      6  C   UNL     1       9.941  12.664  19.452  0.00  0.00    +0.000 C 
ATOM      7  C   UNL     1       9.079  12.978  20.437  0.00  0.00    +0.000 C 
BRANCH   7   8
ATOM      8  C   UNL     1       9.012  14.262  21.150  0.00  0.00    +0.000 A 
ATOM      9  C   UNL     1       9.908  14.517  22.199  0.00  0.00    +0.000 A 
ATOM     10  C   UNL     1       9.931  15.766  22.824  0.00  0.00    +0.000 A 
ATOM     11  C   UNL     1       9.059  16.768  22.407  0.00  0.00    +0.000 A 
ATOM     12  C   UNL     1       8.150  16.515  21.379  0.00  0.00    +0.000 A 
ATOM     13  C   UNL     1       8.125  15.264  20.752  0.00  0.00    +0.000 A 
ENDBRANCH   7   8
BRANCH   6  17
ATOM     14  C   UNL     1      11.925  15.437  17.966  0.00  0.00    +0.000 C 
ATOM     15  C   UNL     1      10.731  14.535  18.164  0.00  0.00    +0.000 C 
ATOM     16  O   UNL     1       9.654  14.755  17.618  0.00  0.00    +0.000 OA
ATOM     17  N   UNL     1      10.979  13.503  19.062  0.00  0.00    +0.000 N 
ATOM     18  H   UNL     1      11.509  13.863  19.851  0.00  0.00    +0.000 HD
ENDBRANCH   6  17
ENDBRANCH   4   6
ENDBRANCH   3   4
ENDBRANCH   2   3
ENDBRANCH   1   2
BRANCH   1  19
ATOM     19  C   UNL     1       7.696   7.390  17.402  0.00  0.00    +0.000 C 
BRANCH  19  20
ATOM     20  O   UNL     1       7.397   6.646  18.604  0.00  0.00    +0.000 OA
BRANCH  20  21
ATOM     21  C   UNL     1       7.394   5.295  18.471  0.00  0.00    +0.000 C 
ATOM     22  O   UNL     1       8.350   4.562  18.692  0.00  0.00    +0.000 OA
BRANCH  21  23
ATOM     23  C   UNL     1       6.072   4.724  18.000  0.00  0.00    +0.000 C 
ATOM     24  C   UNL     1       4.987   4.797  18.799  0.00  0.00    +0.000 C 
BRANCH  24  25
ATOM     25  C   UNL     1       3.708   4.074  18.699  0.00  0.00    +0.000 A 
ATOM     26  C   UNL     1       3.409   3.037  19.593  0.00  0.00    +0.000 A 
ATOM     27  C   UNL     1       2.129   2.474  19.619  0.00  0.00    +0.000 A 
ATOM     28  C   UNL     1       1.146   2.931  18.744  0.00  0.00    +0.000 A 
ATOM     29  C   UNL     1       1.442   3.949  17.838  0.00  0.00    +0.000 A 
ATOM     30  C   UNL     1       2.714   4.525  17.823  0.00  0.00    +0.000 A 
ENDBRANCH  24  25
BRANCH  23  31
ATOM     31  N   UNL     1       6.172   4.010  16.822  0.00  0.00    +0.000 N 
ATOM     32  C   UNL     1       5.897   4.357  15.530  0.00  0.00    +0.000 C 
ATOM     33  C   UNL     1       5.333   5.705  15.172  0.00  0.00    +0.000 C 
ATOM     34  O   UNL     1       6.206   3.566  14.634  0.00  0.00    +0.000 OA
ATOM     35  H   UNL     1       6.914   3.312  16.814  0.00  0.00    +0.000 HD
ENDBRANCH  23  31
ENDBRANCH  21  23
ENDBRANCH  20  21
ENDBRANCH  19  20
ENDBRANCH   1  19
TORSDOF 12
ENDMDL
