MODEL 1
REMARK VINA RESULT:      -8.4      0.000      0.000
REMARK  Name = 
REMARK  9 active torsions:
REMARK  status: ('A' for Active; 'I' for Inactive)
REMARK    1  A    between atoms: C_1  and  S_2
REMARK    2  A    between atoms: S_2  and  C_5
REMARK    3  A    between atoms: C_8  and  C_9
REMARK    4  A    between atoms: C_12  and  C_13
REMARK    5  A    between atoms: C_13  and  C_14
REMARK    6  A    between atoms: C_13  and  C_18
REMARK    7  A    between atoms: C_14  and  C_15
REMARK    8  A    between atoms: C_18  and  N_19
REMARK    9  A    between atoms: C_18  and  C_20
REMARK                            x       y       z     vdW  Elec       q    Type
REMARK                         _______ _______ _______ _____ _____    ______ ____
ROOT
ATOM      1  C   UNL     1       6.146   4.674  16.401  0.00  0.00    +0.000 C 
ENDROOT
BRANCH   1   5
ATOM      2  C   UNL     1       3.259   5.967  18.071  0.00  0.00    +0.000 A 
ATOM      3  N   UNL     1       2.752   4.839  17.559  0.00  0.00    +0.000 NA
ATOM      4  O   UNL     1       3.837   4.209  16.994  0.00  0.00    +0.000 OA
ATOM      5  C   UNL     1       4.893   5.056  17.110  0.00  0.00    +0.000 A 
ATOM      6  N   UNL     1       4.601   6.148  17.780  0.00  0.00    +0.000 NA
BRANCH   2  10
ATOM      7  C   UNL     1       1.070   8.918  20.228  0.00  0.00    +0.000 A 
ATOM      8  C   UNL     1       1.527   9.181  18.941  0.00  0.00    +0.000 A 
ATOM      9  C   UNL     1       2.237   8.193  18.254  0.00  0.00    +0.000 A 
ATOM     10  C   UNL     1       2.488   6.935  18.841  0.00  0.00    +0.000 A 
ATOM     11  C   UNL     1       1.994   6.685  20.136  0.00  0.00    +0.000 A 
ATOM     12 CL   UNL     1       2.243   5.218  21.023  0.00  0.00    +0.000 Cl
ATOM     13  C   UNL     1       1.277   7.678  20.818  0.00  0.00    +0.000 A 
BRANCH   7  15
ATOM     14  C   UNL     1      -0.389   9.284  22.554  0.00  0.00    +0.000 C 
ATOM     15  S   UNL     1       0.210  10.169  21.136  0.00  0.00    +0.000 S 
ATOM     16  O   UNL     1      -0.933  10.587  20.344  0.00  0.00    +0.000 OA
ATOM     17  O   UNL     1       1.194  11.132  21.586  0.00  0.00    +0.000 OA
ENDBRANCH   7  15
ENDBRANCH   2  10
ENDBRANCH   1   5
BRANCH   1  18
ATOM     18  C   UNL     1       7.330   4.475  17.397  0.00  0.00    +0.000 C 
BRANCH  18  19
ATOM     19  C   UNL     1       7.231   5.365  18.619  0.00  0.00    +0.000 C 
ATOM     20  C   UNL     1       8.384   5.443  19.590  0.00  0.00    +0.000 C 
ATOM     21  C   UNL     1       8.050   6.632  18.742  0.00  0.00    +0.000 C 
ENDBRANCH  18  19
ENDBRANCH   1  18
BRANCH   1  22
ATOM     22  C   UNL     1       6.498   5.669  15.271  0.00  0.00    +0.000 C 
BRANCH  22  23
ATOM     23  C   UNL     1       7.018   5.122  13.892  0.00  0.00    +0.000 C 
ATOM     24  O   UNL     1       8.140   5.467  13.493  0.00  0.00    +0.000 OA
ATOM     25  N   UNL     1       6.339   4.123  13.229  0.00  0.00    +0.000 N 
ATOM     26  C   UNL     1       6.995   3.392  12.150  0.00  0.00    +0.000 C 
ATOM     27  C   UNL     1       5.992   2.329  11.724  0.00  0.00    +0.000 C 
ATOM     28  C   UNL     1       4.670   3.035  11.946  0.00  0.00    +0.000 C 
ATOM     29  F   UNL     1       4.453   3.880  10.898  0.00  0.00    +0.000 F 
ATOM     30  C   UNL     1       4.906   3.864  13.209  0.00  0.00    +0.000 C 
ENDBRANCH  22  23
BRANCH  22  31
ATOM     31  N   UNL     1       5.353   6.589  14.981  0.00  0.00    +0.000 NA
ATOM     32  H   UNL     1       5.417   7.372  15.640  0.00  0.00    +0.000 HD
ATOM     33  H   UNL     1       4.503   6.116  15.313  0.00  0.00    +0.000 HD
ENDBRANCH  22  31
ENDBRANCH   1  22
TORSDOF 8
ENDMDL
MODEL 2
REMARK VINA RESULT:      -8.1      3.278      5.207
REMARK  Name = 
REMARK  9 active torsions:
REMARK  status: ('A' for Active; 'I' for Inactive)
REMARK    1  A    between atoms: C_1  and  S_2
REMARK    2  A    between atoms: S_2  and  C_5
REMARK    3  A    between atoms: C_8  and  C_9
REMARK    4  A    between atoms: C_12  and  C_13
REMARK    5  A    between atoms: C_13  and  C_14
REMARK    6  A    between atoms: C_13  and  C_18
REMARK    7  A    between atoms: C_14  and  C_15
REMARK    8  A    between atoms: C_18  and  N_19
REMARK    9  A    between atoms: C_18  and  C_20
REMARK                            x       y       z     vdW  Elec       q    Type
REMARK                         _______ _______ _______ _____ _____    ______ ____
ROOT
ATOM      1  C   UNL     1       4.609   6.189  17.890  0.00  0.00    +0.000 C 
ENDROOT
BRANCH   1   5
ATOM      2  C   UNL     1       2.111   8.663  18.556  0.00  0.00    +0.000 A 
ATOM      3  N   UNL     1       2.205   8.772  17.225  0.00  0.00    +0.000 NA
ATOM      4  O   UNL     1       3.066   7.761  16.865  0.00  0.00    +0.000 OA
ATOM      5  C   UNL     1       3.513   7.191  18.015  0.00  0.00    +0.000 A 
ATOM      6  N   UNL     1       2.947   7.694  19.089  0.00  0.00    +0.000 NA
BRANCH   2  10
ATOM      7  C   UNL     1      -0.369  11.207  20.906  0.00  0.00    +0.000 A 
ATOM      8  C   UNL     1       0.126  11.642  19.681  0.00  0.00    +0.000 A 
ATOM      9  C   UNL     1       0.932  10.785  18.928  0.00  0.00    +0.000 A 
ATOM     10  C   UNL     1       1.242   9.487  19.386  0.00  0.00    +0.000 A 
ATOM     11  C   UNL     1       0.709   9.062  20.619  0.00  0.00    +0.000 A 
ATOM     12 CL   UNL     1       1.020   7.523  21.351  0.00  0.00    +0.000 Cl
ATOM     13  C   UNL     1      -0.104   9.924  21.367  0.00  0.00    +0.000 A 
BRANCH   7  15
ATOM     14  C   UNL     1      -0.573  13.867  21.653  0.00  0.00    +0.000 C 
ATOM     15  S   UNL     1      -1.353  12.291  21.900  0.00  0.00    +0.000 S 
ATOM     16  O   UNL     1      -1.174  11.907  23.288  0.00  0.00    +0.000 OA
ATOM     17  O   UNL     1      -2.674  12.342  21.307  0.00  0.00    +0.000 OA
ENDBRANCH   7  15
ENDBRANCH   2  10
ENDBRANCH   1   5
BRANCH   1  18
ATOM     18  C   UNL     1       4.310   5.151  16.764  0.00  0.00    +0.000 C 
BRANCH  18  19
ATOM     19  C   UNL     1       5.384   5.111  15.696  0.00  0.00    +0.000 C 
ATOM     20  C   UNL     1       6.749   4.553  16.021  0.00  0.00    +0.000 C 
ATOM     21  C   UNL     1       5.847   3.803  15.090  0.00  0.00    +0.000 C 
ENDBRANCH  18  19
ENDBRANCH   1  18
BRANCH   1  22
ATOM     22  C   UNL     1       4.927   5.507  19.241  0.00  0.00    +0.000 C 
BRANCH  22  23
ATOM     23  C   UNL     1       4.436   4.036  19.499  0.00  0.00    +0.000 C 
ATOM     24  O   UNL     1       5.243   3.103  19.377  0.00  0.00    +0.000 OA
ATOM     25  N   UNL     1       3.196   3.793  20.047  0.00  0.00    +0.000 N 
ATOM     26  C   UNL     1       2.889   2.477  20.596  0.00  0.00    +0.000 C 
ATOM     27  C   UNL     1       1.490   2.606  21.181  0.00  0.00    +0.000 C 
ATOM     28  C   UNL     1       0.841   3.593  20.232  0.00  0.00    +0.000 C 
ATOM     29  F   UNL     1       0.474   2.926  19.101  0.00  0.00    +0.000 F 
ATOM     30  C   UNL     1       1.970   4.566  19.887  0.00  0.00    +0.000 C 
ENDBRANCH  22  23
BRANCH  22  31
ATOM     31  N   UNL     1       6.394   5.544  19.536  0.00  0.00    +0.000 NA
ATOM     32  H   UNL     1       6.715   6.503  19.362  0.00  0.00    +0.000 HD
ATOM     33  H   UNL     1       6.861   5.035  18.775  0.00  0.00    +0.000 HD
ENDBRANCH  22  31
ENDBRANCH   1  22
TORSDOF 8
ENDMDL
MODEL 3
REMARK VINA RESULT:      -7.9      2.529      3.770
REMARK  Name = 
REMARK  9 active torsions:
REMARK  status: ('A' for Active; 'I' for Inactive)
REMARK    1  A    between atoms: C_1  and  S_2
REMARK    2  A    between atoms: S_2  and  C_5
REMARK    3  A    between atoms: C_8  and  C_9
REMARK    4  A    between atoms: C_12  and  C_13
REMARK    5  A    between atoms: C_13  and  C_14
REMARK    6  A    between atoms: C_13  and  C_18
REMARK    7  A    between atoms: C_14  and  C_15
REMARK    8  A    between atoms: C_18  and  N_19
REMARK    9  A    between atoms: C_18  and  C_20
REMARK                            x       y       z     vdW  Elec       q    Type
REMARK                         _______ _______ _______ _____ _____    ______ ____
ROOT
ATOM      1  C   UNL     1       4.246   4.167  18.716  0.00  0.00    +0.000 C 
ENDROOT
BRANCH   1   5
ATOM      2  C   UNL     1       2.216   6.728  20.172  0.00  0.00    +0.000 A 
ATOM      3  N   UNL     1       1.824   5.673  20.897  0.00  0.00    +0.000 NA
ATOM      4  O   UNL     1       2.651   4.654  20.482  0.00  0.00    +0.000 OA
ATOM      5  C   UNL     1       3.402   5.143  19.460  0.00  0.00    +0.000 A 
ATOM      6  N   UNL     1       3.189   6.420  19.235  0.00  0.00    +0.000 NA
BRANCH   2  10
ATOM      7  C   UNL     1       0.544  10.604  20.742  0.00  0.00    +0.000 A 
ATOM      8  C   UNL     1       0.713   9.745  21.822  0.00  0.00    +0.000 A 
ATOM      9  C   UNL     1       1.269   8.482  21.608  0.00  0.00    +0.000 A 
ATOM     10  C   UNL     1       1.669   8.070  20.319  0.00  0.00    +0.000 A 
ATOM     11  C   UNL     1       1.509   8.969  19.245  0.00  0.00    +0.000 A 
ATOM     12 CL   UNL     1       1.905   8.617  17.596  0.00  0.00    +0.000 Cl
ATOM     13  C   UNL     1       0.956  10.237  19.467  0.00  0.00    +0.000 A 
BRANCH   7  15
ATOM     14  C   UNL     1      -0.460  12.758  19.317  0.00  0.00    +0.000 C 
ATOM     15  S   UNL     1      -0.202  12.191  20.980  0.00  0.00    +0.000 S 
ATOM     16  O   UNL     1       0.781  13.055  21.607  0.00  0.00    +0.000 OA
ATOM     17  O   UNL     1      -1.497  11.974  21.590  0.00  0.00    +0.000 OA
ENDBRANCH   7  15
ENDBRANCH   2  10
ENDBRANCH   1   5
BRANCH   1  18
ATOM     18  C   UNL     1       4.252   2.770  19.409  0.00  0.00    +0.000 C 
BRANCH  18  19
ATOM     19  C   UNL     1       3.359   1.761  18.715  0.00  0.00    +0.000 C 
ATOM     20  C   UNL     1       1.870   1.774  18.966  0.00  0.00    +0.000 C 
ATOM     21  C   UNL     1       2.397   2.178  17.623  0.00  0.00    +0.000 C 
ENDBRANCH  18  19
ENDBRANCH   1  18
BRANCH   1  22
ATOM     22  C   UNL     1       5.677   4.703  18.476  0.00  0.00    +0.000 C 
BRANCH  22  23
ATOM     23  C   UNL     1       5.980   5.549  17.186  0.00  0.00    +0.000 C 
ATOM     24  O   UNL     1       6.094   6.780  17.288  0.00  0.00    +0.000 OA
ATOM     25  N   UNL     1       6.316   4.932  16.002  0.00  0.00    +0.000 N 
ATOM     26  C   UNL     1       6.922   5.707  14.925  0.00  0.00    +0.000 C 
ATOM     27  C   UNL     1       7.230   4.695  13.831  0.00  0.00    +0.000 C 
ATOM     28  C   UNL     1       6.091   3.708  13.985  0.00  0.00    +0.000 C 
ATOM     29  F   UNL     1       4.981   4.238  13.396  0.00  0.00    +0.000 F 
ATOM     30  C   UNL     1       5.866   3.642  15.496  0.00  0.00    +0.000 C 
ENDBRANCH  22  23
BRANCH  22  31
ATOM     31  N   UNL     1       6.165   5.493  19.650  0.00  0.00    +0.000 NA
ATOM     32  H   UNL     1       5.394   6.103  19.948  0.00  0.00    +0.000 HD
ATOM     33  H   UNL     1       6.835   6.182  19.286  0.00  0.00    +0.000 HD
ENDBRANCH  22  31
ENDBRANCH   1  22
TORSDOF 8
ENDMDL
MODEL 4
REMARK VINA RESULT:      -7.9      5.389     10.916
REMARK  Name = 
REMARK  9 active torsions:
REMARK  status: ('A' for Active; 'I' for Inactive)
REMARK    1  A    between atoms: C_1  and  S_2
REMARK    2  A    between atoms: S_2  and  C_5
REMARK    3  A    between atoms: C_8  and  C_9
REMARK    4  A    between atoms: C_12  and  C_13
REMARK    5  A    between atoms: C_13  and  C_14
REMARK    6  A    between atoms: C_13  and  C_18
REMARK    7  A    between atoms: C_14  and  C_15
REMARK    8  A    between atoms: C_18  and  N_19
REMARK    9  A    between atoms: C_18  and  C_20
REMARK                            x       y       z     vdW  Elec       q    Type
REMARK                         _______ _______ _______ _____ _____    ______ ____
ROOT
ATOM      1  C   UNL     1      -1.093  11.011  19.732  0.00  0.00    +0.000 C 
ENDROOT
BRANCH   1   5
ATOM      2  C   UNL     1       1.712   9.050  18.690  0.00  0.00    +0.000 A 
ATOM      3  N   UNL     1       1.946  10.180  18.012  0.00  0.00    +0.000 NA
ATOM      4  O   UNL     1       0.970  11.044  18.451  0.00  0.00    +0.000 OA
ATOM      5  C   UNL     1       0.155  10.337  19.277  0.00  0.00    +0.000 A 
ATOM      6  N   UNL     1       0.571   9.107  19.475  0.00  0.00    +0.000 NA
BRANCH   2  10
ATOM      7  C   UNL     1       4.168   5.592  18.290  0.00  0.00    +0.000 A 
ATOM      8  C   UNL     1       4.241   6.620  17.355  0.00  0.00    +0.000 A 
ATOM      9  C   UNL     1       3.429   7.744  17.514  0.00  0.00    +0.000 A 
ATOM     10  C   UNL     1       2.546   7.858  18.609  0.00  0.00    +0.000 A 
ATOM     11  C   UNL     1       2.508   6.814  19.555  0.00  0.00    +0.000 A 
ATOM     12 CL   UNL     1       1.459   6.766  20.932  0.00  0.00    +0.000 Cl
ATOM     13  C   UNL     1       3.330   5.690  19.393  0.00  0.00    +0.000 A 
BRANCH   7  15
ATOM     14  C   UNL     1       6.776   4.797  17.802  0.00  0.00    +0.000 C 
ATOM     15  S   UNL     1       5.152   4.136  18.085  0.00  0.00    +0.000 S 
ATOM     16  O   UNL     1       4.715   3.471  16.871  0.00  0.00    +0.000 OA
ATOM     17  O   UNL     1       5.162   3.437  19.353  0.00  0.00    +0.000 OA
ENDBRANCH   7  15
ENDBRANCH   2  10
ENDBRANCH   1   5
BRANCH   1  18
ATOM     18  C   UNL     1      -1.803  11.755  18.559  0.00  0.00    +0.000 C 
BRANCH  18  19
ATOM     19  C   UNL     1      -2.628  10.832  17.686  0.00  0.00    +0.000 C 
ATOM     20  C   UNL     1      -3.877  11.348  17.013  0.00  0.00    +0.000 C 
ATOM     21  C   UNL     1      -2.679  11.002  16.182  0.00  0.00    +0.000 C 
ENDBRANCH  18  19
ENDBRANCH   1  18
BRANCH   1  22
ATOM     22  C   UNL     1      -0.841  11.940  20.942  0.00  0.00    +0.000 C 
BRANCH  22  23
ATOM     23  C   UNL     1      -1.718  11.780  22.237  0.00  0.00    +0.000 C 
ATOM     24  O   UNL     1      -1.306  11.060  23.158  0.00  0.00    +0.000 OA
ATOM     25  N   UNL     1      -2.824  12.576  22.441  0.00  0.00    +0.000 N 
ATOM     26  C   UNL     1      -3.420  12.665  23.770  0.00  0.00    +0.000 C 
ATOM     27  C   UNL     1      -4.543  13.683  23.635  0.00  0.00    +0.000 C 
ATOM     28  C   UNL     1      -5.019  13.441  22.217  0.00  0.00    +0.000 C 
ATOM     29  F   UNL     1      -5.814  12.334  22.213  0.00  0.00    +0.000 F 
ATOM     30  C   UNL     1      -3.734  13.130  21.448  0.00  0.00    +0.000 C 
ENDBRANCH  22  23
BRANCH  22  31
ATOM     31  N   UNL     1       0.593  11.898  21.370  0.00  0.00    +0.000 NA
ATOM     32  H   UNL     1       1.151  12.293  20.604  0.00  0.00    +0.000 HD
ATOM     33  H   UNL     1       0.882  10.912  21.340  0.00  0.00    +0.000 HD
ENDBRANCH  22  31
ENDBRANCH   1  22
TORSDOF 8
ENDMDL
MODEL 5
REMARK VINA RESULT:      -7.8      5.437     10.833
REMARK  Name = 
REMARK  9 active torsions:
REMARK  status: ('A' for Active; 'I' for Inactive)
REMARK    1  A    between atoms: C_1  and  S_2
REMARK    2  A    between atoms: S_2  and  C_5
REMARK    3  A    between atoms: C_8  and  C_9
REMARK    4  A    between atoms: C_12  and  C_13
REMARK    5  A    between atoms: C_13  and  C_14
REMARK    6  A    between atoms: C_13  and  C_18
REMARK    7  A    between atoms: C_14  and  C_15
REMARK    8  A    between atoms: C_18  and  N_19
REMARK    9  A    between atoms: C_18  and  C_20
REMARK                            x       y       z     vdW  Elec       q    Type
REMARK                         _______ _______ _______ _____ _____    ______ ____
ROOT
ATOM      1  C   UNL     1      -0.663  10.930  20.027  0.00  0.00    +0.000 C 
ENDROOT
BRANCH   1   5
ATOM      2  C   UNL     1       1.642   8.205  19.786  0.00  0.00    +0.000 A 
ATOM      3  N   UNL     1       1.385   8.183  21.100  0.00  0.00    +0.000 NA
ATOM      4  O   UNL     1       0.402   9.133  21.265  0.00  0.00    +0.000 OA
ATOM      5  C   UNL     1       0.222   9.732  20.059  0.00  0.00    +0.000 A 
ATOM      6  N   UNL     1       0.947   9.192  19.106  0.00  0.00    +0.000 NA
BRANCH   2  10
ATOM      7  C   UNL     1       4.364   5.673  17.706  0.00  0.00    +0.000 A 
ATOM      8  C   UNL     1       4.190   6.996  17.310  0.00  0.00    +0.000 A 
ATOM      9  C   UNL     1       3.295   7.805  18.014  0.00  0.00    +0.000 A 
ATOM     10  C   UNL     1       2.577   7.306  19.121  0.00  0.00    +0.000 A 
ATOM     11  C   UNL     1       2.789   5.971  19.516  0.00  0.00    +0.000 A 
ATOM     12 CL   UNL     1       1.965   5.183  20.821  0.00  0.00    +0.000 Cl
ATOM     13  C   UNL     1       3.693   5.165  18.810  0.00  0.00    +0.000 A 
BRANCH   7  15
ATOM     14  C   UNL     1       5.582   5.431  15.229  0.00  0.00    +0.000 C 
ATOM     15  S   UNL     1       5.456   4.615  16.801  0.00  0.00    +0.000 S 
ATOM     16  O   UNL     1       4.781   3.346  16.602  0.00  0.00    +0.000 OA
ATOM     17  O   UNL     1       6.751   4.674  17.447  0.00  0.00    +0.000 OA
ENDBRANCH   7  15
ENDBRANCH   2  10
ENDBRANCH   1   5
BRANCH   1  18
ATOM     18  C   UNL     1      -1.033  11.328  18.564  0.00  0.00    +0.000 C 
BRANCH  18  19
ATOM     19  C   UNL     1      -2.281  10.633  18.060  0.00  0.00    +0.000 C 
ATOM     20  C   UNL     1      -3.003  11.166  16.845  0.00  0.00    +0.000 C 
ATOM     21  C   UNL     1      -2.282   9.855  16.760  0.00  0.00    +0.000 C 
ENDBRANCH  18  19
ENDBRANCH   1  18
BRANCH   1  22
ATOM     22  C   UNL     1      -0.063  12.115  20.818  0.00  0.00    +0.000 C 
BRANCH  22  23
ATOM     23  C   UNL     1      -0.674  12.503  22.213  0.00  0.00    +0.000 C 
ATOM     24  O   UNL     1      -0.604  11.690  23.147  0.00  0.00    +0.000 OA
ATOM     25  N   UNL     1      -1.098  13.789  22.464  0.00  0.00    +0.000 N 
ATOM     26  C   UNL     1      -1.336  14.222  23.836  0.00  0.00    +0.000 C 
ATOM     27  C   UNL     1      -1.700  15.696  23.732  0.00  0.00    +0.000 C 
ATOM     28  C   UNL     1      -2.435  15.746  22.408  0.00  0.00    +0.000 C 
ATOM     29  F   UNL     1      -3.704  15.287  22.603  0.00  0.00    +0.000 F 
ATOM     30  C   UNL     1      -1.677  14.747  21.531  0.00  0.00    +0.000 C 
ENDBRANCH  22  23
BRANCH  22  31
ATOM     31  N   UNL     1       1.412  11.948  21.010  0.00  0.00    +0.000 NA
ATOM     32  H   UNL     1       1.768  12.823  21.412  0.00  0.00    +0.000 HD
ATOM     33  H   UNL     1       1.837  11.971  20.075  0.00  0.00    +0.000 HD
ENDBRANCH  22  31
ENDBRANCH   1  22
TORSDOF 8
ENDMDL
MODEL 6
REMARK VINA RESULT:      -7.8      3.635      5.439
REMARK  Name = 
REMARK  9 active torsions:
REMARK  status: ('A' for Active; 'I' for Inactive)
REMARK    1  A    between atoms: C_1  and  S_2
REMARK    2  A    between atoms: S_2  and  C_5
REMARK    3  A    between atoms: C_8  and  C_9
REMARK    4  A    between atoms: C_12  and  C_13
REMARK    5  A    between atoms: C_13  and  C_14
REMARK    6  A    between atoms: C_13  and  C_18
REMARK    7  A    between atoms: C_14  and  C_15
REMARK    8  A    between atoms: C_18  and  N_19
REMARK    9  A    between atoms: C_18  and  C_20
REMARK                            x       y       z     vdW  Elec       q    Type
REMARK                         _______ _______ _______ _____ _____    ______ ____
ROOT
ATOM      1  C   UNL     1       4.421   6.026  17.907  0.00  0.00    +0.000 C 
ENDROOT
BRANCH   1   5
ATOM      2  C   UNL     1       2.171   8.714  18.621  0.00  0.00    +0.000 A 
ATOM      3  N   UNL     1       2.186   8.765  17.284  0.00  0.00    +0.000 NA
ATOM      4  O   UNL     1       2.941   7.675  16.914  0.00  0.00    +0.000 OA
ATOM      5  C   UNL     1       3.416   7.115  18.057  0.00  0.00    +0.000 A 
ATOM      6  N   UNL     1       2.963   7.703  19.141  0.00  0.00    +0.000 NA
BRANCH   2  10
ATOM      7  C   UNL     1      -0.114  11.287  21.132  0.00  0.00    +0.000 A 
ATOM      8  C   UNL     1      -0.154   9.908  21.314  0.00  0.00    +0.000 A 
ATOM      9  C   UNL     1       0.610   9.089  20.480  0.00  0.00    +0.000 A 
ATOM     10  C   UNL     1       1.425   9.636  19.467  0.00  0.00    +0.000 A 
ATOM     11  C   UNL     1       1.466  11.037  19.319  0.00  0.00    +0.000 A 
ATOM     12 CL   UNL     1       2.376  11.876  18.107  0.00  0.00    +0.000 Cl
ATOM     13  C   UNL     1       0.702  11.855  20.163  0.00  0.00    +0.000 A 
BRANCH   7  15
ATOM     14  C   UNL     1      -1.865  11.203  23.277  0.00  0.00    +0.000 C 
ATOM     15  S   UNL     1      -1.109  12.343  22.145  0.00  0.00    +0.000 S 
ATOM     16  O   UNL     1      -2.150  12.910  21.307  0.00  0.00    +0.000 OA
ATOM     17  O   UNL     1      -0.211  13.197  22.894  0.00  0.00    +0.000 OA
ENDBRANCH   7  15
ENDBRANCH   2  10
ENDBRANCH   1   5
BRANCH   1  18
ATOM     18  C   UNL     1       3.945   4.945  16.887  0.00  0.00    +0.000 C 
BRANCH  18  19
ATOM     19  C   UNL     1       4.922   4.738  15.747  0.00  0.00    +0.000 C 
ATOM     20  C   UNL     1       6.300   5.351  15.814  0.00  0.00    +0.000 C 
ATOM     21  C   UNL     1       6.148   3.863  15.905  0.00  0.00    +0.000 C 
ENDBRANCH  18  19
ENDBRANCH   1  18
BRANCH   1  22
ATOM     22  C   UNL     1       4.811   5.407  19.269  0.00  0.00    +0.000 C 
BRANCH  22  23
ATOM     23  C   UNL     1       4.320   3.958  19.631  0.00  0.00    +0.000 C 
ATOM     24  O   UNL     1       5.119   3.014  19.548  0.00  0.00    +0.000 OA
ATOM     25  N   UNL     1       3.091   3.758  20.221  0.00  0.00    +0.000 N 
ATOM     26  C   UNL     1       2.791   2.480  20.858  0.00  0.00    +0.000 C 
ATOM     27  C   UNL     1       1.406   2.654  21.465  0.00  0.00    +0.000 C 
ATOM     28  C   UNL     1       0.741   3.584  20.471  0.00  0.00    +0.000 C 
ATOM     29  F   UNL     1       0.345   2.849  19.393  0.00  0.00    +0.000 F 
ATOM     30  C   UNL     1       1.867   4.526  20.041  0.00  0.00    +0.000 C 
ENDBRANCH  22  23
BRANCH  22  31
ATOM     31  N   UNL     1       6.294   5.436  19.474  0.00  0.00    +0.000 NA
ATOM     32  H   UNL     1       6.484   5.007  20.387  0.00  0.00    +0.000 HD
ATOM     33  H   UNL     1       6.548   6.415  19.656  0.00  0.00    +0.000 HD
ENDBRANCH  22  31
ENDBRANCH   1  22
TORSDOF 8
ENDMDL
MODEL 7
REMARK VINA RESULT:      -7.8      3.924      5.492
REMARK  Name = 
REMARK  9 active torsions:
REMARK  status: ('A' for Active; 'I' for Inactive)
REMARK    1  A    between atoms: C_1  and  S_2
REMARK    2  A    between atoms: S_2  and  C_5
REMARK    3  A    between atoms: C_8  and  C_9
REMARK    4  A    between atoms: C_12  and  C_13
REMARK    5  A    between atoms: C_13  and  C_14
REMARK    6  A    between atoms: C_13  and  C_18
REMARK    7  A    between atoms: C_14  and  C_15
REMARK    8  A    between atoms: C_18  and  N_19
REMARK    9  A    between atoms: C_18  and  C_20
REMARK                            x       y       z     vdW  Elec       q    Type
REMARK                         _______ _______ _______ _____ _____    ______ ____
ROOT
ATOM      1  C   UNL     1       3.612   6.477  18.124  0.00  0.00    +0.000 C 
ENDROOT
BRANCH   1   5
ATOM      2  C   UNL     1       1.440   9.208  18.913  0.00  0.00    +0.000 A 
ATOM      3  N   UNL     1       1.868   9.586  17.702  0.00  0.00    +0.000 NA
ATOM      4  O   UNL     1       2.624   8.523  17.266  0.00  0.00    +0.000 OA
ATOM      5  C   UNL     1       2.686   7.632  18.290  0.00  0.00    +0.000 A 
ATOM      6  N   UNL     1       1.963   7.993  19.325  0.00  0.00    +0.000 NA
BRANCH   2  10
ATOM      7  C   UNL     1      -1.224  11.607  21.214  0.00  0.00    +0.000 A 
ATOM      8  C   UNL     1      -1.235  11.678  19.825  0.00  0.00    +0.000 A 
ATOM      9  C   UNL     1      -0.355  10.876  19.095  0.00  0.00    +0.000 A 
ATOM     10  C   UNL     1       0.534   9.992  19.742  0.00  0.00    +0.000 A 
ATOM     11  C   UNL     1       0.508   9.921  21.149  0.00  0.00    +0.000 A 
ATOM     12 CL   UNL     1       1.553   8.926  22.108  0.00  0.00    +0.000 Cl
ATOM     13  C   UNL     1      -0.381  10.724  21.877  0.00  0.00    +0.000 A 
BRANCH   7  15
ATOM     14  C   UNL     1      -3.727  12.792  21.120  0.00  0.00    +0.000 C 
ATOM     15  S   UNL     1      -2.297  12.647  22.163  0.00  0.00    +0.000 S 
ATOM     16  O   UNL     1      -1.673  13.953  22.263  0.00  0.00    +0.000 OA
ATOM     17  O   UNL     1      -2.675  11.910  23.351  0.00  0.00    +0.000 OA
ENDBRANCH   7  15
ENDBRANCH   2  10
ENDBRANCH   1   5
BRANCH   1  18
ATOM     18  C   UNL     1       4.869   6.866  17.286  0.00  0.00    +0.000 C 
BRANCH  18  19
ATOM     19  C   UNL     1       6.135   6.187  17.769  0.00  0.00    +0.000 C 
ATOM     20  C   UNL     1       7.189   5.763  16.775  0.00  0.00    +0.000 C 
ATOM     21  C   UNL     1       7.476   6.888  17.721  0.00  0.00    +0.000 C 
ENDBRANCH  18  19
ENDBRANCH   1  18
BRANCH   1  22
ATOM     22  C   UNL     1       2.891   5.236  17.549  0.00  0.00    +0.000 C 
BRANCH  22  23
ATOM     23  C   UNL     1       3.142   3.825  18.197  0.00  0.00    +0.000 C 
ATOM     24  O   UNL     1       3.724   2.954  17.534  0.00  0.00    +0.000 OA
ATOM     25  N   UNL     1       2.909   3.615  19.538  0.00  0.00    +0.000 N 
ATOM     26  C   UNL     1       3.459   2.434  20.194  0.00  0.00    +0.000 C 
ATOM     27  C   UNL     1       3.078   2.580  21.660  0.00  0.00    +0.000 C 
ATOM     28  C   UNL     1       1.735   3.277  21.569  0.00  0.00    +0.000 C 
ATOM     29  F   UNL     1       0.788   2.348  21.256  0.00  0.00    +0.000 F 
ATOM     30  C   UNL     1       1.900   4.234  20.387  0.00  0.00    +0.000 C 
ENDBRANCH  22  23
BRANCH  22  31
ATOM     31  N   UNL     1       1.409   5.443  17.497  0.00  0.00    +0.000 NA
ATOM     32  H   UNL     1       1.069   4.989  16.642  0.00  0.00    +0.000 HD
ATOM     33  H   UNL     1       1.257   6.434  17.272  0.00  0.00    +0.000 HD
ENDBRANCH  22  31
ENDBRANCH   1  22
TORSDOF 8
ENDMDL
MODEL 8
REMARK VINA RESULT:      -7.8      3.900      5.756
REMARK  Name = 
REMARK  9 active torsions:
REMARK  status: ('A' for Active; 'I' for Inactive)
REMARK    1  A    between atoms: C_1  and  S_2
REMARK    2  A    between atoms: S_2  and  C_5
REMARK    3  A    between atoms: C_8  and  C_9
REMARK    4  A    between atoms: C_12  and  C_13
REMARK    5  A    between atoms: C_13  and  C_14
REMARK    6  A    between atoms: C_13  and  C_18
REMARK    7  A    between atoms: C_14  and  C_15
REMARK    8  A    between atoms: C_18  and  N_19
REMARK    9  A    between atoms: C_18  and  C_20
REMARK                            x       y       z     vdW  Elec       q    Type
REMARK                         _______ _______ _______ _____ _____    ______ ____
ROOT
ATOM      1  C   UNL     1       3.513   6.345  18.163  0.00  0.00    +0.000 C 
ENDROOT
BRANCH   1   5
ATOM      2  C   UNL     1       1.448   9.198  18.792  0.00  0.00    +0.000 A 
ATOM      3  N   UNL     1       1.948   9.525  17.594  0.00  0.00    +0.000 NA
ATOM      4  O   UNL     1       2.668   8.416  17.216  0.00  0.00    +0.000 OA
ATOM      5  C   UNL     1       2.641   7.548  18.261  0.00  0.00    +0.000 A 
ATOM      6  N   UNL     1       1.891   7.968  19.255  0.00  0.00    +0.000 NA
BRANCH   2  10
ATOM      7  C   UNL     1      -1.111  11.623  21.182  0.00  0.00    +0.000 A 
ATOM      8  C   UNL     1       0.129  11.219  21.666  0.00  0.00    +0.000 A 
ATOM      9  C   UNL     1       0.950  10.429  20.859  0.00  0.00    +0.000 A 
ATOM     10  C   UNL     1       0.547  10.045  19.563  0.00  0.00    +0.000 A 
ATOM     11  C   UNL     1      -0.703  10.488  19.087  0.00  0.00    +0.000 A 
ATOM     12 CL   UNL     1      -1.374  10.080  17.543  0.00  0.00    +0.000 Cl
ATOM     13  C   UNL     1      -1.521  11.285  19.899  0.00  0.00    +0.000 A 
BRANCH   7  15
ATOM     14  C   UNL     1      -3.614  12.812  21.167  0.00  0.00    +0.000 C 
ATOM     15  S   UNL     1      -2.190  12.585  22.204  0.00  0.00    +0.000 S 
ATOM     16  O   UNL     1      -1.568  13.880  22.411  0.00  0.00    +0.000 OA
ATOM     17  O   UNL     1      -2.575  11.757  23.328  0.00  0.00    +0.000 OA
ENDBRANCH   7  15
ENDBRANCH   2  10
ENDBRANCH   1   5
BRANCH   1  18
ATOM     18  C   UNL     1       4.845   6.663  17.414  0.00  0.00    +0.000 C 
BRANCH  18  19
ATOM     19  C   UNL     1       5.424   5.458  16.700  0.00  0.00    +0.000 C 
ATOM     20  C   UNL     1       5.611   5.487  15.203  0.00  0.00    +0.000 C 
ATOM     21  C   UNL     1       6.813   5.490  16.098  0.00  0.00    +0.000 C 
ENDBRANCH  18  19
ENDBRANCH   1  18
BRANCH   1  22
ATOM     22  C   UNL     1       2.770   5.140  17.541  0.00  0.00    +0.000 C 
BRANCH  22  23
ATOM     23  C   UNL     1       2.920   3.717  18.194  0.00  0.00    +0.000 C 
ATOM     24  O   UNL     1       3.341   2.779  17.502  0.00  0.00    +0.000 OA
ATOM     25  N   UNL     1       2.785   3.549  19.555  0.00  0.00    +0.000 N 
ATOM     26  C   UNL     1       3.257   2.321  20.185  0.00  0.00    +0.000 C 
ATOM     27  C   UNL     1       3.027   2.526  21.676  0.00  0.00    +0.000 C 
ATOM     28  C   UNL     1       1.767   3.368  21.687  0.00  0.00    +0.000 C 
ATOM     29  F   UNL     1       0.699   2.548  21.478  0.00  0.00    +0.000 F 
ATOM     30  C   UNL     1       1.930   4.287  20.476  0.00  0.00    +0.000 C 
ENDBRANCH  22  23
BRANCH  22  31
ATOM     31  N   UNL     1       1.305   5.415  17.408  0.00  0.00    +0.000 NA
ATOM     32  H   UNL     1       0.827   4.507  17.369  0.00  0.00    +0.000 HD
ATOM     33  H   UNL     1       1.155   5.761  16.452  0.00  0.00    +0.000 HD
ENDBRANCH  22  31
ENDBRANCH   1  22
TORSDOF 8
ENDMDL
MODEL 9
REMARK VINA RESULT:      -7.7      4.058      5.552
REMARK  Name = 
REMARK  9 active torsions:
REMARK  status: ('A' for Active; 'I' for Inactive)
REMARK    1  A    between atoms: C_1  and  S_2
REMARK    2  A    between atoms: S_2  and  C_5
REMARK    3  A    between atoms: C_8  and  C_9
REMARK    4  A    between atoms: C_12  and  C_13
REMARK    5  A    between atoms: C_13  and  C_14
REMARK    6  A    between atoms: C_13  and  C_18
REMARK    7  A    between atoms: C_14  and  C_15
REMARK    8  A    between atoms: C_18  and  N_19
REMARK    9  A    between atoms: C_18  and  C_20
REMARK                            x       y       z     vdW  Elec       q    Type
REMARK                         _______ _______ _______ _____ _____    ______ ____
ROOT
ATOM      1  C   UNL     1       3.778   6.251  17.936  0.00  0.00    +0.000 C 
ENDROOT
BRANCH   1   5
ATOM      2  C   UNL     1       1.765   9.046  18.904  0.00  0.00    +0.000 A 
ATOM      3  N   UNL     1       1.945   9.320  17.606  0.00  0.00    +0.000 NA
ATOM      4  O   UNL     1       2.615   8.222  17.120  0.00  0.00    +0.000 OA
ATOM      5  C   UNL     1       2.888   7.420  18.182  0.00  0.00    +0.000 A 
ATOM      6  N   UNL     1       2.374   7.868  19.306  0.00  0.00    +0.000 NA
BRANCH   2  10
ATOM      7  C   UNL     1      -0.491  11.414  21.634  0.00  0.00    +0.000 A 
ATOM      8  C   UNL     1      -0.501  10.026  21.731  0.00  0.00    +0.000 A 
ATOM      9  C   UNL     1       0.253   9.275  20.826  0.00  0.00    +0.000 A 
ATOM     10  C   UNL     1       1.028   9.900  19.827  0.00  0.00    +0.000 A 
ATOM     11  C   UNL     1       1.040  11.307  19.765  0.00  0.00    +0.000 A 
ATOM     12 CL   UNL     1       1.898  12.237  18.582  0.00  0.00    +0.000 Cl
ATOM     13  C   UNL     1       0.287  12.057  20.679  0.00  0.00    +0.000 A 
BRANCH   7  15
ATOM     14  C   UNL     1      -2.476  13.346  21.630  0.00  0.00    +0.000 C 
ATOM     15  S   UNL     1      -1.474  12.386  22.738  0.00  0.00    +0.000 S 
ATOM     16  O   UNL     1      -0.586  13.289  23.446  0.00  0.00    +0.000 OA
ATOM     17  O   UNL     1      -2.340  11.478  23.461  0.00  0.00    +0.000 OA
ENDBRANCH   7  15
ENDBRANCH   2  10
ENDBRANCH   1   5
BRANCH   1  18
ATOM     18  C   UNL     1       4.952   6.619  16.976  0.00  0.00    +0.000 C 
BRANCH  18  19
ATOM     19  C   UNL     1       6.316   6.345  17.577  0.00  0.00    +0.000 C 
ATOM     20  C   UNL     1       6.443   5.434  18.774  0.00  0.00    +0.000 C 
ATOM     21  C   UNL     1       6.979   4.990  17.447  0.00  0.00    +0.000 C 
ENDBRANCH  18  19
ENDBRANCH   1  18
BRANCH   1  22
ATOM     22  C   UNL     1       2.990   5.016  17.444  0.00  0.00    +0.000 C 
BRANCH  22  23
ATOM     23  C   UNL     1       3.191   3.633  18.163  0.00  0.00    +0.000 C 
ATOM     24  O   UNL     1       3.755   2.713  17.552  0.00  0.00    +0.000 OA
ATOM     25  N   UNL     1       2.934   3.495  19.510  0.00  0.00    +0.000 N 
ATOM     26  C   UNL     1       3.441   2.332  20.231  0.00  0.00    +0.000 C 
ATOM     27  C   UNL     1       3.046   2.561  21.682  0.00  0.00    +0.000 C 
ATOM     28  C   UNL     1       1.726   3.292  21.539  0.00  0.00    +0.000 C 
ATOM     29  F   UNL     1       0.756   2.376  21.258  0.00  0.00    +0.000 F 
ATOM     30  C   UNL     1       1.933   4.184  20.314  0.00  0.00    +0.000 C 
ENDBRANCH  22  23
BRANCH  22  31
ATOM     31  N   UNL     1       1.518   5.289  17.410  0.00  0.00    +0.000 NA
ATOM     32  H   UNL     1       1.397   6.272  17.144  0.00  0.00    +0.000 HD
ATOM     33  H   UNL     1       1.198   5.305  18.386  0.00  0.00    +0.000 HD
ENDBRANCH  22  31
ENDBRANCH   1  22
TORSDOF 8
ENDMDL
