MODEL 1
REMARK VINA RESULT:      -8.6      0.000      0.000
REMARK  Name = 
REMARK  5 active torsions:
REMARK  status: ('A' for Active; 'I' for Inactive)
REMARK    1  A    between atoms: C_2  and  C_3
REMARK    2  A    between atoms: C_3  and  C_4
REMARK    3  A    between atoms: C_4  and  C_5
REMARK    4  A    between atoms: C_20  and  O_21
REMARK    5  A    between atoms: C_24  and  O_25
REMARK                            x       y       z     vdW  Elec       q    Type
REMARK                         _______ _______ _______ _____ _____    ______ ____
ROOT
ATOM      1  C   UNL     1       3.352   5.919  18.650  0.00  0.00    +0.000 C 
ATOM      2  C   UNL     1       2.671   4.953  17.601  0.00  0.00    +0.000 C 
ATOM      3  C   UNL     1       1.278   4.495  18.123  0.00  0.00    +0.000 C 
ATOM      4  C   UNL     1       1.426   3.663  19.409  0.00  0.00    +0.000 C 
ATOM      5  C   UNL     1       2.106   4.535  20.477  0.00  0.00    +0.000 C 
ATOM      6  C   UNL     1       3.485   5.026  19.970  0.00  0.00    +0.000 C 
ATOM      7  C   UNL     1       4.333   3.744  19.711  0.00  0.00    +0.000 C 
ATOM      8  C   UNL     1       3.677   2.872  18.627  0.00  0.00    +0.000 C 
ATOM      9  C   UNL     1       3.519   3.696  17.340  0.00  0.00    +0.000 C 
ATOM     10  C   UNL     1       2.302   2.423  19.153  0.00  0.00    +0.000 C 
ENDROOT
BRANCH   1  11
ATOM     11  C   UNL     1       2.502   7.217  18.836  0.00  0.00    +0.000 A 
ATOM     12  C   UNL     1       2.010   7.576  20.114  0.00  0.00    +0.000 A 
ATOM     13  C   UNL     1       1.283   8.748  20.332  0.00  0.00    +0.000 A 
ATOM     14  C   UNL     1       1.016   9.584  19.265  0.00  0.00    +0.000 A 
ATOM     15  F   UNL     1       0.332  10.717  19.468  0.00  0.00    +0.000 F 
ATOM     16  C   UNL     1       1.448   9.254  17.988  0.00  0.00    +0.000 A 
ATOM     17  C   UNL     1       2.175   8.073  17.770  0.00  0.00    +0.000 A 
ENDBRANCH   1  11
BRANCH  10  18
ATOM     18  O   UNL     1       1.678   1.505  18.264  0.00  0.00    +0.000 OA
ATOM     19  H   UNL     1       1.799   1.804  17.349  0.00  0.00    +0.000 HD
ENDBRANCH  10  18
BRANCH   1  20
ATOM     20  C   UNL     1       4.803   6.387  18.276  0.00  0.00    +0.000 C 
BRANCH  20  22
ATOM     21  O   UNL     1       4.531   6.968  15.929  0.00  0.00    +0.000 OA
ATOM     22  C   UNL     1       5.206   6.451  16.811  0.00  0.00    +0.000 C 
ATOM     23  N   UNL     1       6.391   5.793  16.535  0.00  0.00    +0.000 N 
ATOM     24  C   UNL     1       7.013   5.682  15.213  0.00  0.00    +0.000 C 
ATOM     25  C   UNL     1       7.082   4.165  15.428  0.00  0.00    +0.000 C 
ATOM     26  C   UNL     1       6.691   4.402  16.896  0.00  0.00    +0.000 C 
BRANCH  25  27
ATOM     27  O   UNL     1       6.181   3.356  14.637  0.00  0.00    +0.000 OA
ATOM     28  H   UNL     1       6.318   3.645  13.717  0.00  0.00    +0.000 HD
ENDBRANCH  25  27
ENDBRANCH  20  22
ENDBRANCH   1  20
TORSDOF 5
ENDMDL
MODEL 2
REMARK VINA RESULT:      -8.4      1.257      1.739
REMARK  Name = 
REMARK  5 active torsions:
REMARK  status: ('A' for Active; 'I' for Inactive)
REMARK    1  A    between atoms: C_2  and  C_3
REMARK    2  A    between atoms: C_3  and  C_4
REMARK    3  A    between atoms: C_4  and  C_5
REMARK    4  A    between atoms: C_20  and  O_21
REMARK    5  A    between atoms: C_24  and  O_25
REMARK                            x       y       z     vdW  Elec       q    Type
REMARK                         _______ _______ _______ _____ _____    ______ ____
ROOT
ATOM      1  C   UNL     1       3.255   5.449  19.053  0.00  0.00    +0.000 C 
ATOM      2  C   UNL     1       2.630   4.499  17.954  0.00  0.00    +0.000 C 
ATOM      3  C   UNL     1       1.110   4.302  18.221  0.00  0.00    +0.000 C 
ATOM      4  C   UNL     1       0.881   3.583  19.561  0.00  0.00    +0.000 C 
ATOM      5  C   UNL     1       1.486   4.442  20.684  0.00  0.00    +0.000 C 
ATOM      6  C   UNL     1       2.996   4.675  20.427  0.00  0.00    +0.000 C 
ATOM      7  C   UNL     1       3.658   3.263  20.422  0.00  0.00    +0.000 C 
ATOM      8  C   UNL     1       3.079   2.399  19.289  0.00  0.00    +0.000 C 
ATOM      9  C   UNL     1       3.297   3.112  17.946  0.00  0.00    +0.000 C 
ATOM     10  C   UNL     1       1.576   2.209  19.562  0.00  0.00    +0.000 C 
ENDROOT
BRANCH   1  11
ATOM     11  C   UNL     1       2.608   6.870  18.984  0.00  0.00    +0.000 A 
ATOM     12  C   UNL     1       2.643   7.616  17.782  0.00  0.00    +0.000 A 
ATOM     13  C   UNL     1       2.042   8.872  17.665  0.00  0.00    +0.000 A 
ATOM     14  C   UNL     1       1.403   9.417  18.760  0.00  0.00    +0.000 A 
ATOM     15  F   UNL     1       0.811  10.614  18.653  0.00  0.00    +0.000 F 
ATOM     16  C   UNL     1       1.375   8.737  19.970  0.00  0.00    +0.000 A 
ATOM     17  C   UNL     1       1.984   7.478  20.087  0.00  0.00    +0.000 A 
ENDBRANCH   1  11
BRANCH  10  18
ATOM     18  O   UNL     1       0.985   1.313  18.629  0.00  0.00    +0.000 OA
ATOM     19  H   UNL     1       1.292   0.410  18.806  0.00  0.00    +0.000 HD
ENDBRANCH  10  18
BRANCH   1  20
ATOM     20  C   UNL     1       4.807   5.660  18.942  0.00  0.00    +0.000 C 
BRANCH  20  22
ATOM     21  O   UNL     1       6.484   3.941  18.550  0.00  0.00    +0.000 OA
ATOM     22  C   UNL     1       5.627   4.694  18.102  0.00  0.00    +0.000 C 
ATOM     23  N   UNL     1       5.375   4.790  16.745  0.00  0.00    +0.000 N 
ATOM     24  C   UNL     1       6.025   3.993  15.702  0.00  0.00    +0.000 C 
ATOM     25  C   UNL     1       6.363   5.304  14.980  0.00  0.00    +0.000 C 
ATOM     26  C   UNL     1       5.427   6.030  15.960  0.00  0.00    +0.000 C 
BRANCH  25  27
ATOM     27  O   UNL     1       7.752   5.708  14.985  0.00  0.00    +0.000 OA
ATOM     28  H   UNL     1       7.737   6.676  14.875  0.00  0.00    +0.000 HD
ENDBRANCH  25  27
ENDBRANCH  20  22
ENDBRANCH   1  20
TORSDOF 5
ENDMDL
MODEL 3
REMARK VINA RESULT:      -8.4      1.092      1.509
REMARK  Name = 
REMARK  5 active torsions:
REMARK  status: ('A' for Active; 'I' for Inactive)
REMARK    1  A    between atoms: C_2  and  C_3
REMARK    2  A    between atoms: C_3  and  C_4
REMARK    3  A    between atoms: C_4  and  C_5
REMARK    4  A    between atoms: C_20  and  O_21
REMARK    5  A    between atoms: C_24  and  O_25
REMARK                            x       y       z     vdW  Elec       q    Type
REMARK                         _______ _______ _______ _____ _____    ______ ____
ROOT
ATOM      1  C   UNL     1       3.063   5.804  18.257  0.00  0.00    +0.000 C 
ATOM      2  C   UNL     1       1.980   4.746  17.799  0.00  0.00    +0.000 C 
ATOM      3  C   UNL     1       1.140   4.279  19.022  0.00  0.00    +0.000 C 
ATOM      4  C   UNL     1       2.025   3.541  20.041  0.00  0.00    +0.000 C 
ATOM      5  C   UNL     1       3.124   4.506  20.519  0.00  0.00    +0.000 C 
ATOM      6  C   UNL     1       3.959   5.007  19.315  0.00  0.00    +0.000 C 
ATOM      7  C   UNL     1       4.605   3.739  18.678  0.00  0.00    +0.000 C 
ATOM      8  C   UNL     1       3.518   2.775  18.174  0.00  0.00    +0.000 C 
ATOM      9  C   UNL     1       2.624   3.503  17.160  0.00  0.00    +0.000 C 
ATOM     10  C   UNL     1       2.694   2.317  19.390  0.00  0.00    +0.000 C 
ENDROOT
BRANCH   1  11
ATOM     11  C   UNL     1       2.374   7.082  18.833  0.00  0.00    +0.000 A 
ATOM     12  C   UNL     1       2.051   8.168  17.983  0.00  0.00    +0.000 A 
ATOM     13  C   UNL     1       1.399   9.312  18.448  0.00  0.00    +0.000 A 
ATOM     14  C   UNL     1       1.067   9.401  19.786  0.00  0.00    +0.000 A 
ATOM     15  F   UNL     1       0.427  10.488  20.236  0.00  0.00    +0.000 F 
ATOM     16  C   UNL     1       1.395   8.377  20.663  0.00  0.00    +0.000 A 
ATOM     17  C   UNL     1       2.056   7.230  20.194  0.00  0.00    +0.000 A 
ENDBRANCH   1  11
BRANCH  10  18
ATOM     18  O   UNL     1       1.744   1.320  19.032  0.00  0.00    +0.000 OA
ATOM     19  H   UNL     1       0.856   1.709  19.014  0.00  0.00    +0.000 HD
ENDBRANCH  10  18
BRANCH   1  20
ATOM     20  C   UNL     1       4.033   6.293  17.124  0.00  0.00    +0.000 C 
BRANCH  20  22
ATOM     21  O   UNL     1       6.322   6.572  17.900  0.00  0.00    +0.000 OA
ATOM     22  C   UNL     1       5.513   5.955  17.220  0.00  0.00    +0.000 C 
ATOM     23  N   UNL     1       5.895   4.912  16.394  0.00  0.00    +0.000 N 
ATOM     24  C   UNL     1       7.255   4.381  16.271  0.00  0.00    +0.000 C 
ATOM     25  C   UNL     1       7.135   4.561  14.752  0.00  0.00    +0.000 C 
ATOM     26  C   UNL     1       5.634   4.836  14.951  0.00  0.00    +0.000 C 
BRANCH  25  27
ATOM     27  O   UNL     1       7.918   5.623  14.160  0.00  0.00    +0.000 OA
ATOM     28  H   UNL     1       8.340   6.078  14.910  0.00  0.00    +0.000 HD
ENDBRANCH  25  27
ENDBRANCH  20  22
ENDBRANCH   1  20
TORSDOF 5
ENDMDL
MODEL 4
REMARK VINA RESULT:      -7.6      2.898      5.698
REMARK  Name = 
REMARK  5 active torsions:
REMARK  status: ('A' for Active; 'I' for Inactive)
REMARK    1  A    between atoms: C_2  and  C_3
REMARK    2  A    between atoms: C_3  and  C_4
REMARK    3  A    between atoms: C_4  and  C_5
REMARK    4  A    between atoms: C_20  and  O_21
REMARK    5  A    between atoms: C_24  and  O_25
REMARK                            x       y       z     vdW  Elec       q    Type
REMARK                         _______ _______ _______ _____ _____    ______ ____
ROOT
ATOM      1  C   UNL     1       3.522   5.673  18.211  0.00  0.00    +0.000 C 
ATOM      2  C   UNL     1       4.018   4.875  16.940  0.00  0.00    +0.000 C 
ATOM      3  C   UNL     1       5.015   3.759  17.366  0.00  0.00    +0.000 C 
ATOM      4  C   UNL     1       6.284   4.371  17.984  0.00  0.00    +0.000 C 
ATOM      5  C   UNL     1       5.877   5.187  19.223  0.00  0.00    +0.000 C 
ATOM      6  C   UNL     1       4.862   6.290  18.829  0.00  0.00    +0.000 C 
ATOM      7  C   UNL     1       5.596   7.207  17.804  0.00  0.00    +0.000 C 
ATOM      8  C   UNL     1       5.989   6.409  16.549  0.00  0.00    +0.000 C 
ATOM      9  C   UNL     1       4.729   5.789  15.927  0.00  0.00    +0.000 C 
ATOM     10  C   UNL     1       6.976   5.310  16.980  0.00  0.00    +0.000 C 
ENDROOT
BRANCH   1  11
ATOM     11  C   UNL     1       2.741   4.732  19.183  0.00  0.00    +0.000 A 
ATOM     12  C   UNL     1       3.184   4.547  20.514  0.00  0.00    +0.000 A 
ATOM     13  C   UNL     1       2.494   3.748  21.428  0.00  0.00    +0.000 A 
ATOM     14  C   UNL     1       1.345   3.098  21.020  0.00  0.00    +0.000 A 
ATOM     15  F   UNL     1       0.668   2.342  21.894  0.00  0.00    +0.000 F 
ATOM     16  C   UNL     1       0.892   3.221  19.714  0.00  0.00    +0.000 A 
ATOM     17  C   UNL     1       1.591   4.022  18.796  0.00  0.00    +0.000 A 
ENDBRANCH   1  11
BRANCH  10  18
ATOM     18  O   UNL     1       7.492   4.603  15.859  0.00  0.00    +0.000 OA
ATOM     19  H   UNL     1       8.461   4.633  15.873  0.00  0.00    +0.000 HD
ENDBRANCH  10  18
BRANCH   1  20
ATOM     20  C   UNL     1       2.571   6.884  17.904  0.00  0.00    +0.000 C 
BRANCH  20  22
ATOM     21  O   UNL     1       2.056   7.462  20.211  0.00  0.00    +0.000 OA
ATOM     22  C   UNL     1       2.157   7.807  19.040  0.00  0.00    +0.000 C 
ATOM     23  N   UNL     1       1.820   9.082  18.621  0.00  0.00    +0.000 N 
ATOM     24  C   UNL     1       1.375  10.172  19.492  0.00  0.00    +0.000 C 
ATOM     25  C   UNL     1       0.164  10.350  18.569  0.00  0.00    +0.000 C 
ATOM     26  C   UNL     1       0.844   9.398  17.570  0.00  0.00    +0.000 C 
BRANCH  25  27
ATOM     27  O   UNL     1      -1.119   9.934  19.093  0.00  0.00    +0.000 OA
ATOM     28  H   UNL     1      -1.636  10.755  19.184  0.00  0.00    +0.000 HD
ENDBRANCH  25  27
ENDBRANCH  20  22
ENDBRANCH   1  20
TORSDOF 5
ENDMDL
MODEL 5
REMARK VINA RESULT:      -7.6      2.855      4.062
REMARK  Name = 
REMARK  5 active torsions:
REMARK  status: ('A' for Active; 'I' for Inactive)
REMARK    1  A    between atoms: C_2  and  C_3
REMARK    2  A    between atoms: C_3  and  C_4
REMARK    3  A    between atoms: C_4  and  C_5
REMARK    4  A    between atoms: C_20  and  O_21
REMARK    5  A    between atoms: C_24  and  O_25
REMARK                            x       y       z     vdW  Elec       q    Type
REMARK                         _______ _______ _______ _____ _____    ______ ____
ROOT
ATOM      1  C   UNL     1       4.155   4.588  17.564  0.00  0.00    +0.000 C 
ATOM      2  C   UNL     1       2.872   5.338  18.102  0.00  0.00    +0.000 C 
ATOM      3  C   UNL     1       2.945   5.477  19.650  0.00  0.00    +0.000 C 
ATOM      4  C   UNL     1       2.922   4.094  20.323  0.00  0.00    +0.000 C 
ATOM      5  C   UNL     1       4.137   3.292  19.828  0.00  0.00    +0.000 C 
ATOM      6  C   UNL     1       4.101   3.161  18.285  0.00  0.00    +0.000 C 
ATOM      7  C   UNL     1       2.786   2.398  17.945  0.00  0.00    +0.000 C 
ATOM      8  C   UNL     1       1.559   3.199  18.413  0.00  0.00    +0.000 C 
ATOM      9  C   UNL     1       1.576   4.585  17.751  0.00  0.00    +0.000 C 
ATOM     10  C   UNL     1       1.640   3.331  19.945  0.00  0.00    +0.000 C 
ENDROOT
BRANCH   1  11
ATOM     11  C   UNL     1       5.445   5.415  17.871  0.00  0.00    +0.000 A 
ATOM     12  C   UNL     1       5.664   6.663  17.241  0.00  0.00    +0.000 A 
ATOM     13  C   UNL     1       6.781   7.454  17.517  0.00  0.00    +0.000 A 
ATOM     14  C   UNL     1       7.719   7.001  18.424  0.00  0.00    +0.000 A 
ATOM     15  F   UNL     1       8.786   7.759  18.707  0.00  0.00    +0.000 F 
ATOM     16  C   UNL     1       7.564   5.766  19.039  0.00  0.00    +0.000 A 
ATOM     17  C   UNL     1       6.442   4.971  18.757  0.00  0.00    +0.000 A 
ENDBRANCH   1  11
BRANCH  10  18
ATOM     18  O   UNL     1       0.475   3.950  20.477  0.00  0.00    +0.000 OA
ATOM     19  H   UNL     1      -0.029   4.365  19.760  0.00  0.00    +0.000 HD
ENDBRANCH  10  18
BRANCH   1  20
ATOM     20  C   UNL     1       4.162   4.310  16.019  0.00  0.00    +0.000 C 
BRANCH  20  22
ATOM     21  O   UNL     1       6.100   2.841  15.940  0.00  0.00    +0.000 OA
ATOM     22  C   UNL     1       5.389   3.670  15.387  0.00  0.00    +0.000 C 
ATOM     23  N   UNL     1       5.689   4.172  14.132  0.00  0.00    +0.000 N 
ATOM     24  C   UNL     1       6.816   3.751  13.297  0.00  0.00    +0.000 C 
ATOM     25  C   UNL     1       7.207   5.229  13.167  0.00  0.00    +0.000 C 
ATOM     26  C   UNL     1       5.857   5.594  13.807  0.00  0.00    +0.000 C 
BRANCH  25  27
ATOM     27  O   UNL     1       8.397   5.651  13.873  0.00  0.00    +0.000 OA
ATOM     28  H   UNL     1       8.288   6.609  14.008  0.00  0.00    +0.000 HD
ENDBRANCH  25  27
ENDBRANCH  20  22
ENDBRANCH   1  20
TORSDOF 5
ENDMDL
MODEL 6
REMARK VINA RESULT:      -7.5      1.886      2.414
REMARK  Name = 
REMARK  5 active torsions:
REMARK  status: ('A' for Active; 'I' for Inactive)
REMARK    1  A    between atoms: C_2  and  C_3
REMARK    2  A    between atoms: C_3  and  C_4
REMARK    3  A    between atoms: C_4  and  C_5
REMARK    4  A    between atoms: C_20  and  O_21
REMARK    5  A    between atoms: C_24  and  O_25
REMARK                            x       y       z     vdW  Elec       q    Type
REMARK                         _______ _______ _______ _____ _____    ______ ____
ROOT
ATOM      1  C   UNL     1       3.250   4.978  18.452  0.00  0.00    +0.000 C 
ATOM      2  C   UNL     1       2.200   4.139  17.620  0.00  0.00    +0.000 C 
ATOM      3  C   UNL     1       0.866   4.018  18.411  0.00  0.00    +0.000 C 
ATOM      4  C   UNL     1       1.076   3.231  19.716  0.00  0.00    +0.000 C 
ATOM      5  C   UNL     1       2.109   3.980  20.575  0.00  0.00    +0.000 C 
ATOM      6  C   UNL     1       3.440   4.136  19.798  0.00  0.00    +0.000 C 
ATOM      7  C   UNL     1       3.942   2.690  19.502  0.00  0.00    +0.000 C 
ATOM      8  C   UNL     1       2.929   1.936  18.624  0.00  0.00    +0.000 C 
ATOM      9  C   UNL     1       2.707   2.716  17.320  0.00  0.00    +0.000 C 
ATOM     10  C   UNL     1       1.614   1.820  19.415  0.00  0.00    +0.000 C 
ENDROOT
BRANCH   1  11
ATOM     11  C   UNL     1       2.736   6.437  18.674  0.00  0.00    +0.000 A 
ATOM     12  C   UNL     1       2.727   7.365  17.605  0.00  0.00    +0.000 A 
ATOM     13  C   UNL     1       2.238   8.665  17.749  0.00  0.00    +0.000 A 
ATOM     14  C   UNL     1       1.760   9.073  18.979  0.00  0.00    +0.000 A 
ATOM     15  F   UNL     1       1.276  10.313  19.122  0.00  0.00    +0.000 F 
ATOM     16  C   UNL     1       1.783   8.208  20.065  0.00  0.00    +0.000 A 
ATOM     17  C   UNL     1       2.279   6.903  19.919  0.00  0.00    +0.000 A 
ENDBRANCH   1  11
BRANCH  10  18
ATOM     18  O   UNL     1       0.658   1.022  18.727  0.00  0.00    +0.000 OA
ATOM     19  H   UNL     1       0.443   1.434  17.876  0.00  0.00    +0.000 HD
ENDBRANCH  10  18
BRANCH   1  20
ATOM     20  C   UNL     1       4.670   5.102  17.795  0.00  0.00    +0.000 C 
BRANCH  20  22
ATOM     21  O   UNL     1       5.819   5.734  19.845  0.00  0.00    +0.000 OA
ATOM     22  C   UNL     1       5.825   5.643  18.623  0.00  0.00    +0.000 C 
ATOM     23  N   UNL     1       6.882   6.108  17.860  0.00  0.00    +0.000 N 
ATOM     24  C   UNL     1       8.117   6.692  18.387  0.00  0.00    +0.000 C 
ATOM     25  C   UNL     1       7.886   7.893  17.462  0.00  0.00    +0.000 C 
ATOM     26  C   UNL     1       6.773   7.087  16.772  0.00  0.00    +0.000 C 
BRANCH  25  27
ATOM     27  O   UNL     1       7.495   9.134  18.094  0.00  0.00    +0.000 OA
ATOM     28  H   UNL     1       7.628   9.820  17.415  0.00  0.00    +0.000 HD
ENDBRANCH  25  27
ENDBRANCH  20  22
ENDBRANCH   1  20
TORSDOF 5
ENDMDL
MODEL 7
REMARK VINA RESULT:      -7.5      2.987      5.538
REMARK  Name = 
REMARK  5 active torsions:
REMARK  status: ('A' for Active; 'I' for Inactive)
REMARK    1  A    between atoms: C_2  and  C_3
REMARK    2  A    between atoms: C_3  and  C_4
REMARK    3  A    between atoms: C_4  and  C_5
REMARK    4  A    between atoms: C_20  and  O_21
REMARK    5  A    between atoms: C_24  and  O_25
REMARK                            x       y       z     vdW  Elec       q    Type
REMARK                         _______ _______ _______ _____ _____    ______ ____
ROOT
ATOM      1  C   UNL     1       3.296   4.959  18.032  0.00  0.00    +0.000 C 
ATOM      2  C   UNL     1       3.718   4.969  19.556  0.00  0.00    +0.000 C 
ATOM      3  C   UNL     1       4.490   3.664  19.904  0.00  0.00    +0.000 C 
ATOM      4  C   UNL     1       3.581   2.434  19.741  0.00  0.00    +0.000 C 
ATOM      5  C   UNL     1       3.109   2.369  18.279  0.00  0.00    +0.000 C 
ATOM      6  C   UNL     1       2.359   3.670  17.899  0.00  0.00    +0.000 C 
ATOM      7  C   UNL     1       1.128   3.756  18.852  0.00  0.00    +0.000 C 
ATOM      8  C   UNL     1       1.586   3.845  20.318  0.00  0.00    +0.000 C 
ATOM      9  C   UNL     1       2.500   5.067  20.491  0.00  0.00    +0.000 C 
ATOM     10  C   UNL     1       2.347   2.549  20.653  0.00  0.00    +0.000 C 
ENDROOT
BRANCH   1  11
ATOM     11  C   UNL     1       4.558   4.934  17.111  0.00  0.00    +0.000 A 
ATOM     12  C   UNL     1       4.465   4.462  15.780  0.00  0.00    +0.000 A 
ATOM     13  C   UNL     1       5.558   4.461  14.910  0.00  0.00    +0.000 A 
ATOM     14  C   UNL     1       6.779   4.921  15.362  0.00  0.00    +0.000 A 
ATOM     15  F   UNL     1       7.828   4.938  14.530  0.00  0.00    +0.000 F 
ATOM     16  C   UNL     1       6.925   5.360  16.671  0.00  0.00    +0.000 A 
ATOM     17  C   UNL     1       5.827   5.355  17.545  0.00  0.00    +0.000 A 
ENDBRANCH   1  11
BRANCH  10  18
ATOM     18  O   UNL     1       2.696   2.491  22.031  0.00  0.00    +0.000 OA
ATOM     19  H   UNL     1       3.601   2.155  22.123  0.00  0.00    +0.000 HD
ENDBRANCH  10  18
BRANCH   1  20
ATOM     20  C   UNL     1       2.435   6.189  17.575  0.00  0.00    +0.000 C 
BRANCH  20  22
ATOM     21  O   UNL     1       4.069   7.852  18.271  0.00  0.00    +0.000 OA
ATOM     22  C   UNL     1       2.951   7.595  17.842  0.00  0.00    +0.000 C 
ATOM     23  N   UNL     1       2.004   8.581  17.628  0.00  0.00    +0.000 N 
ATOM     24  C   UNL     1       2.217  10.018  17.816  0.00  0.00    +0.000 C 
ATOM     25  C   UNL     1       0.962  10.038  18.698  0.00  0.00    +0.000 C 
ATOM     26  C   UNL     1       0.661   8.607  18.221  0.00  0.00    +0.000 C 
BRANCH  25  27
ATOM     27  O   UNL     1       1.168  10.222  20.118  0.00  0.00    +0.000 OA
ATOM     28  H   UNL     1       0.607   9.550  20.546  0.00  0.00    +0.000 HD
ENDBRANCH  25  27
ENDBRANCH  20  22
ENDBRANCH   1  20
TORSDOF 5
ENDMDL
MODEL 8
REMARK VINA RESULT:      -7.4      2.793      3.960
REMARK  Name = 
REMARK  5 active torsions:
REMARK  status: ('A' for Active; 'I' for Inactive)
REMARK    1  A    between atoms: C_2  and  C_3
REMARK    2  A    between atoms: C_3  and  C_4
REMARK    3  A    between atoms: C_4  and  C_5
REMARK    4  A    between atoms: C_20  and  O_21
REMARK    5  A    between atoms: C_24  and  O_25
REMARK                            x       y       z     vdW  Elec       q    Type
REMARK                         _______ _______ _______ _____ _____    ______ ____
ROOT
ATOM      1  C   UNL     1       4.326   4.637  17.475  0.00  0.00    +0.000 C 
ATOM      2  C   UNL     1       3.029   5.379  17.993  0.00  0.00    +0.000 C 
ATOM      3  C   UNL     1       3.062   5.489  19.545  0.00  0.00    +0.000 C 
ATOM      4  C   UNL     1       3.020   4.094  20.191  0.00  0.00    +0.000 C 
ATOM      5  C   UNL     1       4.248   3.300  19.713  0.00  0.00    +0.000 C 
ATOM      6  C   UNL     1       4.252   3.198  18.167  0.00  0.00    +0.000 C 
ATOM      7  C   UNL     1       2.945   2.442  17.779  0.00  0.00    +0.000 C 
ATOM      8  C   UNL     1       1.708   3.236  18.230  0.00  0.00    +0.000 C 
ATOM      9  C   UNL     1       1.742   4.634  17.595  0.00  0.00    +0.000 C 
ATOM     10  C   UNL     1       1.748   3.339  19.766  0.00  0.00    +0.000 C 
ENDROOT
BRANCH   1  11
ATOM     11  C   UNL     1       5.608   5.457  17.831  0.00  0.00    +0.000 A 
ATOM     12  C   UNL     1       5.693   6.832  17.507  0.00  0.00    +0.000 A 
ATOM     13  C   UNL     1       6.802   7.611  17.844  0.00  0.00    +0.000 A 
ATOM     14  C   UNL     1       7.864   7.022  18.501  0.00  0.00    +0.000 A 
ATOM     15  F   UNL     1       8.925   7.765  18.841  0.00  0.00    +0.000 F 
ATOM     16  C   UNL     1       7.840   5.669  18.807  0.00  0.00    +0.000 A 
ATOM     17  C   UNL     1       6.726   4.886  18.463  0.00  0.00    +0.000 A 
ENDBRANCH   1  11
BRANCH  10  18
ATOM     18  O   UNL     1       0.570   3.950  20.279  0.00  0.00    +0.000 OA
ATOM     19  H   UNL     1      -0.169   3.325  20.226  0.00  0.00    +0.000 HD
ENDBRANCH  10  18
BRANCH   1  20
ATOM     20  C   UNL     1       4.373   4.388  15.925  0.00  0.00    +0.000 C 
BRANCH  20  22
ATOM     21  O   UNL     1       5.186   6.403  14.830  0.00  0.00    +0.000 OA
ATOM     22  C   UNL     1       5.326   5.211  15.072  0.00  0.00    +0.000 C 
ATOM     23  N   UNL     1       6.349   4.465  14.513  0.00  0.00    +0.000 N 
ATOM     24  C   UNL     1       7.403   4.989  13.641  0.00  0.00    +0.000 C 
ATOM     25  C   UNL     1       7.048   3.888  12.633  0.00  0.00    +0.000 C 
ATOM     26  C   UNL     1       6.170   3.243  13.719  0.00  0.00    +0.000 C 
BRANCH  25  27
ATOM     27  O   UNL     1       6.381   4.307  11.421  0.00  0.00    +0.000 OA
ATOM     28  H   UNL     1       6.574   5.259  11.338  0.00  0.00    +0.000 HD
ENDBRANCH  25  27
ENDBRANCH  20  22
ENDBRANCH   1  20
TORSDOF 5
ENDMDL
MODEL 9
REMARK VINA RESULT:      -7.3      3.082      5.526
REMARK  Name = 
REMARK  5 active torsions:
REMARK  status: ('A' for Active; 'I' for Inactive)
REMARK    1  A    between atoms: C_2  and  C_3
REMARK    2  A    between atoms: C_3  and  C_4
REMARK    3  A    between atoms: C_4  and  C_5
REMARK    4  A    between atoms: C_20  and  O_21
REMARK    5  A    between atoms: C_24  and  O_25
REMARK                            x       y       z     vdW  Elec       q    Type
REMARK                         _______ _______ _______ _____ _____    ______ ____
ROOT
ATOM      1  C   UNL     1       2.916   4.891  18.232  0.00  0.00    +0.000 C 
ATOM      2  C   UNL     1       3.280   4.792  19.768  0.00  0.00    +0.000 C 
ATOM      3  C   UNL     1       4.020   3.454  20.055  0.00  0.00    +0.000 C 
ATOM      4  C   UNL     1       3.101   2.253  19.776  0.00  0.00    +0.000 C 
ATOM      5  C   UNL     1       2.684   2.294  18.296  0.00  0.00    +0.000 C 
ATOM      6  C   UNL     1       1.967   3.630  17.977  0.00  0.00    +0.000 C 
ATOM      7  C   UNL     1       0.702   3.671  18.889  0.00  0.00    +0.000 C 
ATOM      8  C   UNL     1       1.105   3.654  20.373  0.00  0.00    +0.000 C 
ATOM      9  C   UNL     1       2.028   4.847  20.662  0.00  0.00    +0.000 C 
ATOM     10  C   UNL     1       1.835   2.327  20.648  0.00  0.00    +0.000 C 
ENDROOT
BRANCH   1  11
ATOM     11  C   UNL     1       4.211   4.908  17.359  0.00  0.00    +0.000 A 
ATOM     12  C   UNL     1       5.249   5.831  17.632  0.00  0.00    +0.000 A 
ATOM     13  C   UNL     1       6.440   5.853  16.903  0.00  0.00    +0.000 A 
ATOM     14  C   UNL     1       6.612   4.956  15.868  0.00  0.00    +0.000 A 
ATOM     15  F   UNL     1       7.757   4.960  15.174  0.00  0.00    +0.000 F 
ATOM     16  C   UNL     1       5.607   4.056  15.541  0.00  0.00    +0.000 A 
ATOM     17  C   UNL     1       4.409   4.039  16.272  0.00  0.00    +0.000 A 
ENDBRANCH   1  11
BRANCH  10  18
ATOM     18  O   UNL     1       2.131   2.171  22.030  0.00  0.00    +0.000 OA
ATOM     19  H   UNL     1       1.694   1.373  22.368  0.00  0.00    +0.000 HD
ENDBRANCH  10  18
BRANCH   1  20
ATOM     20  C   UNL     1       2.090   6.164  17.828  0.00  0.00    +0.000 C 
BRANCH  20  22
ATOM     21  O   UNL     1       3.004   7.609  19.559  0.00  0.00    +0.000 OA
ATOM     22  C   UNL     1       2.399   7.492  18.500  0.00  0.00    +0.000 C 
ATOM     23  N   UNL     1       1.861   8.583  17.841  0.00  0.00    +0.000 N 
ATOM     24  C   UNL     1       1.988   9.979  18.266  0.00  0.00    +0.000 C 
ATOM     25  C   UNL     1       0.463  10.099  18.161  0.00  0.00    +0.000 C 
ATOM     26  C   UNL     1       0.450   8.730  17.460  0.00  0.00    +0.000 C 
BRANCH  25  27
ATOM     27  O   UNL     1      -0.268  10.199  19.406  0.00  0.00    +0.000 OA
ATOM     28  H   UNL     1      -1.078  10.695  19.188  0.00  0.00    +0.000 HD
ENDBRANCH  25  27
ENDBRANCH  20  22
ENDBRANCH   1  20
TORSDOF 5
ENDMDL
