MODEL 1
REMARK VINA RESULT:      -7.0      0.000      0.000
REMARK  Name = 
REMARK  9 active torsions:
REMARK  status: ('A' for Active; 'I' for Inactive)
REMARK    1  A    between atoms: C_1  and  C_2
REMARK    2  A    between atoms: C_2  and  C_3
REMARK    3  A    between atoms: C_3  and  N_4
REMARK    4  A    between atoms: N_4  and  C_5
REMARK    5  A    between atoms: N_4  and  C_8
REMARK    6  A    between atoms: C_5  and  C_6
REMARK    7  A    between atoms: C_6  and  C_7
REMARK    8  A    between atoms: C_12  and  O_13
REMARK    9  A    between atoms: C_18  and  C_19
REMARK                            x       y       z     vdW  Elec       q    Type
REMARK                         _______ _______ _______ _____ _____    ______ ____
ROOT
ATOM      1  C   UNL     1       4.967   4.484  17.525  0.00  0.00    +0.000 C 
ATOM      2  C   UNL     1       4.859   4.141  19.042  0.00  0.00    +0.000 C 
ATOM      3  C   UNL     1       3.469   3.747  19.493  0.00  0.00    +0.000 A 
ATOM      4  C   UNL     1       3.311   3.125  20.744  0.00  0.00    +0.000 A 
ATOM      5  C   UNL     1       2.045   2.738  21.173  0.00  0.00    +0.000 A 
ATOM      6  C   UNL     1       0.930   2.958  20.381  0.00  0.00    +0.000 A 
ATOM      7  C   UNL     1       1.073   3.596  19.147  0.00  0.00    +0.000 A 
ATOM      8  C   UNL     1       2.340   4.013  18.704  0.00  0.00    +0.000 A 
ATOM      9  C   UNL     1       2.461   4.694  17.365  0.00  0.00    +0.000 C 
ATOM     10  C   UNL     1       3.792   5.447  17.168  0.00  0.00    +0.000 C 
ATOM     11  C   UNL     1       3.794   6.770  17.950  0.00  0.00    +0.000 C 
ENDROOT
BRANCH   5  12
ATOM     12  O   UNL     1       1.858   2.126  22.378  0.00  0.00    +0.000 OA
ATOM     13  H   UNL     1       0.908   1.960  22.497  0.00  0.00    +0.000 HD
ENDBRANCH   5  12
BRANCH   1  14
ATOM     14  N   UNL     1       6.344   4.948  17.132  0.00  0.00    +0.000 NA
BRANCH  14  15
ATOM     15  C   UNL     1       7.262   4.889  18.298  0.00  0.00    +0.000 C 
BRANCH  15  17
ATOM     16  C   UNL     1       7.724   7.366  17.861  0.00  0.00    +0.000 C 
ATOM     17  C   UNL     1       7.844   6.206  18.838  0.00  0.00    +0.000 C 
ENDBRANCH  15  17
ENDBRANCH  14  15
BRANCH  14  18
ATOM     18  C   UNL     1       6.896   4.223  15.962  0.00  0.00    +0.000 C 
BRANCH  18  19
ATOM     19  C   UNL     1       6.642   4.850  14.579  0.00  0.00    +0.000 C 
ATOM     20  C   UNL     1       6.153   3.820  13.568  0.00  0.00    +0.000 C 
ENDBRANCH  18  19
ENDBRANCH  14  18
ENDBRANCH   1  14
TORSDOF 6
ENDMDL
MODEL 2
REMARK VINA RESULT:      -6.8      2.708      4.571
REMARK  Name = 
REMARK  9 active torsions:
REMARK  status: ('A' for Active; 'I' for Inactive)
REMARK    1  A    between atoms: C_1  and  C_2
REMARK    2  A    between atoms: C_2  and  C_3
REMARK    3  A    between atoms: C_3  and  N_4
REMARK    4  A    between atoms: N_4  and  C_5
REMARK    5  A    between atoms: N_4  and  C_8
REMARK    6  A    between atoms: C_5  and  C_6
REMARK    7  A    between atoms: C_6  and  C_7
REMARK    8  A    between atoms: C_12  and  O_13
REMARK    9  A    between atoms: C_18  and  C_19
REMARK                            x       y       z     vdW  Elec       q    Type
REMARK                         _______ _______ _______ _____ _____    ______ ____
ROOT
ATOM      1  C   UNL     1       4.830   5.215  18.263  0.00  0.00    +0.000 C 
ATOM      2  C   UNL     1       4.108   6.303  17.412  0.00  0.00    +0.000 C 
ATOM      3  C   UNL     1       3.115   7.142  18.188  0.00  0.00    +0.000 A 
ATOM      4  C   UNL     1       2.641   8.336  17.616  0.00  0.00    +0.000 A 
ATOM      5  C   UNL     1       1.742   9.133  18.318  0.00  0.00    +0.000 A 
ATOM      6  C   UNL     1       1.303   8.766  19.579  0.00  0.00    +0.000 A 
ATOM      7  C   UNL     1       1.750   7.571  20.147  0.00  0.00    +0.000 A 
ATOM      8  C   UNL     1       2.643   6.741  19.446  0.00  0.00    +0.000 A 
ATOM      9  C   UNL     1       3.110   5.460  20.088  0.00  0.00    +0.000 C 
ATOM     10  C   UNL     1       3.746   4.463  19.098  0.00  0.00    +0.000 C 
ATOM     11  C   UNL     1       2.667   3.763  18.257  0.00  0.00    +0.000 C 
ENDROOT
BRANCH   5  12
ATOM     12  O   UNL     1       1.267  10.301  17.795  0.00  0.00    +0.000 OA
ATOM     13  H   UNL     1       1.318  10.250  16.827  0.00  0.00    +0.000 HD
ENDBRANCH   5  12
BRANCH   1  14
ATOM     14  N   UNL     1       5.746   4.349  17.440  0.00  0.00    +0.000 NA
BRANCH  14  15
ATOM     15  C   UNL     1       5.372   4.417  16.005  0.00  0.00    +0.000 C 
BRANCH  15  17
ATOM     16  C   UNL     1       6.139   3.895  13.622  0.00  0.00    +0.000 C 
ATOM     17  C   UNL     1       6.495   4.525  14.960  0.00  0.00    +0.000 C 
ENDBRANCH  15  17
ENDBRANCH  14  15
BRANCH  14  18
ATOM     18  C   UNL     1       7.183   4.654  17.647  0.00  0.00    +0.000 C 
BRANCH  18  19
ATOM     19  C   UNL     1       7.513   5.753  18.675  0.00  0.00    +0.000 C 
ATOM     20  C   UNL     1       7.804   7.090  18.004  0.00  0.00    +0.000 C 
ENDBRANCH  18  19
ENDBRANCH  14  18
ENDBRANCH   1  14
TORSDOF 6
ENDMDL
MODEL 3
REMARK VINA RESULT:      -6.7      0.621      2.562
REMARK  Name = 
REMARK  9 active torsions:
REMARK  status: ('A' for Active; 'I' for Inactive)
REMARK    1  A    between atoms: C_1  and  C_2
REMARK    2  A    between atoms: C_2  and  C_3
REMARK    3  A    between atoms: C_3  and  N_4
REMARK    4  A    between atoms: N_4  and  C_5
REMARK    5  A    between atoms: N_4  and  C_8
REMARK    6  A    between atoms: C_5  and  C_6
REMARK    7  A    between atoms: C_6  and  C_7
REMARK    8  A    between atoms: C_12  and  O_13
REMARK    9  A    between atoms: C_18  and  C_19
REMARK                            x       y       z     vdW  Elec       q    Type
REMARK                         _______ _______ _______ _____ _____    ______ ____
ROOT
ATOM      1  C   UNL     1       5.211   4.236  17.802  0.00  0.00    +0.000 C 
ATOM      2  C   UNL     1       4.869   4.098  19.316  0.00  0.00    +0.000 C 
ATOM      3  C   UNL     1       3.437   3.695  19.596  0.00  0.00    +0.000 A 
ATOM      4  C   UNL     1       3.097   3.242  20.882  0.00  0.00    +0.000 A 
ATOM      5  C   UNL     1       1.791   2.849  21.159  0.00  0.00    +0.000 A 
ATOM      6  C   UNL     1       0.814   2.898  20.178  0.00  0.00    +0.000 A 
ATOM      7  C   UNL     1       1.135   3.367  18.903  0.00  0.00    +0.000 A 
ATOM      8  C   UNL     1       2.444   3.788  18.609  0.00  0.00    +0.000 A 
ATOM      9  C   UNL     1       2.760   4.285  17.222  0.00  0.00    +0.000 C 
ATOM     10  C   UNL     1       4.080   5.076  17.130  0.00  0.00    +0.000 C 
ATOM     11  C   UNL     1       3.912   6.491  17.704  0.00  0.00    +0.000 C 
ENDROOT
BRANCH   5  12
ATOM     12  O   UNL     1       1.429   2.398  22.395  0.00  0.00    +0.000 OA
ATOM     13  H   UNL     1       1.113   3.153  22.919  0.00  0.00    +0.000 HD
ENDBRANCH   5  12
BRANCH   1  14
ATOM     14  N   UNL     1       6.618   4.717  17.567  0.00  0.00    +0.000 NA
BRANCH  14  15
ATOM     15  C   UNL     1       6.905   4.791  16.112  0.00  0.00    +0.000 C 
BRANCH  15  17
ATOM     16  C   UNL     1       5.761   4.158  13.915  0.00  0.00    +0.000 C 
ATOM     17  C   UNL     1       6.390   3.660  15.207  0.00  0.00    +0.000 C 
ENDBRANCH  15  17
ENDBRANCH  14  15
BRANCH  14  18
ATOM     18  C   UNL     1       6.921   5.998  18.251  0.00  0.00    +0.000 C 
BRANCH  18  19
ATOM     19  C   UNL     1       7.409   7.157  17.361  0.00  0.00    +0.000 C 
ATOM     20  C   UNL     1       8.175   8.204  18.160  0.00  0.00    +0.000 C 
ENDBRANCH  18  19
ENDBRANCH  14  18
ENDBRANCH   1  14
TORSDOF 6
ENDMDL
MODEL 4
REMARK VINA RESULT:      -6.6      2.390      4.034
REMARK  Name = 
REMARK  9 active torsions:
REMARK  status: ('A' for Active; 'I' for Inactive)
REMARK    1  A    between atoms: C_1  and  C_2
REMARK    2  A    between atoms: C_2  and  C_3
REMARK    3  A    between atoms: C_3  and  N_4
REMARK    4  A    between atoms: N_4  and  C_5
REMARK    5  A    between atoms: N_4  and  C_8
REMARK    6  A    between atoms: C_5  and  C_6
REMARK    7  A    between atoms: C_6  and  C_7
REMARK    8  A    between atoms: C_12  and  O_13
REMARK    9  A    between atoms: C_18  and  C_19
REMARK                            x       y       z     vdW  Elec       q    Type
REMARK                         _______ _______ _______ _____ _____    ______ ____
ROOT
ATOM      1  C   UNL     1       4.999   4.750  18.009  0.00  0.00    +0.000 C 
ATOM      2  C   UNL     1       4.180   6.027  17.649  0.00  0.00    +0.000 C 
ATOM      3  C   UNL     1       3.165   6.430  18.697  0.00  0.00    +0.000 A 
ATOM      4  C   UNL     1       2.597   7.715  18.634  0.00  0.00    +0.000 A 
ATOM      5  C   UNL     1       1.675   8.116  19.596  0.00  0.00    +0.000 A 
ATOM      6  C   UNL     1       1.305   7.261  20.622  0.00  0.00    +0.000 A 
ATOM      7  C   UNL     1       1.846   5.976  20.681  0.00  0.00    +0.000 A 
ATOM      8  C   UNL     1       2.764   5.544  19.707  0.00  0.00    +0.000 A 
ATOM      9  C   UNL     1       3.333   4.152  19.802  0.00  0.00    +0.000 C 
ATOM     10  C   UNL     1       3.995   3.660  18.499  0.00  0.00    +0.000 C 
ATOM     11  C   UNL     1       2.933   3.261  17.463  0.00  0.00    +0.000 C 
ENDROOT
BRANCH   5  12
ATOM     12  O   UNL     1       1.110   9.357  19.568  0.00  0.00    +0.000 OA
ATOM     13  H   UNL     1       0.180   9.268  19.303  0.00  0.00    +0.000 HD
ENDBRANCH   5  12
BRANCH   1  14
ATOM     14  N   UNL     1       5.938   4.335  16.909  0.00  0.00    +0.000 NA
BRANCH  14  15
ATOM     15  C   UNL     1       5.562   4.992  15.631  0.00  0.00    +0.000 C 
BRANCH  15  17
ATOM     16  C   UNL     1       5.987   3.803  13.408  0.00  0.00    +0.000 C 
ATOM     17  C   UNL     1       6.492   4.821  14.419  0.00  0.00    +0.000 C 
ENDBRANCH  15  17
ENDBRANCH  14  15
BRANCH  14  18
ATOM     18  C   UNL     1       7.366   4.560  17.241  0.00  0.00    +0.000 C 
BRANCH  18  19
ATOM     19  C   UNL     1       7.658   5.445  18.467  0.00  0.00    +0.000 C 
ATOM     20  C   UNL     1       7.800   6.914  18.088  0.00  0.00    +0.000 C 
ENDBRANCH  18  19
ENDBRANCH  14  18
ENDBRANCH   1  14
TORSDOF 6
ENDMDL
MODEL 5
REMARK VINA RESULT:      -6.5      1.603      2.160
REMARK  Name = 
REMARK  9 active torsions:
REMARK  status: ('A' for Active; 'I' for Inactive)
REMARK    1  A    between atoms: C_1  and  C_2
REMARK    2  A    between atoms: C_2  and  C_3
REMARK    3  A    between atoms: C_3  and  N_4
REMARK    4  A    between atoms: N_4  and  C_5
REMARK    5  A    between atoms: N_4  and  C_8
REMARK    6  A    between atoms: C_5  and  C_6
REMARK    7  A    between atoms: C_6  and  C_7
REMARK    8  A    between atoms: C_12  and  O_13
REMARK    9  A    between atoms: C_18  and  C_19
REMARK                            x       y       z     vdW  Elec       q    Type
REMARK                         _______ _______ _______ _____ _____    ______ ____
ROOT
ATOM      1  C   UNL     1       4.418   5.805  17.360  0.00  0.00    +0.000 C 
ATOM      2  C   UNL     1       3.878   4.362  17.120  0.00  0.00    +0.000 C 
ATOM      3  C   UNL     1       2.787   3.940  18.081  0.00  0.00    +0.000 A 
ATOM      4  C   UNL     1       2.016   2.804  17.777  0.00  0.00    +0.000 A 
ATOM      5  C   UNL     1       0.995   2.406  18.635  0.00  0.00    +0.000 A 
ATOM      6  C   UNL     1       0.726   3.117  19.793  0.00  0.00    +0.000 A 
ATOM      7  C   UNL     1       1.500   4.234  20.116  0.00  0.00    +0.000 A 
ATOM      8  C   UNL     1       2.549   4.640  19.273  0.00  0.00    +0.000 A 
ATOM      9  C   UNL     1       3.362   5.852  19.646  0.00  0.00    +0.000 C 
ATOM     10  C   UNL     1       4.700   5.963  18.887  0.00  0.00    +0.000 C 
ATOM     11  C   UNL     1       5.732   4.975  19.450  0.00  0.00    +0.000 C 
ENDROOT
BRANCH   5  12
ATOM     12  O   UNL     1       0.225   1.312  18.367  0.00  0.00    +0.000 OA
ATOM     13  H   UNL     1      -0.462   1.567  17.729  0.00  0.00    +0.000 HD
ENDBRANCH   5  12
BRANCH   1  14
ATOM     14  N   UNL     1       5.556   6.157  16.439  0.00  0.00    +0.000 NA
BRANCH  14  15
ATOM     15  C   UNL     1       6.222   7.405  16.892  0.00  0.00    +0.000 C 
BRANCH  15  17
ATOM     16  C   UNL     1       8.190   8.638  17.962  0.00  0.00    +0.000 C 
ATOM     17  C   UNL     1       7.653   7.311  17.446  0.00  0.00    +0.000 C 
ENDBRANCH  15  17
ENDBRANCH  14  15
BRANCH  14  18
ATOM     18  C   UNL     1       6.529   5.051  16.260  0.00  0.00    +0.000 C 
BRANCH  18  19
ATOM     19  C   UNL     1       6.992   4.768  14.819  0.00  0.00    +0.000 C 
ATOM     20  C   UNL     1       5.918   4.054  14.006  0.00  0.00    +0.000 C 
ENDBRANCH  18  19
ENDBRANCH  14  18
ENDBRANCH   1  14
TORSDOF 6
ENDMDL
MODEL 6
REMARK VINA RESULT:      -6.4      1.630      3.399
REMARK  Name = 
REMARK  9 active torsions:
REMARK  status: ('A' for Active; 'I' for Inactive)
REMARK    1  A    between atoms: C_1  and  C_2
REMARK    2  A    between atoms: C_2  and  C_3
REMARK    3  A    between atoms: C_3  and  N_4
REMARK    4  A    between atoms: N_4  and  C_5
REMARK    5  A    between atoms: N_4  and  C_8
REMARK    6  A    between atoms: C_5  and  C_6
REMARK    7  A    between atoms: C_6  and  C_7
REMARK    8  A    between atoms: C_12  and  O_13
REMARK    9  A    between atoms: C_18  and  C_19
REMARK                            x       y       z     vdW  Elec       q    Type
REMARK                         _______ _______ _______ _____ _____    ______ ____
ROOT
ATOM      1  C   UNL     1       4.724   5.591  17.412  0.00  0.00    +0.000 C 
ATOM      2  C   UNL     1       4.101   4.178  17.196  0.00  0.00    +0.000 C 
ATOM      3  C   UNL     1       2.929   3.870  18.103  0.00  0.00    +0.000 A 
ATOM      4  C   UNL     1       2.102   2.776  17.796  0.00  0.00    +0.000 A 
ATOM      5  C   UNL     1       1.008   2.483  18.605  0.00  0.00    +0.000 A 
ATOM      6  C   UNL     1       0.719   3.259  19.715  0.00  0.00    +0.000 A 
ATOM      7  C   UNL     1       1.547   4.335  20.042  0.00  0.00    +0.000 A 
ATOM      8  C   UNL     1       2.670   4.635  19.250  0.00  0.00    +0.000 A 
ATOM      9  C   UNL     1       3.540   5.806  19.626  0.00  0.00    +0.000 C 
ATOM     10  C   UNL     1       4.925   5.796  18.947  0.00  0.00    +0.000 C 
ATOM     11  C   UNL     1       5.853   4.767  19.610  0.00  0.00    +0.000 C 
ENDROOT
BRANCH   5  12
ATOM     12  O   UNL     1       0.181   1.432  18.332  0.00  0.00    +0.000 OA
ATOM     13  H   UNL     1       0.260   1.213  17.390  0.00  0.00    +0.000 HD
ENDBRANCH   5  12
BRANCH   1  14
ATOM     14  N   UNL     1       5.936   5.828  16.551  0.00  0.00    +0.000 NA
BRANCH  14  15
ATOM     15  C   UNL     1       5.638   5.493  15.135  0.00  0.00    +0.000 C 
BRANCH  15  17
ATOM     16  C   UNL     1       5.977   3.760  13.286  0.00  0.00    +0.000 C 
ATOM     17  C   UNL     1       6.632   4.604  14.369  0.00  0.00    +0.000 C 
ENDBRANCH  15  17
ENDBRANCH  14  15
BRANCH  14  18
ATOM     18  C   UNL     1       6.492   7.196  16.686  0.00  0.00    +0.000 C 
BRANCH  18  19
ATOM     19  C   UNL     1       7.716   7.355  17.608  0.00  0.00    +0.000 C 
ATOM     20  C   UNL     1       8.066   8.820  17.840  0.00  0.00    +0.000 C 
ENDBRANCH  18  19
ENDBRANCH  14  18
ENDBRANCH   1  14
TORSDOF 6
ENDMDL
MODEL 7
REMARK VINA RESULT:      -6.4      1.177      1.314
REMARK  Name = 
REMARK  9 active torsions:
REMARK  status: ('A' for Active; 'I' for Inactive)
REMARK    1  A    between atoms: C_1  and  C_2
REMARK    2  A    between atoms: C_2  and  C_3
REMARK    3  A    between atoms: C_3  and  N_4
REMARK    4  A    between atoms: N_4  and  C_5
REMARK    5  A    between atoms: N_4  and  C_8
REMARK    6  A    between atoms: C_5  and  C_6
REMARK    7  A    between atoms: C_6  and  C_7
REMARK    8  A    between atoms: C_12  and  O_13
REMARK    9  A    between atoms: C_18  and  C_19
REMARK                            x       y       z     vdW  Elec       q    Type
REMARK                         _______ _______ _______ _____ _____    ______ ____
ROOT
ATOM      1  C   UNL     1       3.993   5.641  17.402  0.00  0.00    +0.000 C 
ATOM      2  C   UNL     1       4.372   5.070  18.803  0.00  0.00    +0.000 C 
ATOM      3  C   UNL     1       3.255   4.311  19.487  0.00  0.00    +0.000 A 
ATOM      4  C   UNL     1       3.563   3.498  20.592  0.00  0.00    +0.000 A 
ATOM      5  C   UNL     1       2.556   2.777  21.227  0.00  0.00    +0.000 A 
ATOM      6  C   UNL     1       1.246   2.850  20.785  0.00  0.00    +0.000 A 
ATOM      7  C   UNL     1       0.925   3.672  19.703  0.00  0.00    +0.000 A 
ATOM      8  C   UNL     1       1.923   4.424  19.060  0.00  0.00    +0.000 A 
ATOM      9  C   UNL     1       1.546   5.298  17.892  0.00  0.00    +0.000 C 
ATOM     10  C   UNL     1       2.611   6.354  17.534  0.00  0.00    +0.000 C 
ATOM     11  C   UNL     1       2.588   7.517  18.538  0.00  0.00    +0.000 C 
ENDROOT
BRANCH   5  12
ATOM     12  O   UNL     1       2.822   1.973  22.297  0.00  0.00    +0.000 OA
ATOM     13  H   UNL     1       2.066   1.380  22.434  0.00  0.00    +0.000 HD
ENDBRANCH   5  12
BRANCH   1  14
ATOM     14  N   UNL     1       5.101   6.456  16.790  0.00  0.00    +0.000 NA
BRANCH  14  15
ATOM     15  C   UNL     1       6.200   6.653  17.769  0.00  0.00    +0.000 C 
BRANCH  15  17
ATOM     16  C   UNL     1       8.019   8.449  17.825  0.00  0.00    +0.000 C 
ATOM     17  C   UNL     1       7.570   7.115  17.247  0.00  0.00    +0.000 C 
ENDBRANCH  15  17
ENDBRANCH  14  15
BRANCH  14  18
ATOM     18  C   UNL     1       5.600   5.899  15.510  0.00  0.00    +0.000 C 
BRANCH  18  19
ATOM     19  C   UNL     1       5.430   4.382  15.305  0.00  0.00    +0.000 C 
ATOM     20  C   UNL     1       6.035   3.915  13.987  0.00  0.00    +0.000 C 
ENDBRANCH  18  19
ENDBRANCH  14  18
ENDBRANCH   1  14
TORSDOF 6
ENDMDL
MODEL 8
REMARK VINA RESULT:      -6.2      3.097      4.098
REMARK  Name = 
REMARK  9 active torsions:
REMARK  status: ('A' for Active; 'I' for Inactive)
REMARK    1  A    between atoms: C_1  and  C_2
REMARK    2  A    between atoms: C_2  and  C_3
REMARK    3  A    between atoms: C_3  and  N_4
REMARK    4  A    between atoms: N_4  and  C_5
REMARK    5  A    between atoms: N_4  and  C_8
REMARK    6  A    between atoms: C_5  and  C_6
REMARK    7  A    between atoms: C_6  and  C_7
REMARK    8  A    between atoms: C_12  and  O_13
REMARK    9  A    between atoms: C_18  and  C_19
REMARK                            x       y       z     vdW  Elec       q    Type
REMARK                         _______ _______ _______ _____ _____    ______ ____
ROOT
ATOM      1  C   UNL     1       4.098   6.244  17.802  0.00  0.00    +0.000 C 
ATOM      2  C   UNL     1       3.165   7.459  17.510  0.00  0.00    +0.000 C 
ATOM      3  C   UNL     1       2.330   7.899  18.693  0.00  0.00    +0.000 A 
ATOM      4  C   UNL     1       1.696   9.153  18.648  0.00  0.00    +0.000 A 
ATOM      5  C   UNL     1       0.937   9.587  19.731  0.00  0.00    +0.000 A 
ATOM      6  C   UNL     1       0.796   8.797  20.860  0.00  0.00    +0.000 A 
ATOM      7  C   UNL     1       1.403   7.541  20.907  0.00  0.00    +0.000 A 
ATOM      8  C   UNL     1       2.157   7.075  19.815  0.00  0.00    +0.000 A 
ATOM      9  C   UNL     1       2.804   5.716  19.898  0.00  0.00    +0.000 C 
ATOM     10  C   UNL     1       3.252   5.155  18.533  0.00  0.00    +0.000 C 
ATOM     11  C   UNL     1       2.047   4.641  17.731  0.00  0.00    +0.000 C 
ENDROOT
BRANCH   5  12
ATOM     12  O   UNL     1       0.313  10.801  19.723  0.00  0.00    +0.000 OA
ATOM     13  H   UNL     1      -0.176  10.891  18.889  0.00  0.00    +0.000 HD
ENDBRANCH   5  12
BRANCH   1  14
ATOM     14  N   UNL     1       4.850   5.785  16.581  0.00  0.00    +0.000 NA
BRANCH  14  15
ATOM     15  C   UNL     1       6.100   6.570  16.418  0.00  0.00    +0.000 C 
BRANCH  15  17
ATOM     16  C   UNL     1       7.774   8.074  17.632  0.00  0.00    +0.000 C 
ATOM     17  C   UNL     1       7.012   6.757  17.641  0.00  0.00    +0.000 C 
ENDBRANCH  15  17
ENDBRANCH  14  15
BRANCH  14  18
ATOM     18  C   UNL     1       5.114   4.325  16.569  0.00  0.00    +0.000 C 
BRANCH  18  19
ATOM     19  C   UNL     1       6.149   3.820  15.546  0.00  0.00    +0.000 C 
ATOM     20  C   UNL     1       5.678   4.027  14.112  0.00  0.00    +0.000 C 
ENDBRANCH  18  19
ENDBRANCH  14  18
ENDBRANCH   1  14
TORSDOF 6
ENDMDL
MODEL 9
REMARK VINA RESULT:      -6.2      3.315      4.881
REMARK  Name = 
REMARK  9 active torsions:
REMARK  status: ('A' for Active; 'I' for Inactive)
REMARK    1  A    between atoms: C_1  and  C_2
REMARK    2  A    between atoms: C_2  and  C_3
REMARK    3  A    between atoms: C_3  and  N_4
REMARK    4  A    between atoms: N_4  and  C_5
REMARK    5  A    between atoms: N_4  and  C_8
REMARK    6  A    between atoms: C_5  and  C_6
REMARK    7  A    between atoms: C_6  and  C_7
REMARK    8  A    between atoms: C_12  and  O_13
REMARK    9  A    between atoms: C_18  and  C_19
REMARK                            x       y       z     vdW  Elec       q    Type
REMARK                         _______ _______ _______ _____ _____    ______ ____
ROOT
ATOM      1  C   UNL     1       3.670   5.390  19.250  0.00  0.00    +0.000 C 
ATOM      2  C   UNL     1       3.181   6.445  18.211  0.00  0.00    +0.000 C 
ATOM      3  C   UNL     1       2.366   7.573  18.807  0.00  0.00    +0.000 A 
ATOM      4  C   UNL     1       2.139   8.728  18.038  0.00  0.00    +0.000 A 
ATOM      5  C   UNL     1       1.409   9.786  18.571  0.00  0.00    +0.000 A 
ATOM      6  C   UNL     1       0.899   9.718  19.857  0.00  0.00    +0.000 A 
ATOM      7  C   UNL     1       1.099   8.567  20.622  0.00  0.00    +0.000 A 
ATOM      8  C   UNL     1       1.817   7.479  20.095  0.00  0.00    +0.000 A 
ATOM      9  C   UNL     1       2.020   6.253  20.947  0.00  0.00    +0.000 C 
ATOM     10  C   UNL     1       2.455   5.006  20.150  0.00  0.00    +0.000 C 
ATOM     11  C   UNL     1       1.266   4.400  19.390  0.00  0.00    +0.000 C 
ENDROOT
BRANCH   5  12
ATOM     12  O   UNL     1       1.175  10.923  17.854  0.00  0.00    +0.000 OA
ATOM     13  H   UNL     1       1.703  10.889  17.040  0.00  0.00    +0.000 HD
ENDBRANCH   5  12
BRANCH   1  14
ATOM     14  N   UNL     1       4.405   4.244  18.608  0.00  0.00    +0.000 NA
BRANCH  14  15
ATOM     15  C   UNL     1       5.686   4.712  18.022  0.00  0.00    +0.000 C 
BRANCH  15  17
ATOM     16  C   UNL     1       7.550   6.453  18.212  0.00  0.00    +0.000 C 
ATOM     17  C   UNL     1       6.691   5.429  18.939  0.00  0.00    +0.000 C 
ENDBRANCH  15  17
ENDBRANCH  14  15
BRANCH  14  18
ATOM     18  C   UNL     1       4.608   3.093  19.522  0.00  0.00    +0.000 C 
BRANCH  18  19
ATOM     19  C   UNL     1       3.867   1.791  19.167  0.00  0.00    +0.000 C 
ATOM     20  C   UNL     1       3.248   1.850  17.775  0.00  0.00    +0.000 C 
ENDBRANCH  18  19
ENDBRANCH  14  18
ENDBRANCH   1  14
TORSDOF 6
ENDMDL
