MODEL 1
REMARK VINA RESULT:      -8.3      0.000      0.000
REMARK  Name = 
REMARK  8 active torsions:
REMARK  status: ('A' for Active; 'I' for Inactive)
REMARK    1  A    between atoms: C_1  and  O_2
REMARK    2  A    between atoms: O_2  and  C_3
REMARK    3  A    between atoms: C_7  and  C_8
REMARK    4  A    between atoms: C_8  and  N_9
REMARK    5  A    between atoms: C_17  and  C_19
REMARK    6  A    between atoms: C_19  and  C_20
REMARK    7  A    between atoms: C_28  and  O_29
REMARK    8  A    between atoms: O_29  and  C_30
REMARK                            x       y       z     vdW  Elec       q    Type
REMARK                         _______ _______ _______ _____ _____    ______ ____
ROOT
ATOM      1  N   UNL     1       4.346   3.405  18.829  0.00  0.00    +0.000 NA
ATOM      2  C   UNL     1       3.528   2.259  18.420  0.00  0.00    +0.000 C 
ATOM      3  C   UNL     1       2.132   2.619  17.917  0.00  0.00    +0.000 C 
ATOM      4  C   UNL     1       1.386   3.625  18.797  0.00  0.00    +0.000 C 
ATOM      5  C   UNL     1       2.228   4.809  19.330  0.00  0.00    +0.000 C 
ATOM      6  C   UNL     1       1.419   5.469  20.488  0.00  0.00    +0.000 C 
ATOM      7  C   UNL     1       1.603   6.973  20.374  0.00  0.00    +0.000 C 
ATOM      8  N   UNL     1       1.955   7.199  18.996  0.00  0.00    +0.000 N 
ATOM      9  C   UNL     1       2.175   8.420  18.388  0.00  0.00    +0.000 C 
ATOM     10  O   UNL     1       2.630   8.484  17.238  0.00  0.00    +0.000 OA
ATOM     11  C   UNL     1       2.398   5.980  18.340  0.00  0.00    +0.000 C 
ATOM     12  C   UNL     1       3.606   4.254  19.791  0.00  0.00    +0.000 C 
ENDROOT
BRANCH   1  13
ATOM     13  C   UNL     1       4.901   4.151  17.680  0.00  0.00    +0.000 C 
BRANCH  13  18
ATOM     14  C   UNL     1       7.185   7.263  17.692  0.00  0.00    +0.000 A 
ATOM     15  C   UNL     1       8.072   6.842  18.716  0.00  0.00    +0.000 A 
ATOM     16  C   UNL     1       7.977   5.602  19.344  0.00  0.00    +0.000 A 
ATOM     17  C   UNL     1       6.959   4.745  18.981  0.00  0.00    +0.000 A 
ATOM     18  C   UNL     1       6.039   5.127  17.989  0.00  0.00    +0.000 A 
ATOM     19  C   UNL     1       6.145   6.395  17.316  0.00  0.00    +0.000 A 
BRANCH  14  21
ATOM     20  C   UNL     1       8.207   9.488  17.855  0.00  0.00    +0.000 C 
ATOM     21  O   UNL     1       7.700   8.393  17.128  0.00  0.00    +0.000 OA
ENDBRANCH  14  21
BRANCH  19  22
ATOM     22  O   UNL     1       5.282   6.426  16.264  0.00  0.00    +0.000 OA
ATOM     23  C   UNL     1       5.419   5.815  15.007  0.00  0.00    +0.000 C 
ENDBRANCH  19  22
ENDBRANCH  13  18
ENDBRANCH   1  13
BRANCH   9  24
ATOM     24  C   UNL     1       1.844   9.700  19.149  0.00  0.00    +0.000 C 
BRANCH  24  25
ATOM     25  C   UNL     1       0.618  10.436  18.659  0.00  0.00    +0.000 A 
ATOM     26  C   UNL     1      -0.438   9.705  18.069  0.00  0.00    +0.000 A 
ATOM     27  C   UNL     1      -1.608  10.352  17.659  0.00  0.00    +0.000 A 
ATOM     28  C   UNL     1      -1.738  11.735  17.815  0.00  0.00    +0.000 A 
ATOM     29  C   UNL     1      -0.708  12.456  18.400  0.00  0.00    +0.000 A 
ATOM     30  C   UNL     1       0.455  11.810  18.825  0.00  0.00    +0.000 A 
ENDBRANCH  24  25
ENDBRANCH   9  24
TORSDOF 6
ENDMDL
MODEL 2
REMARK VINA RESULT:      -7.5      4.526      9.846
REMARK  Name = 
REMARK  8 active torsions:
REMARK  status: ('A' for Active; 'I' for Inactive)
REMARK    1  A    between atoms: C_1  and  O_2
REMARK    2  A    between atoms: O_2  and  C_3
REMARK    3  A    between atoms: C_7  and  C_8
REMARK    4  A    between atoms: C_8  and  N_9
REMARK    5  A    between atoms: C_17  and  C_19
REMARK    6  A    between atoms: C_19  and  C_20
REMARK    7  A    between atoms: C_28  and  O_29
REMARK    8  A    between atoms: O_29  and  C_30
REMARK                            x       y       z     vdW  Elec       q    Type
REMARK                         _______ _______ _______ _____ _____    ______ ____
ROOT
ATOM      1  N   UNL     1      -0.074  12.960  20.580  0.00  0.00    +0.000 NA
ATOM      2  C   UNL     1      -1.368  13.309  19.984  0.00  0.00    +0.000 C 
ATOM      3  C   UNL     1      -2.138  12.129  19.394  0.00  0.00    +0.000 C 
ATOM      4  C   UNL     1      -1.291  11.197  18.524  0.00  0.00    +0.000 C 
ATOM      5  C   UNL     1       0.122  10.868  19.065  0.00  0.00    +0.000 C 
ATOM      6  C   UNL     1       0.939  10.259  17.885  0.00  0.00    +0.000 C 
ATOM      7  C   UNL     1       1.788   9.133  18.451  0.00  0.00    +0.000 C 
ATOM      8  N   UNL     1       1.111   8.730  19.657  0.00  0.00    +0.000 N 
ATOM      9  C   UNL     1       1.472   7.700  20.504  0.00  0.00    +0.000 C 
ATOM     10  O   UNL     1       0.908   7.549  21.597  0.00  0.00    +0.000 OA
ATOM     11  C   UNL     1       0.166   9.736  20.113  0.00  0.00    +0.000 C 
ATOM     12  C   UNL     1       0.744  12.179  19.622  0.00  0.00    +0.000 C 
ENDROOT
BRANCH   1  13
ATOM     13  C   UNL     1      -0.208  12.322  21.906  0.00  0.00    +0.000 C 
BRANCH  13  18
ATOM     14  C   UNL     1      -2.308  14.656  24.151  0.00  0.00    +0.000 A 
ATOM     15  C   UNL     1      -3.409  13.785  24.353  0.00  0.00    +0.000 A 
ATOM     16  C   UNL     1      -3.461  12.492  23.836  0.00  0.00    +0.000 A 
ATOM     17  C   UNL     1      -2.411  12.036  23.067  0.00  0.00    +0.000 A 
ATOM     18  C   UNL     1      -1.308  12.872  22.817  0.00  0.00    +0.000 A 
ATOM     19  C   UNL     1      -1.233  14.199  23.369  0.00  0.00    +0.000 A 
BRANCH  14  21
ATOM     20  C   UNL     1      -1.557  16.074  26.008  0.00  0.00    +0.000 C 
ATOM     21  O   UNL     1      -2.460  15.725  24.985  0.00  0.00    +0.000 OA
ENDBRANCH  14  21
BRANCH  19  22
ATOM     22  O   UNL     1       0.013  14.707  23.165  0.00  0.00    +0.000 OA
ATOM     23  C   UNL     1       0.368  15.969  22.660  0.00  0.00    +0.000 C 
ENDBRANCH  19  22
ENDBRANCH  13  18
ENDBRANCH   1  13
BRANCH   9  24
ATOM     24  C   UNL     1       2.574   6.737  20.076  0.00  0.00    +0.000 C 
BRANCH  24  25
ATOM     25  C   UNL     1       2.092   5.388  19.593  0.00  0.00    +0.000 A 
ATOM     26  C   UNL     1       1.557   4.470  20.525  0.00  0.00    +0.000 A 
ATOM     27  C   UNL     1       1.052   3.237  20.099  0.00  0.00    +0.000 A 
ATOM     28  C   UNL     1       1.085   2.894  18.744  0.00  0.00    +0.000 A 
ATOM     29  C   UNL     1       1.601   3.795  17.824  0.00  0.00    +0.000 A 
ATOM     30  C   UNL     1       2.092   5.032  18.245  0.00  0.00    +0.000 A 
ENDBRANCH  24  25
ENDBRANCH   9  24
TORSDOF 6
ENDMDL
MODEL 3
REMARK VINA RESULT:      -7.2      3.894      9.301
REMARK  Name = 
REMARK  8 active torsions:
REMARK  status: ('A' for Active; 'I' for Inactive)
REMARK    1  A    between atoms: C_1  and  O_2
REMARK    2  A    between atoms: O_2  and  C_3
REMARK    3  A    between atoms: C_7  and  C_8
REMARK    4  A    between atoms: C_8  and  N_9
REMARK    5  A    between atoms: C_17  and  C_19
REMARK    6  A    between atoms: C_19  and  C_20
REMARK    7  A    between atoms: C_28  and  O_29
REMARK    8  A    between atoms: O_29  and  C_30
REMARK                            x       y       z     vdW  Elec       q    Type
REMARK                         _______ _______ _______ _____ _____    ______ ____
ROOT
ATOM      1  N   UNL     1       0.822  12.843  19.584  0.00  0.00    +0.000 NA
ATOM      2  C   UNL     1      -0.510  13.201  19.086  0.00  0.00    +0.000 C 
ATOM      3  C   UNL     1      -1.454  12.019  18.881  0.00  0.00    +0.000 C 
ATOM      4  C   UNL     1      -0.824  10.829  18.152  0.00  0.00    +0.000 C 
ATOM      5  C   UNL     1       0.619  10.465  18.578  0.00  0.00    +0.000 C 
ATOM      6  C   UNL     1       1.202   9.524  17.480  0.00  0.00    +0.000 C 
ATOM      7  C   UNL     1       2.025   8.458  18.182  0.00  0.00    +0.000 C 
ATOM      8  N   UNL     1       1.499   8.406  19.521  0.00  0.00    +0.000 N 
ATOM      9  C   UNL     1       1.889   7.550  20.532  0.00  0.00    +0.000 C 
ATOM     10  O   UNL     1       1.479   7.705  21.691  0.00  0.00    +0.000 OA
ATOM     11  C   UNL     1       0.718   9.589  19.845  0.00  0.00    +0.000 C 
ATOM     12  C   UNL     1       1.424  11.785  18.739  0.00  0.00    +0.000 C 
ENDROOT
BRANCH   1  13
ATOM     13  C   UNL     1       0.828  12.527  21.027  0.00  0.00    +0.000 C 
BRANCH  13  18
ATOM     14  C   UNL     1      -1.666  13.934  23.616  0.00  0.00    +0.000 A 
ATOM     15  C   UNL     1      -1.211  15.277  23.607  0.00  0.00    +0.000 A 
ATOM     16  C   UNL     1      -0.186  15.728  22.778  0.00  0.00    +0.000 A 
ATOM     17  C   UNL     1       0.444  14.828  21.943  0.00  0.00    +0.000 A 
ATOM     18  C   UNL     1       0.046  13.480  21.935  0.00  0.00    +0.000 A 
ATOM     19  C   UNL     1      -1.031  13.011  22.767  0.00  0.00    +0.000 A 
BRANCH  14  21
ATOM     20  C   UNL     1      -3.867  12.968  24.111  0.00  0.00    +0.000 C 
ATOM     21  O   UNL     1      -2.824  13.887  24.336  0.00  0.00    +0.000 OA
ENDBRANCH  14  21
BRANCH  19  22
ATOM     22  O   UNL     1      -1.359  11.739  22.413  0.00  0.00    +0.000 OA
ATOM     23  C   UNL     1      -1.129  10.549  23.124  0.00  0.00    +0.000 C 
ENDBRANCH  19  22
ENDBRANCH  13  18
ENDBRANCH   1  13
BRANCH   9  24
ATOM     24  C   UNL     1       2.832   6.396  20.206  0.00  0.00    +0.000 C 
BRANCH  24  25
ATOM     25  C   UNL     1       2.155   5.130  19.733  0.00  0.00    +0.000 A 
ATOM     26  C   UNL     1       1.507   4.299  20.675  0.00  0.00    +0.000 A 
ATOM     27  C   UNL     1       0.823   3.152  20.259  0.00  0.00    +0.000 A 
ATOM     28  C   UNL     1       0.787   2.807  18.904  0.00  0.00    +0.000 A 
ATOM     29  C   UNL     1       1.414   3.624  17.975  0.00  0.00    +0.000 A 
ATOM     30  C   UNL     1       2.084   4.778  18.385  0.00  0.00    +0.000 A 
ENDBRANCH  24  25
ENDBRANCH   9  24
TORSDOF 6
ENDMDL
MODEL 4
REMARK VINA RESULT:      -7.1      4.221      9.582
REMARK  Name = 
REMARK  8 active torsions:
REMARK  status: ('A' for Active; 'I' for Inactive)
REMARK    1  A    between atoms: C_1  and  O_2
REMARK    2  A    between atoms: O_2  and  C_3
REMARK    3  A    between atoms: C_7  and  C_8
REMARK    4  A    between atoms: C_8  and  N_9
REMARK    5  A    between atoms: C_17  and  C_19
REMARK    6  A    between atoms: C_19  and  C_20
REMARK    7  A    between atoms: C_28  and  O_29
REMARK    8  A    between atoms: O_29  and  C_30
REMARK                            x       y       z     vdW  Elec       q    Type
REMARK                         _______ _______ _______ _____ _____    ______ ____
ROOT
ATOM      1  N   UNL     1       0.461  13.016  19.768  0.00  0.00    +0.000 NA
ATOM      2  C   UNL     1      -0.853  13.349  19.208  0.00  0.00    +0.000 C 
ATOM      3  C   UNL     1      -1.749  12.146  18.923  0.00  0.00    +0.000 C 
ATOM      4  C   UNL     1      -1.045  10.994  18.199  0.00  0.00    +0.000 C 
ATOM      5  C   UNL     1       0.383  10.660  18.693  0.00  0.00    +0.000 C 
ATOM      6  C   UNL     1       1.053   9.767  17.605  0.00  0.00    +0.000 C 
ATOM      7  C   UNL     1       1.869   8.706  18.324  0.00  0.00    +0.000 C 
ATOM      8  N   UNL     1       1.273   8.604  19.631  0.00  0.00    +0.000 N 
ATOM      9  C   UNL     1       1.635   7.732  20.640  0.00  0.00    +0.000 C 
ATOM     10  O   UNL     1       1.159   7.845  21.778  0.00  0.00    +0.000 OA
ATOM     11  C   UNL     1       0.441   9.754  19.942  0.00  0.00    +0.000 C 
ATOM     12  C   UNL     1       1.139  11.998  18.930  0.00  0.00    +0.000 C 
ENDROOT
BRANCH   1  13
ATOM     13  C   UNL     1       0.399  12.662  21.201  0.00  0.00    +0.000 C 
BRANCH  13  18
ATOM     14  C   UNL     1      -1.335  14.641  24.026  0.00  0.00    +0.000 A 
ATOM     15  C   UNL     1      -0.587  15.840  23.903  0.00  0.00    +0.000 A 
ATOM     16  C   UNL     1       0.394  16.030  22.932  0.00  0.00    +0.000 A 
ATOM     17  C   UNL     1       0.682  14.999  22.062  0.00  0.00    +0.000 A 
ATOM     18  C   UNL     1      -0.014  13.781  22.160  0.00  0.00    +0.000 A 
ATOM     19  C   UNL     1      -1.048  13.586  23.142  0.00  0.00    +0.000 A 
BRANCH  14  21
ATOM     20  C   UNL     1      -3.571  15.512  24.538  0.00  0.00    +0.000 C 
ATOM     21  O   UNL     1      -2.365  14.874  24.889  0.00  0.00    +0.000 OA
ENDBRANCH  14  21
BRANCH  19  22
ATOM     22  O   UNL     1      -1.705  12.422  22.886  0.00  0.00    +0.000 OA
ATOM     23  C   UNL     1      -2.945  11.993  23.388  0.00  0.00    +0.000 C 
ENDBRANCH  19  22
ENDBRANCH  13  18
ENDBRANCH   1  13
BRANCH   9  24
ATOM     24  C   UNL     1       2.629   6.615  20.336  0.00  0.00    +0.000 C 
BRANCH  24  25
ATOM     25  C   UNL     1       2.012   5.330  19.834  0.00  0.00    +0.000 A 
ATOM     26  C   UNL     1       2.111   5.005  18.461  0.00  0.00    +0.000 A 
ATOM     27  C   UNL     1       1.600   3.796  17.978  0.00  0.00    +0.000 A 
ATOM     28  C   UNL     1       0.971   2.901  18.848  0.00  0.00    +0.000 A 
ATOM     29  C   UNL     1       0.879   3.211  20.197  0.00  0.00    +0.000 A 
ATOM     30  C   UNL     1       1.402   4.410  20.685  0.00  0.00    +0.000 A 
ENDBRANCH  24  25
ENDBRANCH   9  24
TORSDOF 6
ENDMDL
MODEL 5
REMARK VINA RESULT:      -7.0      1.700      2.850
REMARK  Name = 
REMARK  8 active torsions:
REMARK  status: ('A' for Active; 'I' for Inactive)
REMARK    1  A    between atoms: C_1  and  O_2
REMARK    2  A    between atoms: O_2  and  C_3
REMARK    3  A    between atoms: C_7  and  C_8
REMARK    4  A    between atoms: C_8  and  N_9
REMARK    5  A    between atoms: C_17  and  C_19
REMARK    6  A    between atoms: C_19  and  C_20
REMARK    7  A    between atoms: C_28  and  O_29
REMARK    8  A    between atoms: O_29  and  C_30
REMARK                            x       y       z     vdW  Elec       q    Type
REMARK                         _______ _______ _______ _____ _____    ______ ____
ROOT
ATOM      1  N   UNL     1       4.439   4.462  17.906  0.00  0.00    +0.000 NA
ATOM      2  C   UNL     1       3.736   3.225  17.552  0.00  0.00    +0.000 C 
ATOM      3  C   UNL     1       2.213   3.339  17.538  0.00  0.00    +0.000 C 
ATOM      4  C   UNL     1       1.624   4.054  18.756  0.00  0.00    +0.000 C 
ATOM      5  C   UNL     1       2.383   5.318  19.229  0.00  0.00    +0.000 C 
ATOM      6  C   UNL     1       1.880   5.651  20.666  0.00  0.00    +0.000 C 
ATOM      7  C   UNL     1       1.768   7.162  20.772  0.00  0.00    +0.000 C 
ATOM      8  N   UNL     1       1.628   7.619  19.413  0.00  0.00    +0.000 N 
ATOM      9  C   UNL     1       1.442   8.922  18.993  0.00  0.00    +0.000 C 
ATOM     10  O   UNL     1       1.497   9.215  17.790  0.00  0.00    +0.000 OA
ATOM     11  C   UNL     1       2.039   6.607  18.454  0.00  0.00    +0.000 C 
ATOM     12  C   UNL     1       3.908   5.016  19.174  0.00  0.00    +0.000 C 
ENDROOT
BRANCH   1  13
ATOM     13  C   UNL     1       4.475   5.439  16.798  0.00  0.00    +0.000 C 
BRANCH  13  18
ATOM     14  C   UNL     1       7.431   5.242  14.324  0.00  0.00    +0.000 A 
ATOM     15  C   UNL     1       6.891   4.255  13.461  0.00  0.00    +0.000 A 
ATOM     16  C   UNL     1       5.621   3.707  13.631  0.00  0.00    +0.000 A 
ATOM     17  C   UNL     1       4.854   4.117  14.702  0.00  0.00    +0.000 A 
ATOM     18  C   UNL     1       5.356   5.076  15.600  0.00  0.00    +0.000 A 
ATOM     19  C   UNL     1       6.656   5.666  15.417  0.00  0.00    +0.000 A 
BRANCH  14  21
ATOM     20  C   UNL     1       8.676   6.070  12.377  0.00  0.00    +0.000 C 
ATOM     21  O   UNL     1       8.561   5.736  13.741  0.00  0.00    +0.000 OA
ENDBRANCH  14  21
BRANCH  19  22
ATOM     22  O   UNL     1       6.808   6.707  16.280  0.00  0.00    +0.000 OA
ATOM     23  C   UNL     1       7.569   6.757  17.459  0.00  0.00    +0.000 C 
ENDBRANCH  19  22
ENDBRANCH  13  18
ENDBRANCH   1  13
BRANCH   9  24
ATOM     24  C   UNL     1       1.159  10.004  20.029  0.00  0.00    +0.000 C 
BRANCH  24  25
ATOM     25  C   UNL     1       0.703  11.329  19.462  0.00  0.00    +0.000 A 
ATOM     26  C   UNL     1      -0.673  11.539  19.216  0.00  0.00    +0.000 A 
ATOM     27  C   UNL     1      -1.131  12.775  18.745  0.00  0.00    +0.000 A 
ATOM     28  C   UNL     1      -0.226  13.812  18.500  0.00  0.00    +0.000 A 
ATOM     29  C   UNL     1       1.124  13.614  18.747  0.00  0.00    +0.000 A 
ATOM     30  C   UNL     1       1.582  12.387  19.232  0.00  0.00    +0.000 A 
ENDBRANCH  24  25
ENDBRANCH   9  24
TORSDOF 6
ENDMDL
MODEL 6
REMARK VINA RESULT:      -7.0      3.018      9.140
REMARK  Name = 
REMARK  8 active torsions:
REMARK  status: ('A' for Active; 'I' for Inactive)
REMARK    1  A    between atoms: C_1  and  O_2
REMARK    2  A    between atoms: O_2  and  C_3
REMARK    3  A    between atoms: C_7  and  C_8
REMARK    4  A    between atoms: C_8  and  N_9
REMARK    5  A    between atoms: C_17  and  C_19
REMARK    6  A    between atoms: C_19  and  C_20
REMARK    7  A    between atoms: C_28  and  O_29
REMARK    8  A    between atoms: O_29  and  C_30
REMARK                            x       y       z     vdW  Elec       q    Type
REMARK                         _______ _______ _______ _____ _____    ______ ____
ROOT
ATOM      1  N   UNL     1      -1.347  10.629  20.322  0.00  0.00    +0.000 NA
ATOM      2  C   UNL     1      -0.985  11.629  21.331  0.00  0.00    +0.000 C 
ATOM      3  C   UNL     1       0.511  11.737  21.616  0.00  0.00    +0.000 C 
ATOM      4  C   UNL     1       1.214  10.390  21.804  0.00  0.00    +0.000 C 
ATOM      5  C   UNL     1       0.802   9.271  20.818  0.00  0.00    +0.000 C 
ATOM      6  C   UNL     1       1.311   7.921  21.410  0.00  0.00    +0.000 C 
ATOM      7  C   UNL     1       1.819   7.078  20.253  0.00  0.00    +0.000 C 
ATOM      8  N   UNL     1       2.138   8.025  19.216  0.00  0.00    +0.000 N 
ATOM      9  C   UNL     1       2.685   7.746  17.979  0.00  0.00    +0.000 C 
ATOM     10  O   UNL     1       2.766   8.623  17.107  0.00  0.00    +0.000 OA
ATOM     11  C   UNL     1       1.514   9.318  19.450  0.00  0.00    +0.000 C 
ATOM     12  C   UNL     1      -0.744   9.317  20.652  0.00  0.00    +0.000 C 
ENDROOT
BRANCH   1  13
ATOM     13  C   UNL     1      -1.069  11.082  18.942  0.00  0.00    +0.000 C 
BRANCH  13  18
ATOM     14  C   UNL     1      -4.393  11.418  17.009  0.00  0.00    +0.000 A 
ATOM     15  C   UNL     1      -4.092  10.515  15.958  0.00  0.00    +0.000 A 
ATOM     16  C   UNL     1      -2.902   9.793  15.890  0.00  0.00    +0.000 A 
ATOM     17  C   UNL     1      -1.951   9.979  16.872  0.00  0.00    +0.000 A 
ATOM     18  C   UNL     1      -2.192  10.883  17.922  0.00  0.00    +0.000 A 
ATOM     19  C   UNL     1      -3.429  11.612  18.014  0.00  0.00    +0.000 A 
BRANCH  14  21
ATOM     20  C   UNL     1      -6.205  13.072  16.962  0.00  0.00    +0.000 C 
ATOM     21  O   UNL     1      -5.711  11.754  16.911  0.00  0.00    +0.000 OA
ENDBRANCH  14  21
BRANCH  19  22
ATOM     22  O   UNL     1      -3.500  12.239  19.220  0.00  0.00    +0.000 OA
ATOM     23  C   UNL     1      -4.594  12.321  20.097  0.00  0.00    +0.000 C 
ENDBRANCH  19  22
ENDBRANCH  13  18
ENDBRANCH   1  13
BRANCH   9  24
ATOM     24  C   UNL     1       3.201   6.340  17.695  0.00  0.00    +0.000 C 
BRANCH  24  25
ATOM     25  C   UNL     1       4.684   6.145  17.920  0.00  0.00    +0.000 A 
ATOM     26  C   UNL     1       5.603   6.733  17.021  0.00  0.00    +0.000 A 
ATOM     27  C   UNL     1       6.980   6.617  17.235  0.00  0.00    +0.000 A 
ATOM     28  C   UNL     1       7.463   5.904  18.337  0.00  0.00    +0.000 A 
ATOM     29  C   UNL     1       6.565   5.331  19.226  0.00  0.00    +0.000 A 
ATOM     30  C   UNL     1       5.190   5.459  19.023  0.00  0.00    +0.000 A 
ENDBRANCH  24  25
ENDBRANCH   9  24
TORSDOF 6
ENDMDL
MODEL 7
REMARK VINA RESULT:      -7.0      1.818      2.863
REMARK  Name = 
REMARK  8 active torsions:
REMARK  status: ('A' for Active; 'I' for Inactive)
REMARK    1  A    between atoms: C_1  and  O_2
REMARK    2  A    between atoms: O_2  and  C_3
REMARK    3  A    between atoms: C_7  and  C_8
REMARK    4  A    between atoms: C_8  and  N_9
REMARK    5  A    between atoms: C_17  and  C_19
REMARK    6  A    between atoms: C_19  and  C_20
REMARK    7  A    between atoms: C_28  and  O_29
REMARK    8  A    between atoms: O_29  and  C_30
REMARK                            x       y       z     vdW  Elec       q    Type
REMARK                         _______ _______ _______ _____ _____    ______ ____
ROOT
ATOM      1  N   UNL     1       4.406   4.963  18.563  0.00  0.00    +0.000 NA
ATOM      2  C   UNL     1       3.738   3.694  18.258  0.00  0.00    +0.000 C 
ATOM      3  C   UNL     1       2.223   3.794  18.097  0.00  0.00    +0.000 C 
ATOM      4  C   UNL     1       1.526   4.609  19.189  0.00  0.00    +0.000 C 
ATOM      5  C   UNL     1       2.239   5.916  19.613  0.00  0.00    +0.000 C 
ATOM      6  C   UNL     1       1.608   6.372  20.964  0.00  0.00    +0.000 C 
ATOM      7  C   UNL     1       1.487   7.886  20.924  0.00  0.00    +0.000 C 
ATOM      8  N   UNL     1       1.470   8.219  19.523  0.00  0.00    +0.000 N 
ATOM      9  C   UNL     1       1.323   9.477  18.973  0.00  0.00    +0.000 C 
ATOM     10  O   UNL     1       1.486   9.663  17.759  0.00  0.00    +0.000 OA
ATOM     11  C   UNL     1       1.966   7.129  18.699  0.00  0.00    +0.000 C 
ATOM     12  C   UNL     1       3.763   5.623  19.723  0.00  0.00    +0.000 C 
ENDROOT
BRANCH   1  13
ATOM     13  C   UNL     1       4.542   5.838  17.379  0.00  0.00    +0.000 C 
BRANCH  13  18
ATOM     14  C   UNL     1       7.287   5.224  14.736  0.00  0.00    +0.000 A 
ATOM     15  C   UNL     1       6.712   4.078  14.129  0.00  0.00    +0.000 A 
ATOM     16  C   UNL     1       5.481   3.550  14.512  0.00  0.00    +0.000 A 
ATOM     17  C   UNL     1       4.792   4.144  15.549  0.00  0.00    +0.000 A 
ATOM     18  C   UNL     1       5.332   5.267  16.199  0.00  0.00    +0.000 A 
ATOM     19  C   UNL     1       6.591   5.836  15.793  0.00  0.00    +0.000 A 
BRANCH  14  21
ATOM     20  C   UNL     1       8.308   5.769  12.572  0.00  0.00    +0.000 C 
ATOM     21  O   UNL     1       8.346   5.618  13.972  0.00  0.00    +0.000 OA
ENDBRANCH  14  21
BRANCH  19  22
ATOM     22  O   UNL     1       6.777   7.027  16.424  0.00  0.00    +0.000 OA
ATOM     23  C   UNL     1       7.646   7.323  17.487  0.00  0.00    +0.000 C 
ENDBRANCH  19  22
ENDBRANCH  13  18
ENDBRANCH   1  13
BRANCH   9  24
ATOM     24  C   UNL     1       0.947  10.645  19.879  0.00  0.00    +0.000 C 
BRANCH  24  25
ATOM     25  C   UNL     1      -0.478  11.129  19.741  0.00  0.00    +0.000 A 
ATOM     26  C   UNL     1      -0.999  12.028  20.700  0.00  0.00    +0.000 A 
ATOM     27  C   UNL     1      -2.295  12.537  20.566  0.00  0.00    +0.000 A 
ATOM     28  C   UNL     1      -3.095  12.149  19.488  0.00  0.00    +0.000 A 
ATOM     29  C   UNL     1      -2.586  11.273  18.540  0.00  0.00    +0.000 A 
ATOM     30  C   UNL     1      -1.287  10.775  18.662  0.00  0.00    +0.000 A 
ENDBRANCH  24  25
ENDBRANCH   9  24
TORSDOF 6
ENDMDL
MODEL 8
REMARK VINA RESULT:      -7.0      2.053      2.702
REMARK  Name = 
REMARK  8 active torsions:
REMARK  status: ('A' for Active; 'I' for Inactive)
REMARK    1  A    between atoms: C_1  and  O_2
REMARK    2  A    between atoms: O_2  and  C_3
REMARK    3  A    between atoms: C_7  and  C_8
REMARK    4  A    between atoms: C_8  and  N_9
REMARK    5  A    between atoms: C_17  and  C_19
REMARK    6  A    between atoms: C_19  and  C_20
REMARK    7  A    between atoms: C_28  and  O_29
REMARK    8  A    between atoms: O_29  and  C_30
REMARK                            x       y       z     vdW  Elec       q    Type
REMARK                         _______ _______ _______ _____ _____    ______ ____
ROOT
ATOM      1  N   UNL     1       3.730   2.822  18.051  0.00  0.00    +0.000 NA
ATOM      2  C   UNL     1       2.788   1.743  17.736  0.00  0.00    +0.000 C 
ATOM      3  C   UNL     1       1.337   2.032  18.113  0.00  0.00    +0.000 C 
ATOM      4  C   UNL     1       1.156   2.616  19.517  0.00  0.00    +0.000 C 
ATOM      5  C   UNL     1       2.182   3.697  19.934  0.00  0.00    +0.000 C 
ATOM      6  C   UNL     1       2.076   3.864  21.481  0.00  0.00    +0.000 C 
ATOM      7  C   UNL     1       2.217   5.344  21.792  0.00  0.00    +0.000 C 
ATOM      8  N   UNL     1       1.839   6.015  20.575  0.00  0.00    +0.000 N 
ATOM      9  C   UNL     1       1.756   7.379  20.373  0.00  0.00    +0.000 C 
ATOM     10  O   UNL     1       1.577   7.844  19.238  0.00  0.00    +0.000 OA
ATOM     11  C   UNL     1       1.864   5.121  19.429  0.00  0.00    +0.000 C 
ATOM     12  C   UNL     1       3.591   3.234  19.468  0.00  0.00    +0.000 C 
ENDROOT
BRANCH   1  13
ATOM     13  C   UNL     1       3.655   3.945  17.094  0.00  0.00    +0.000 C 
BRANCH  13  18
ATOM     14  C   UNL     1       6.883   5.969  16.477  0.00  0.00    +0.000 A 
ATOM     15  C   UNL     1       7.430   5.146  15.459  0.00  0.00    +0.000 A 
ATOM     16  C   UNL     1       6.779   4.022  14.956  0.00  0.00    +0.000 A 
ATOM     17  C   UNL     1       5.556   3.665  15.486  0.00  0.00    +0.000 A 
ATOM     18  C   UNL     1       4.984   4.434  16.514  0.00  0.00    +0.000 A 
ATOM     19  C   UNL     1       5.637   5.613  17.021  0.00  0.00    +0.000 A 
BRANCH  14  21
ATOM     20  C   UNL     1       7.845   7.846  17.731  0.00  0.00    +0.000 C 
ATOM     21  O   UNL     1       7.639   7.102  16.553  0.00  0.00    +0.000 OA
ENDBRANCH  14  21
BRANCH  19  22
ATOM     22  O   UNL     1       4.786   6.287  17.841  0.00  0.00    +0.000 OA
ATOM     23  C   UNL     1       4.095   7.484  17.585  0.00  0.00    +0.000 C 
ENDBRANCH  19  22
ENDBRANCH  13  18
ENDBRANCH   1  13
BRANCH   9  24
ATOM     24  C   UNL     1       1.882   8.317  21.569  0.00  0.00    +0.000 C 
BRANCH  24  25
ATOM     25  C   UNL     1       0.775   9.338  21.701  0.00  0.00    +0.000 A 
ATOM     26  C   UNL     1       0.075   9.445  22.925  0.00  0.00    +0.000 A 
ATOM     27  C   UNL     1      -0.915  10.418  23.095  0.00  0.00    +0.000 A 
ATOM     28  C   UNL     1      -1.233  11.287  22.047  0.00  0.00    +0.000 A 
ATOM     29  C   UNL     1      -0.544  11.192  20.847  0.00  0.00    +0.000 A 
ATOM     30  C   UNL     1       0.456  10.231  20.680  0.00  0.00    +0.000 A 
ENDBRANCH  24  25
ENDBRANCH   9  24
TORSDOF 6
ENDMDL
MODEL 9
REMARK VINA RESULT:      -7.0      3.610      9.123
REMARK  Name = 
REMARK  8 active torsions:
REMARK  status: ('A' for Active; 'I' for Inactive)
REMARK    1  A    between atoms: C_1  and  O_2
REMARK    2  A    between atoms: O_2  and  C_3
REMARK    3  A    between atoms: C_7  and  C_8
REMARK    4  A    between atoms: C_8  and  N_9
REMARK    5  A    between atoms: C_17  and  C_19
REMARK    6  A    between atoms: C_19  and  C_20
REMARK    7  A    between atoms: C_28  and  O_29
REMARK    8  A    between atoms: O_29  and  C_30
REMARK                            x       y       z     vdW  Elec       q    Type
REMARK                         _______ _______ _______ _____ _____    ______ ____
ROOT
ATOM      1  N   UNL     1       0.956  12.373  19.594  0.00  0.00    +0.000 NA
ATOM      2  C   UNL     1      -0.353  12.741  19.044  0.00  0.00    +0.000 C 
ATOM      3  C   UNL     1      -1.260  11.558  18.711  0.00  0.00    +0.000 C 
ATOM      4  C   UNL     1      -0.565  10.429  17.946  0.00  0.00    +0.000 C 
ATOM      5  C   UNL     1       0.858  10.062  18.430  0.00  0.00    +0.000 C 
ATOM      6  C   UNL     1       1.522   9.205  17.310  0.00  0.00    +0.000 C 
ATOM      7  C   UNL     1       2.326   8.109  17.989  0.00  0.00    +0.000 C 
ATOM      8  N   UNL     1       1.726   7.962  19.290  0.00  0.00    +0.000 N 
ATOM      9  C   UNL     1       2.076   7.049  20.265  0.00  0.00    +0.000 C 
ATOM     10  O   UNL     1       1.598   7.122  21.406  0.00  0.00    +0.000 OA
ATOM     11  C   UNL     1       0.904   9.108  19.643  0.00  0.00    +0.000 C 
ATOM     12  C   UNL     1       1.626  11.383  18.720  0.00  0.00    +0.000 C 
ENDROOT
BRANCH   1  13
ATOM     13  C   UNL     1       0.887  11.965  21.013  0.00  0.00    +0.000 C 
BRANCH  13  18
ATOM     14  C   UNL     1      -2.202  12.302  23.304  0.00  0.00    +0.000 A 
ATOM     15  C   UNL     1      -2.239  13.718  23.363  0.00  0.00    +0.000 A 
ATOM     16  C   UNL     1      -1.350  14.534  22.667  0.00  0.00    +0.000 A 
ATOM     17  C   UNL     1      -0.363  13.948  21.902  0.00  0.00    +0.000 A 
ATOM     18  C   UNL     1      -0.269  12.546  21.832  0.00  0.00    +0.000 A 
ATOM     19  C   UNL     1      -1.200  11.696  22.527  0.00  0.00    +0.000 A 
BRANCH  14  21
ATOM     20  C   UNL     1      -4.254  12.613  24.614  0.00  0.00    +0.000 C 
ATOM     21  O   UNL     1      -3.342  11.827  23.882  0.00  0.00    +0.000 OA
ENDBRANCH  14  21
BRANCH  19  22
ATOM     22  O   UNL     1      -1.029  10.408  22.122  0.00  0.00    +0.000 OA
ATOM     23  C   UNL     1      -0.493   9.331  22.847  0.00  0.00    +0.000 C 
ENDBRANCH  19  22
ENDBRANCH  13  18
ENDBRANCH   1  13
BRANCH   9  24
ATOM     24  C   UNL     1       3.059   5.935  19.921  0.00  0.00    +0.000 C 
BRANCH  24  25
ATOM     25  C   UNL     1       2.425   4.625  19.511  0.00  0.00    +0.000 A 
ATOM     26  C   UNL     1       3.005   3.873  18.465  0.00  0.00    +0.000 A 
ATOM     27  C   UNL     1       2.474   2.631  18.102  0.00  0.00    +0.000 A 
ATOM     28  C   UNL     1       1.350   2.127  18.764  0.00  0.00    +0.000 A 
ATOM     29  C   UNL     1       0.782   2.858  19.797  0.00  0.00    +0.000 A 
ATOM     30  C   UNL     1       1.320   4.091  20.172  0.00  0.00    +0.000 A 
ENDBRANCH  24  25
ENDBRANCH   9  24
TORSDOF 6
ENDMDL
