MODEL 1
REMARK VINA RESULT:      -7.5      0.000      0.000
REMARK  Name = 
REMARK  7 active torsions:
REMARK  status: ('A' for Active; 'I' for Inactive)
REMARK    1  A    between atoms: C_1  and  C_2
REMARK    2  A    between atoms: C_5  and  N_6
REMARK    3  A    between atoms: N_9  and  C_10
REMARK    4  A    between atoms: C_10  and  C_11
REMARK    5  A    between atoms: C_14  and  C_15
REMARK    6  A    between atoms: C_20  and  C_21
REMARK    7  A    between atoms: C_26  and  C_27
REMARK                            x       y       z     vdW  Elec       q    Type
REMARK                         _______ _______ _______ _____ _____    ______ ____
ROOT
ATOM      1  N   UNL     1       1.969   7.806  19.667  0.00  0.00    +0.000 N 
ATOM      2  C   UNL     1       2.029   8.816  18.601  0.00  0.00    +0.000 C 
ATOM      3  C   UNL     1       0.715   9.636  18.516  0.00  0.00    +0.000 C 
ATOM      4  N   UNL     1       0.224  10.197  19.804  0.00  0.00    +0.000 NA
ATOM      5  C   UNL     1       0.130   9.058  20.756  0.00  0.00    +0.000 C 
ATOM      6  C   UNL     1       1.442   8.269  20.965  0.00  0.00    +0.000 C 
ENDROOT
BRANCH   1  11
ATOM      7  C   UNL     1       2.684   2.188  18.739  0.00  0.00    +0.000 C 
ATOM      8  C   UNL     1       2.533   3.655  19.022  0.00  0.00    +0.000 A 
ATOM      9  C   UNL     1       2.873   4.587  18.036  0.00  0.00    +0.000 A 
ATOM     10  C   UNL     1       2.704   5.960  18.253  0.00  0.00    +0.000 A 
ATOM     11  C   UNL     1       2.193   6.458  19.454  0.00  0.00    +0.000 A 
ATOM     12  C   UNL     1       1.896   5.508  20.448  0.00  0.00    +0.000 A 
ATOM     13  C   UNL     1       2.045   4.122  20.252  0.00  0.00    +0.000 A 
ATOM     14  C   UNL     1       1.662   3.179  21.359  0.00  0.00    +0.000 C 
ENDBRANCH   1  11
BRANCH   4  15
ATOM     15  C   UNL     1       1.136  11.259  20.273  0.00  0.00    +0.000 C 
BRANCH  15  16
ATOM     16  C   UNL     1       0.385  12.426  20.822  0.00  0.00    +0.000 A 
ATOM     17  C   UNL     1       0.076  13.631  20.239  0.00  0.00    +0.000 A 
ATOM     18  O   UNL     1      -0.644  14.365  21.134  0.00  0.00    +0.000 OA
ATOM     19  C   UNL     1      -0.726  13.562  22.244  0.00  0.00    +0.000 A 
ATOM     20  N   UNL     1      -0.110  12.404  22.108  0.00  0.00    +0.000 NA
BRANCH  19  21
ATOM     21  C   UNL     1      -1.457  14.095  23.396  0.00  0.00    +0.000 A 
ATOM     22  C   UNL     1      -0.859  15.080  24.204  0.00  0.00    +0.000 A 
ATOM     23  C   UNL     1      -1.536  15.627  25.296  0.00  0.00    +0.000 A 
ATOM     24  C   UNL     1      -2.822  15.196  25.602  0.00  0.00    +0.000 A 
ATOM     25  C   UNL     1      -3.433  14.221  24.814  0.00  0.00    +0.000 A 
ATOM     26  C   UNL     1      -2.767  13.663  23.709  0.00  0.00    +0.000 A 
ATOM     27  C   UNL     1      -3.479  12.617  22.891  0.00  0.00    +0.000 C 
ENDBRANCH  19  21
ENDBRANCH  15  16
ENDBRANCH   4  15
TORSDOF 4
ENDMDL
MODEL 2
REMARK VINA RESULT:      -7.4      2.322      9.993
REMARK  Name = 
REMARK  7 active torsions:
REMARK  status: ('A' for Active; 'I' for Inactive)
REMARK    1  A    between atoms: C_1  and  C_2
REMARK    2  A    between atoms: C_5  and  N_6
REMARK    3  A    between atoms: N_9  and  C_10
REMARK    4  A    between atoms: C_10  and  C_11
REMARK    5  A    between atoms: C_14  and  C_15
REMARK    6  A    between atoms: C_20  and  C_21
REMARK    7  A    between atoms: C_26  and  C_27
REMARK                            x       y       z     vdW  Elec       q    Type
REMARK                         _______ _______ _______ _____ _____    ______ ____
ROOT
ATOM      1  N   UNL     1      -0.943  11.070  22.193  0.00  0.00    +0.000 N 
ATOM      2  C   UNL     1      -0.351  11.172  20.851  0.00  0.00    +0.000 C 
ATOM      3  C   UNL     1       1.143  10.755  20.852  0.00  0.00    +0.000 C 
ATOM      4  N   UNL     1       1.447   9.455  21.509  0.00  0.00    +0.000 NA
ATOM      5  C   UNL     1       0.869   9.525  22.879  0.00  0.00    +0.000 C 
ATOM      6  C   UNL     1      -0.645   9.830  22.936  0.00  0.00    +0.000 C 
ENDROOT
BRANCH   1  11
ATOM      7  C   UNL     1      -3.509  15.347  25.031  0.00  0.00    +0.000 C 
ATOM      8  C   UNL     1      -2.876  14.230  24.251  0.00  0.00    +0.000 A 
ATOM      9  C   UNL     1      -1.595  14.400  23.717  0.00  0.00    +0.000 A 
ATOM     10  C   UNL     1      -0.960  13.363  23.022  0.00  0.00    +0.000 A 
ATOM     11  C   UNL     1      -1.573  12.122  22.831  0.00  0.00    +0.000 A 
ATOM     12  C   UNL     1      -2.878  11.985  23.339  0.00  0.00    +0.000 A 
ATOM     13  C   UNL     1      -3.534  13.006  24.052  0.00  0.00    +0.000 A 
ATOM     14  C   UNL     1      -4.913  12.753  24.595  0.00  0.00    +0.000 C 
ENDBRANCH   1  11
BRANCH   4  15
ATOM     15  C   UNL     1       0.890   8.343  20.713  0.00  0.00    +0.000 C 
BRANCH  15  16
ATOM     16  C   UNL     1       1.712   8.074  19.496  0.00  0.00    +0.000 A 
ATOM     17  C   UNL     1       1.834   8.797  18.334  0.00  0.00    +0.000 A 
ATOM     18  O   UNL     1       2.722   8.155  17.524  0.00  0.00    +0.000 OA
ATOM     19  C   UNL     1       3.091   7.042  18.239  0.00  0.00    +0.000 A 
ATOM     20  N   UNL     1       2.498   6.945  19.413  0.00  0.00    +0.000 NA
BRANCH  19  21
ATOM     21  C   UNL     1       4.057   6.139  17.609  0.00  0.00    +0.000 A 
ATOM     22  C   UNL     1       5.344   6.610  17.290  0.00  0.00    +0.000 A 
ATOM     23  C   UNL     1       6.297   5.770  16.710  0.00  0.00    +0.000 A 
ATOM     24  C   UNL     1       5.979   4.446  16.434  0.00  0.00    +0.000 A 
ATOM     25  C   UNL     1       4.709   3.959  16.742  0.00  0.00    +0.000 A 
ATOM     26  C   UNL     1       3.740   4.789  17.330  0.00  0.00    +0.000 A 
ATOM     27  C   UNL     1       2.387   4.206  17.645  0.00  0.00    +0.000 C 
ENDBRANCH  19  21
ENDBRANCH  15  16
ENDBRANCH   4  15
TORSDOF 4
ENDMDL
MODEL 3
REMARK VINA RESULT:      -7.3      1.826      2.760
REMARK  Name = 
REMARK  7 active torsions:
REMARK  status: ('A' for Active; 'I' for Inactive)
REMARK    1  A    between atoms: C_1  and  C_2
REMARK    2  A    between atoms: C_5  and  N_6
REMARK    3  A    between atoms: N_9  and  C_10
REMARK    4  A    between atoms: C_10  and  C_11
REMARK    5  A    between atoms: C_14  and  C_15
REMARK    6  A    between atoms: C_20  and  C_21
REMARK    7  A    between atoms: C_26  and  C_27
REMARK                            x       y       z     vdW  Elec       q    Type
REMARK                         _______ _______ _______ _____ _____    ______ ____
ROOT
ATOM      1  N   UNL     1       2.179   8.260  19.009  0.00  0.00    +0.000 N 
ATOM      2  C   UNL     1       1.856   9.451  18.210  0.00  0.00    +0.000 C 
ATOM      3  C   UNL     1       0.385   9.897  18.419  0.00  0.00    +0.000 C 
ATOM      4  N   UNL     1      -0.052  10.026  19.836  0.00  0.00    +0.000 NA
ATOM      5  C   UNL     1       0.255   8.729  20.496  0.00  0.00    +0.000 C 
ATOM      6  C   UNL     1       1.733   8.286  20.415  0.00  0.00    +0.000 C 
ENDROOT
BRANCH   1  11
ATOM      7  C   UNL     1       4.455   3.432  16.901  0.00  0.00    +0.000 C 
ATOM      8  C   UNL     1       3.845   4.710  17.402  0.00  0.00    +0.000 A 
ATOM      9  C   UNL     1       2.770   4.657  18.294  0.00  0.00    +0.000 A 
ATOM     10  C   UNL     1       2.206   5.829  18.814  0.00  0.00    +0.000 A 
ATOM     11  C   UNL     1       2.688   7.094  18.467  0.00  0.00    +0.000 A 
ATOM     12  C   UNL     1       3.743   7.127  17.536  0.00  0.00    +0.000 A 
ATOM     13  C   UNL     1       4.335   5.964  17.009  0.00  0.00    +0.000 A 
ATOM     14  C   UNL     1       5.487   6.098  16.051  0.00  0.00    +0.000 C 
ENDBRANCH   1  11
BRANCH   4  15
ATOM     15  C   UNL     1       0.635  11.167  20.474  0.00  0.00    +0.000 C 
BRANCH  15  16
ATOM     16  C   UNL     1      -0.307  11.990  21.289  0.00  0.00    +0.000 A 
ATOM     17  C   UNL     1      -0.117  13.206  21.899  0.00  0.00    +0.000 A 
ATOM     18  O   UNL     1      -1.282  13.563  22.510  0.00  0.00    +0.000 OA
ATOM     19  C   UNL     1      -2.135  12.519  22.250  0.00  0.00    +0.000 A 
ATOM     20  N   UNL     1      -1.589  11.551  21.540  0.00  0.00    +0.000 NA
BRANCH  19  21
ATOM     21  C   UNL     1      -3.492  12.621  22.792  0.00  0.00    +0.000 A 
ATOM     22  C   UNL     1      -3.713  12.385  24.162  0.00  0.00    +0.000 A 
ATOM     23  C   UNL     1      -4.990  12.496  24.716  0.00  0.00    +0.000 A 
ATOM     24  C   UNL     1      -6.069  12.841  23.911  0.00  0.00    +0.000 A 
ATOM     25  C   UNL     1      -5.872  13.080  22.551  0.00  0.00    +0.000 A 
ATOM     26  C   UNL     1      -4.593  12.976  21.978  0.00  0.00    +0.000 A 
ATOM     27  C   UNL     1      -4.440  13.251  20.504  0.00  0.00    +0.000 C 
ENDBRANCH  19  21
ENDBRANCH  15  16
ENDBRANCH   4  15
TORSDOF 4
ENDMDL
MODEL 4
REMARK VINA RESULT:      -7.3      2.674     10.129
REMARK  Name = 
REMARK  7 active torsions:
REMARK  status: ('A' for Active; 'I' for Inactive)
REMARK    1  A    between atoms: C_1  and  C_2
REMARK    2  A    between atoms: C_5  and  N_6
REMARK    3  A    between atoms: N_9  and  C_10
REMARK    4  A    between atoms: C_10  and  C_11
REMARK    5  A    between atoms: C_14  and  C_15
REMARK    6  A    between atoms: C_20  and  C_21
REMARK    7  A    between atoms: C_26  and  C_27
REMARK                            x       y       z     vdW  Elec       q    Type
REMARK                         _______ _______ _______ _____ _____    ______ ____
ROOT
ATOM      1  N   UNL     1      -0.767  10.519  22.171  0.00  0.00    +0.000 N 
ATOM      2  C   UNL     1      -0.574  10.255  20.737  0.00  0.00    +0.000 C 
ATOM      3  C   UNL     1       0.898   9.886  20.417  0.00  0.00    +0.000 C 
ATOM      4  N   UNL     1       1.496   8.827  21.275  0.00  0.00    +0.000 NA
ATOM      5  C   UNL     1       1.307   9.264  22.685  0.00  0.00    +0.000 C 
ATOM      6  C   UNL     1      -0.158   9.542  23.094  0.00  0.00    +0.000 C 
ENDROOT
BRANCH   1  11
ATOM      7  C   UNL     1      -2.924  15.338  24.419  0.00  0.00    +0.000 C 
ATOM      8  C   UNL     1      -2.402  14.074  23.797  0.00  0.00    +0.000 A 
ATOM      9  C   UNL     1      -1.172  14.090  23.131  0.00  0.00    +0.000 A 
ATOM     10  C   UNL     1      -0.637  12.920  22.578  0.00  0.00    +0.000 A 
ATOM     11  C   UNL     1      -1.302  11.694  22.664  0.00  0.00    +0.000 A 
ATOM     12  C   UNL     1      -2.557  11.708  23.302  0.00  0.00    +0.000 A 
ATOM     13  C   UNL     1      -3.111  12.866  23.877  0.00  0.00    +0.000 A 
ATOM     14  C   UNL     1      -4.440  12.775  24.575  0.00  0.00    +0.000 C 
ENDBRANCH   1  11
BRANCH   4  15
ATOM     15  C   UNL     1       0.857   7.526  20.992  0.00  0.00    +0.000 C 
BRANCH  15  16
ATOM     16  C   UNL     1       1.804   6.582  20.328  0.00  0.00    +0.000 A 
ATOM     17  C   UNL     1       2.250   5.347  20.733  0.00  0.00    +0.000 A 
ATOM     18  O   UNL     1       3.091   4.864  19.775  0.00  0.00    +0.000 OA
ATOM     19  C   UNL     1       3.130   5.854  18.825  0.00  0.00    +0.000 A 
ATOM     20  N   UNL     1       2.391   6.905  19.123  0.00  0.00    +0.000 NA
BRANCH  19  21
ATOM     21  C   UNL     1       3.972   5.613  17.651  0.00  0.00    +0.000 A 
ATOM     22  C   UNL     1       4.680   6.683  17.072  0.00  0.00    +0.000 A 
ATOM     23  C   UNL     1       5.510   6.485  15.966  0.00  0.00    +0.000 A 
ATOM     24  C   UNL     1       5.643   5.215  15.417  0.00  0.00    +0.000 A 
ATOM     25  C   UNL     1       4.950   4.141  15.976  0.00  0.00    +0.000 A 
ATOM     26  C   UNL     1       4.114   4.322  17.091  0.00  0.00    +0.000 A 
ATOM     27  C   UNL     1       3.395   3.124  17.654  0.00  0.00    +0.000 C 
ENDBRANCH  19  21
ENDBRANCH  15  16
ENDBRANCH   4  15
TORSDOF 4
ENDMDL
MODEL 5
REMARK VINA RESULT:      -7.3      1.762      2.335
REMARK  Name = 
REMARK  7 active torsions:
REMARK  status: ('A' for Active; 'I' for Inactive)
REMARK    1  A    between atoms: C_1  and  C_2
REMARK    2  A    between atoms: C_5  and  N_6
REMARK    3  A    between atoms: N_9  and  C_10
REMARK    4  A    between atoms: C_10  and  C_11
REMARK    5  A    between atoms: C_14  and  C_15
REMARK    6  A    between atoms: C_20  and  C_21
REMARK    7  A    between atoms: C_26  and  C_27
REMARK                            x       y       z     vdW  Elec       q    Type
REMARK                         _______ _______ _______ _____ _____    ______ ____
ROOT
ATOM      1  N   UNL     1       2.144   8.363  18.905  0.00  0.00    +0.000 N 
ATOM      2  C   UNL     1       1.761   9.499  18.054  0.00  0.00    +0.000 C 
ATOM      3  C   UNL     1       0.282   9.909  18.281  0.00  0.00    +0.000 C 
ATOM      4  N   UNL     1      -0.120  10.102  19.700  0.00  0.00    +0.000 NA
ATOM      5  C   UNL     1       0.246   8.852  20.420  0.00  0.00    +0.000 C 
ATOM      6  C   UNL     1       1.735   8.451  20.320  0.00  0.00    +0.000 C 
ENDROOT
BRANCH   1  11
ATOM      7  C   UNL     1       4.201   3.483  16.693  0.00  0.00    +0.000 C 
ATOM      8  C   UNL     1       3.671   4.741  17.322  0.00  0.00    +0.000 A 
ATOM      9  C   UNL     1       4.333   5.953  17.105  0.00  0.00    +0.000 A 
ATOM     10  C   UNL     1       3.840   7.149  17.641  0.00  0.00    +0.000 A 
ATOM     11  C   UNL     1       2.675   7.186  18.411  0.00  0.00    +0.000 A 
ATOM     12  C   UNL     1       2.047   5.950  18.652  0.00  0.00    +0.000 A 
ATOM     13  C   UNL     1       2.514   4.736  18.116  0.00  0.00    +0.000 A 
ATOM     14  C   UNL     1       1.752   3.470  18.394  0.00  0.00    +0.000 C 
ENDBRANCH   1  11
BRANCH   4  15
ATOM     15  C   UNL     1       0.546  11.296  20.257  0.00  0.00    +0.000 C 
BRANCH  15  16
ATOM     16  C   UNL     1      -0.363  12.062  21.161  0.00  0.00    +0.000 A 
ATOM     17  C   UNL     1      -0.134  13.212  21.876  0.00  0.00    +0.000 A 
ATOM     18  O   UNL     1      -1.280  13.537  22.538  0.00  0.00    +0.000 OA
ATOM     19  C   UNL     1      -2.162  12.541  22.199  0.00  0.00    +0.000 A 
ATOM     20  N   UNL     1      -1.651  11.630  21.394  0.00  0.00    +0.000 NA
BRANCH  19  21
ATOM     21  C   UNL     1      -3.507  12.623  22.772  0.00  0.00    +0.000 A 
ATOM     22  C   UNL     1      -3.698  12.352  24.141  0.00  0.00    +0.000 A 
ATOM     23  C   UNL     1      -4.963  12.443  24.725  0.00  0.00    +0.000 A 
ATOM     24  C   UNL     1      -6.061  12.803  23.951  0.00  0.00    +0.000 A 
ATOM     25  C   UNL     1      -5.894  13.077  22.595  0.00  0.00    +0.000 A 
ATOM     26  C   UNL     1      -4.627  12.993  21.991  0.00  0.00    +0.000 A 
ATOM     27  C   UNL     1      -4.507  13.305  20.522  0.00  0.00    +0.000 C 
ENDBRANCH  19  21
ENDBRANCH  15  16
ENDBRANCH   4  15
TORSDOF 4
ENDMDL
MODEL 6
REMARK VINA RESULT:      -7.3      3.532      9.899
REMARK  Name = 
REMARK  7 active torsions:
REMARK  status: ('A' for Active; 'I' for Inactive)
REMARK    1  A    between atoms: C_1  and  C_2
REMARK    2  A    between atoms: C_5  and  N_6
REMARK    3  A    between atoms: N_9  and  C_10
REMARK    4  A    between atoms: C_10  and  C_11
REMARK    5  A    between atoms: C_14  and  C_15
REMARK    6  A    between atoms: C_20  and  C_21
REMARK    7  A    between atoms: C_26  and  C_27
REMARK                            x       y       z     vdW  Elec       q    Type
REMARK                         _______ _______ _______ _____ _____    ______ ____
ROOT
ATOM      1  N   UNL     1      -2.244  11.408  18.214  0.00  0.00    +0.000 N 
ATOM      2  C   UNL     1      -1.133  12.370  18.155  0.00  0.00    +0.000 C 
ATOM      3  C   UNL     1      -0.137  12.165  19.326  0.00  0.00    +0.000 C 
ATOM      4  N   UNL     1       0.331  10.768  19.534  0.00  0.00    +0.000 NA
ATOM      5  C   UNL     1      -0.888   9.926  19.664  0.00  0.00    +0.000 C 
ATOM      6  C   UNL     1      -1.869  10.005  18.472  0.00  0.00    +0.000 C 
ENDROOT
BRANCH   1  11
ATOM      7  C   UNL     1      -7.707  13.168  18.266  0.00  0.00    +0.000 C 
ATOM      8  C   UNL     1      -6.289  12.670  18.291  0.00  0.00    +0.000 A 
ATOM      9  C   UNL     1      -5.738  12.099  17.140  0.00  0.00    +0.000 A 
ATOM     10  C   UNL     1      -4.407  11.665  17.117  0.00  0.00    +0.000 A 
ATOM     11  C   UNL     1      -3.575  11.782  18.233  0.00  0.00    +0.000 A 
ATOM     12  C   UNL     1      -4.160  12.322  19.394  0.00  0.00    +0.000 A 
ATOM     13  C   UNL     1      -5.491  12.777  19.440  0.00  0.00    +0.000 A 
ATOM     14  C   UNL     1      -6.016  13.379  20.714  0.00  0.00    +0.000 C 
ENDBRANCH   1  11
BRANCH   4  15
ATOM     15  C   UNL     1       1.195  10.352  18.412  0.00  0.00    +0.000 C 
BRANCH  15  16
ATOM     16  C   UNL     1       1.814   9.016  18.660  0.00  0.00    +0.000 A 
ATOM     17  C   UNL     1       1.839   8.253  19.803  0.00  0.00    +0.000 A 
ATOM     18  O   UNL     1       2.509   7.098  19.529  0.00  0.00    +0.000 OA
ATOM     19  C   UNL     1       2.879   7.225  18.213  0.00  0.00    +0.000 A 
ATOM     20  N   UNL     1       2.501   8.361  17.661  0.00  0.00    +0.000 NA
BRANCH  19  21
ATOM     21  C   UNL     1       3.631   6.113  17.626  0.00  0.00    +0.000 A 
ATOM     22  C   UNL     1       4.936   6.332  17.145  0.00  0.00    +0.000 A 
ATOM     23  C   UNL     1       5.689   5.290  16.601  0.00  0.00    +0.000 A 
ATOM     24  C   UNL     1       5.151   4.011  16.524  0.00  0.00    +0.000 A 
ATOM     25  C   UNL     1       3.861   3.772  16.996  0.00  0.00    +0.000 A 
ATOM     26  C   UNL     1       3.090   4.808  17.550  0.00  0.00    +0.000 A 
ATOM     27  C   UNL     1       1.704   4.488  18.047  0.00  0.00    +0.000 C 
ENDBRANCH  19  21
ENDBRANCH  15  16
ENDBRANCH   4  15
TORSDOF 4
ENDMDL
MODEL 7
REMARK VINA RESULT:      -7.2      2.276      9.929
REMARK  Name = 
REMARK  7 active torsions:
REMARK  status: ('A' for Active; 'I' for Inactive)
REMARK    1  A    between atoms: C_1  and  C_2
REMARK    2  A    between atoms: C_5  and  N_6
REMARK    3  A    between atoms: N_9  and  C_10
REMARK    4  A    between atoms: C_10  and  C_11
REMARK    5  A    between atoms: C_14  and  C_15
REMARK    6  A    between atoms: C_20  and  C_21
REMARK    7  A    between atoms: C_26  and  C_27
REMARK                            x       y       z     vdW  Elec       q    Type
REMARK                         _______ _______ _______ _____ _____    ______ ____
ROOT
ATOM      1  N   UNL     1      -0.978  11.814  21.214  0.00  0.00    +0.000 N 
ATOM      2  C   UNL     1      -1.112  12.094  19.777  0.00  0.00    +0.000 C 
ATOM      3  C   UNL     1       0.269  12.137  19.072  0.00  0.00    +0.000 C 
ATOM      4  N   UNL     1       1.165  10.981  19.344  0.00  0.00    +0.000 NA
ATOM      5  C   UNL     1       1.279  10.869  20.823  0.00  0.00    +0.000 C 
ATOM      6  C   UNL     1      -0.063  10.713  21.574  0.00  0.00    +0.000 C 
ENDROOT
BRANCH   1  11
ATOM      7  C   UNL     1      -3.049  15.067  25.464  0.00  0.00    +0.000 C 
ATOM      8  C   UNL     1      -2.553  14.224  24.324  0.00  0.00    +0.000 A 
ATOM      9  C   UNL     1      -1.403  14.611  23.629  0.00  0.00    +0.000 A 
ATOM     10  C   UNL     1      -0.890  13.826  22.590  0.00  0.00    +0.000 A 
ATOM     11  C   UNL     1      -1.498  12.629  22.202  0.00  0.00    +0.000 A 
ATOM     12  C   UNL     1      -2.677  12.278  22.886  0.00  0.00    +0.000 A 
ATOM     13  C   UNL     1      -3.207  13.043  23.942  0.00  0.00    +0.000 A 
ATOM     14  C   UNL     1      -4.449  12.565  24.641  0.00  0.00    +0.000 C 
ENDBRANCH   1  11
BRANCH   4  15
ATOM     15  C   UNL     1       0.618   9.759  18.721  0.00  0.00    +0.000 C 
BRANCH  15  16
ATOM     16  C   UNL     1       1.550   8.603  18.867  0.00  0.00    +0.000 A 
ATOM     17  C   UNL     1       1.863   7.856  19.977  0.00  0.00    +0.000 A 
ATOM     18  O   UNL     1       2.753   6.892  19.604  0.00  0.00    +0.000 OA
ATOM     19  C   UNL     1       2.953   7.115  18.264  0.00  0.00    +0.000 A 
ATOM     20  N   UNL     1       2.269   8.137  17.788  0.00  0.00    +0.000 NA
BRANCH  19  21
ATOM     21  C   UNL     1       3.881   6.216  17.574  0.00  0.00    +0.000 A 
ATOM     22  C   UNL     1       5.138   6.696  17.162  0.00  0.00    +0.000 A 
ATOM     23  C   UNL     1       6.056   5.861  16.522  0.00  0.00    +0.000 A 
ATOM     24  C   UNL     1       5.732   4.531  16.279  0.00  0.00    +0.000 A 
ATOM     25  C   UNL     1       4.492   4.034  16.681  0.00  0.00    +0.000 A 
ATOM     26  C   UNL     1       3.558   4.861  17.329  0.00  0.00    +0.000 A 
ATOM     27  C   UNL     1       2.237   4.267  17.744  0.00  0.00    +0.000 C 
ENDBRANCH  19  21
ENDBRANCH  15  16
ENDBRANCH   4  15
TORSDOF 4
ENDMDL
MODEL 8
REMARK VINA RESULT:      -7.2      2.167      9.967
REMARK  Name = 
REMARK  7 active torsions:
REMARK  status: ('A' for Active; 'I' for Inactive)
REMARK    1  A    between atoms: C_1  and  C_2
REMARK    2  A    between atoms: C_5  and  N_6
REMARK    3  A    between atoms: N_9  and  C_10
REMARK    4  A    between atoms: C_10  and  C_11
REMARK    5  A    between atoms: C_14  and  C_15
REMARK    6  A    between atoms: C_20  and  C_21
REMARK    7  A    between atoms: C_26  and  C_27
REMARK                            x       y       z     vdW  Elec       q    Type
REMARK                         _______ _______ _______ _____ _____    ______ ____
ROOT
ATOM      1  N   UNL     1      -0.584  12.139  21.304  0.00  0.00    +0.000 N 
ATOM      2  C   UNL     1       0.082  10.879  21.667  0.00  0.00    +0.000 C 
ATOM      3  C   UNL     1      -0.424   9.696  20.802  0.00  0.00    +0.000 C 
ATOM      4  N   UNL     1      -0.433   9.931  19.333  0.00  0.00    +0.000 NA
ATOM      5  C   UNL     1      -1.208  11.181  19.106  0.00  0.00    +0.000 C 
ATOM      6  C   UNL     1      -0.681  12.424  19.859  0.00  0.00    +0.000 C 
ENDROOT
BRANCH   1  11
ATOM      7  C   UNL     1      -3.292  15.327  25.233  0.00  0.00    +0.000 C 
ATOM      8  C   UNL     1      -2.629  14.491  24.175  0.00  0.00    +0.000 A 
ATOM      9  C   UNL     1      -1.537  15.008  23.471  0.00  0.00    +0.000 A 
ATOM     10  C   UNL     1      -0.870  14.240  22.510  0.00  0.00    +0.000 A 
ATOM     11  C   UNL     1      -1.262  12.932  22.211  0.00  0.00    +0.000 A 
ATOM     12  C   UNL     1      -2.387  12.445  22.901  0.00  0.00    +0.000 A 
ATOM     13  C   UNL     1      -3.068  13.192  23.880  0.00  0.00    +0.000 A 
ATOM     14  C   UNL     1      -4.237  12.571  24.594  0.00  0.00    +0.000 C 
ENDBRANCH   1  11
BRANCH   4  15
ATOM     15  C   UNL     1       0.952  10.020  18.827  0.00  0.00    +0.000 C 
BRANCH  15  16
ATOM     16  C   UNL     1       1.675   8.722  18.975  0.00  0.00    +0.000 A 
ATOM     17  C   UNL     1       1.886   7.951  20.092  0.00  0.00    +0.000 A 
ATOM     18  O   UNL     1       2.586   6.842  19.718  0.00  0.00    +0.000 OA
ATOM     19  C   UNL     1       2.784   7.005  18.369  0.00  0.00    +0.000 A 
ATOM     20  N   UNL     1       2.273   8.122  17.888  0.00  0.00    +0.000 NA
BRANCH  19  21
ATOM     21  C   UNL     1       3.524   5.948  17.676  0.00  0.00    +0.000 A 
ATOM     22  C   UNL     1       4.793   6.228  17.134  0.00  0.00    +0.000 A 
ATOM     23  C   UNL     1       5.535   5.238  16.486  0.00  0.00    +0.000 A 
ATOM     24  C   UNL     1       5.021   3.952  16.365  0.00  0.00    +0.000 A 
ATOM     25  C   UNL     1       3.766   3.654  16.896  0.00  0.00    +0.000 A 
ATOM     26  C   UNL     1       3.007   4.637  17.553  0.00  0.00    +0.000 A 
ATOM     27  C   UNL     1       1.661   4.254  18.111  0.00  0.00    +0.000 C 
ENDBRANCH  19  21
ENDBRANCH  15  16
ENDBRANCH   4  15
TORSDOF 4
ENDMDL
MODEL 9
REMARK VINA RESULT:      -7.2      0.386      1.359
REMARK  Name = 
REMARK  7 active torsions:
REMARK  status: ('A' for Active; 'I' for Inactive)
REMARK    1  A    between atoms: C_1  and  C_2
REMARK    2  A    between atoms: C_5  and  N_6
REMARK    3  A    between atoms: N_9  and  C_10
REMARK    4  A    between atoms: C_10  and  C_11
REMARK    5  A    between atoms: C_14  and  C_15
REMARK    6  A    between atoms: C_20  and  C_21
REMARK    7  A    between atoms: C_26  and  C_27
REMARK                            x       y       z     vdW  Elec       q    Type
REMARK                         _______ _______ _______ _____ _____    ______ ____
ROOT
ATOM      1  N   UNL     1       1.999   7.880  19.686  0.00  0.00    +0.000 N 
ATOM      2  C   UNL     1       2.018   8.827  18.561  0.00  0.00    +0.000 C 
ATOM      3  C   UNL     1       0.678   9.599  18.442  0.00  0.00    +0.000 C 
ATOM      4  N   UNL     1       0.181  10.220  19.700  0.00  0.00    +0.000 NA
ATOM      5  C   UNL     1       0.131   9.137  20.719  0.00  0.00    +0.000 C 
ATOM      6  C   UNL     1       1.469   8.403  20.960  0.00  0.00    +0.000 C 
ENDROOT
BRANCH   1  11
ATOM      7  C   UNL     1       3.301   2.313  19.188  0.00  0.00    +0.000 C 
ATOM      8  C   UNL     1       2.929   3.766  19.273  0.00  0.00    +0.000 A 
ATOM      9  C   UNL     1       2.222   4.233  20.385  0.00  0.00    +0.000 A 
ATOM     10  C   UNL     1       1.898   5.589  20.516  0.00  0.00    +0.000 A 
ATOM     11  C   UNL     1       2.263   6.530  19.550  0.00  0.00    +0.000 A 
ATOM     12  C   UNL     1       2.939   6.034  18.419  0.00  0.00    +0.000 A 
ATOM     13  C   UNL     1       3.287   4.678  18.269  0.00  0.00    +0.000 A 
ATOM     14  C   UNL     1       4.046   4.248  17.044  0.00  0.00    +0.000 C 
ENDBRANCH   1  11
BRANCH   4  15
ATOM     15  C   UNL     1       1.063  11.335  20.097  0.00  0.00    +0.000 C 
BRANCH  15  16
ATOM     16  C   UNL     1       0.287  12.473  20.673  0.00  0.00    +0.000 A 
ATOM     17  C   UNL     1      -0.123  13.647  20.091  0.00  0.00    +0.000 A 
ATOM     18  O   UNL     1      -0.824  14.360  21.019  0.00  0.00    +0.000 OA
ATOM     19  C   UNL     1      -0.790  13.577  22.145  0.00  0.00    +0.000 A 
ATOM     20  N   UNL     1      -0.123  12.450  21.989  0.00  0.00    +0.000 NA
BRANCH  19  21
ATOM     21  C   UNL     1      -1.474  14.094  23.333  0.00  0.00    +0.000 A 
ATOM     22  C   UNL     1      -0.861  15.097  24.107  0.00  0.00    +0.000 A 
ATOM     23  C   UNL     1      -1.494  15.629  25.232  0.00  0.00    +0.000 A 
ATOM     24  C   UNL     1      -2.750  15.165  25.606  0.00  0.00    +0.000 A 
ATOM     25  C   UNL     1      -3.375  14.172  24.853  0.00  0.00    +0.000 A 
ATOM     26  C   UNL     1      -2.753  13.628  23.716  0.00  0.00    +0.000 A 
ATOM     27  C   UNL     1      -3.480  12.561  22.938  0.00  0.00    +0.000 C 
ENDBRANCH  19  21
ENDBRANCH  15  16
ENDBRANCH   4  15
TORSDOF 4
ENDMDL
