MODEL 1
REMARK VINA RESULT:      -6.6      0.000      0.000
REMARK  Name = 
REMARK  7 active torsions:
REMARK  status: ('A' for Active; 'I' for Inactive)
REMARK    1  A    between atoms: C_1  and  O_2
REMARK    2  A    between atoms: O_2  and  C_3
REMARK    3  A    between atoms: C_8  and  C_9
REMARK    4  A    between atoms: C_9  and  C_10
REMARK    5  A    between atoms: C_10  and  C_11
REMARK    6  A    between atoms: C_17  and  C_18
REMARK    7  A    between atoms: N_26  and  C_27
REMARK                            x       y       z     vdW  Elec       q    Type
REMARK                         _______ _______ _______ _____ _____    ______ ____
ROOT
ATOM      1  C   UNL     1       0.136  12.068  20.013  0.00  0.00    +0.000 C 
ATOM      2  C   UNL     1       0.769  12.835  21.186  0.00  0.00    +0.000 C 
ATOM      3  C   UNL     1      -0.393  13.316  22.002  0.00  0.00    +0.000 C 
ATOM      4  O   UNL     1      -0.284  14.128  22.909  0.00  0.00    +0.000 OA
ATOM      5  N   UNL     1      -1.525  12.675  21.588  0.00  0.00    +0.000 N 
ATOM      6  C   UNL     1      -1.349  12.111  20.351  0.00  0.00    +0.000 C 
ATOM      7  O   UNL     1      -2.248  11.788  19.580  0.00  0.00    +0.000 OA
ENDROOT
BRANCH   1  13
ATOM      8  C   UNL     1       0.984   9.727  20.943  0.00  0.00    +0.000 A 
ATOM      9  C   UNL     1       1.460   8.435  20.649  0.00  0.00    +0.000 A 
ATOM     10  C   UNL     1       1.841   8.071  19.362  0.00  0.00    +0.000 A 
ATOM     11  C   UNL     1       1.746   9.000  18.343  0.00  0.00    +0.000 A 
ATOM     12  C   UNL     1       1.233  10.270  18.609  0.00  0.00    +0.000 A 
ATOM     13  C   UNL     1       0.790  10.659  19.900  0.00  0.00    +0.000 A 
BRANCH   8  15
ATOM     14  C   UNL     1      -0.404   9.429  22.853  0.00  0.00    +0.000 C 
ATOM     15  O   UNL     1       0.697  10.101  22.232  0.00  0.00    +0.000 OA
ENDBRANCH   8  15
ENDBRANCH   1  13
BRANCH   5  16
ATOM     16  C   UNL     1      -2.840  12.805  22.205  0.00  0.00    +0.000 C 
ATOM     17  C   UNL     1      -2.956  12.153  23.583  0.00  0.00    +0.000 C 
ATOM     18  C   UNL     1      -4.252  12.710  24.149  0.00  0.00    +0.000 C 
ATOM     19  C   UNL     1      -4.429  14.087  23.509  0.00  0.00    +0.000 C 
ATOM     20  C   UNL     1      -3.319  14.231  22.462  0.00  0.00    +0.000 C 
ENDBRANCH   5  16
BRANCH   1  21
ATOM     21  C   UNL     1       0.304  12.796  18.650  0.00  0.00    +0.000 C 
BRANCH  21  22
ATOM     22  C   UNL     1       1.340  13.914  18.604  0.00  0.00    +0.000 C 
ATOM     23  O   UNL     1       2.518  13.636  18.369  0.00  0.00    +0.000 OA
ATOM     24  N   UNL     1       0.921  15.220  18.714  0.00  0.00    +0.000 N 
ATOM     25  C   UNL     1      -0.421  15.695  18.983  0.00  0.00    +0.000 C 
ATOM     26  C   UNL     1      -0.479  17.017  18.244  0.00  0.00    +0.000 C 
ATOM     27  C   UNL     1       0.925  17.583  18.409  0.00  0.00    +0.000 C 
ATOM     28  C   UNL     1       1.843  16.347  18.525  0.00  0.00    +0.000 C 
BRANCH  28  29
ATOM     29  C   UNL     1       2.788  16.488  19.701  0.00  0.00    +0.000 A 
ATOM     30  N   UNL     1       2.415  16.501  20.968  0.00  0.00    +0.000 NA
ATOM     31  C   UNL     1       3.515  16.666  21.782  0.00  0.00    +0.000 A 
ATOM     32  C   UNL     1       4.726  16.761  21.135  0.00  0.00    +0.000 A 
ATOM     33  S   UNL     1       4.480  16.709  19.442  0.00  0.00    +0.000 S 
ENDBRANCH  28  29
ENDBRANCH  21  22
ENDBRANCH   1  21
TORSDOF 6
ENDMDL
MODEL 2
REMARK VINA RESULT:      -6.5      3.477      6.199
REMARK  Name = 
REMARK  7 active torsions:
REMARK  status: ('A' for Active; 'I' for Inactive)
REMARK    1  A    between atoms: C_1  and  O_2
REMARK    2  A    between atoms: O_2  and  C_3
REMARK    3  A    between atoms: C_8  and  C_9
REMARK    4  A    between atoms: C_9  and  C_10
REMARK    5  A    between atoms: C_10  and  C_11
REMARK    6  A    between atoms: C_17  and  C_18
REMARK    7  A    between atoms: N_26  and  C_27
REMARK                            x       y       z     vdW  Elec       q    Type
REMARK                         _______ _______ _______ _____ _____    ______ ____
ROOT
ATOM      1  C   UNL     1       0.055  11.595  19.804  0.00  0.00    +0.000 C 
ATOM      2  C   UNL     1       0.150  12.552  18.604  0.00  0.00    +0.000 C 
ATOM      3  C   UNL     1       0.565  13.867  19.194  0.00  0.00    +0.000 C 
ATOM      4  O   UNL     1       0.553  14.915  18.567  0.00  0.00    +0.000 OA
ATOM      5  N   UNL     1       0.977  13.669  20.481  0.00  0.00    +0.000 N 
ATOM      6  C   UNL     1       0.535  12.463  20.961  0.00  0.00    +0.000 C 
ATOM      7  O   UNL     1       0.435  12.161  22.146  0.00  0.00    +0.000 OA
ENDROOT
BRANCH   1  13
ATOM      8  C   UNL     1       1.098   9.219  20.380  0.00  0.00    +0.000 A 
ATOM      9  C   UNL     1       1.745   8.060  19.908  0.00  0.00    +0.000 A 
ATOM     10  C   UNL     1       2.265   7.986  18.621  0.00  0.00    +0.000 A 
ATOM     11  C   UNL     1       2.140   9.075  17.780  0.00  0.00    +0.000 A 
ATOM     12  C   UNL     1       1.463  10.214  18.216  0.00  0.00    +0.000 A 
ATOM     13  C   UNL     1       0.877  10.306  19.506  0.00  0.00    +0.000 A 
BRANCH   8  15
ATOM     14  C   UNL     1      -0.355   8.394  22.074  0.00  0.00    +0.000 C 
ATOM     15  O   UNL     1       0.670   9.313  21.681  0.00  0.00    +0.000 OA
ENDBRANCH   8  15
ENDBRANCH   1  13
BRANCH   5  16
ATOM     16  C   UNL     1       1.544  14.692  21.350  0.00  0.00    +0.000 C 
ATOM     17  C   UNL     1       2.827  15.330  20.818  0.00  0.00    +0.000 C 
ATOM     18  C   UNL     1       3.018  16.562  21.687  0.00  0.00    +0.000 C 
ATOM     19  C   UNL     1       1.616  16.989  22.120  0.00  0.00    +0.000 C 
ATOM     20  C   UNL     1       0.655  15.901  21.628  0.00  0.00    +0.000 C 
ENDBRANCH   5  16
BRANCH   1  21
ATOM     21  C   UNL     1      -1.405  11.179  20.135  0.00  0.00    +0.000 C 
BRANCH  21  22
ATOM     22  C   UNL     1      -2.494  11.771  19.247  0.00  0.00    +0.000 C 
ATOM     23  O   UNL     1      -2.935  12.894  19.500  0.00  0.00    +0.000 OA
ATOM     24  N   UNL     1      -2.882  11.086  18.118  0.00  0.00    +0.000 N 
ATOM     25  C   UNL     1      -2.450   9.771  17.693  0.00  0.00    +0.000 C 
ATOM     26  C   UNL     1      -2.503   9.857  16.180  0.00  0.00    +0.000 C 
ATOM     27  C   UNL     1      -3.714  10.738  15.912  0.00  0.00    +0.000 C 
ATOM     28  C   UNL     1      -3.811  11.669  17.142  0.00  0.00    +0.000 C 
BRANCH  28  29
ATOM     29  C   UNL     1      -5.227  11.701  17.680  0.00  0.00    +0.000 A 
ATOM     30  N   UNL     1      -5.782  10.739  18.394  0.00  0.00    +0.000 NA
ATOM     31  C   UNL     1      -7.083  11.072  18.706  0.00  0.00    +0.000 A 
ATOM     32  C   UNL     1      -7.510  12.296  18.245  0.00  0.00    +0.000 A 
ATOM     33  S   UNL     1      -6.267  13.034  17.330  0.00  0.00    +0.000 S 
ENDBRANCH  28  29
ENDBRANCH  21  22
ENDBRANCH   1  21
TORSDOF 6
ENDMDL
MODEL 3
REMARK VINA RESULT:      -6.5      1.325      2.360
REMARK  Name = 
REMARK  7 active torsions:
REMARK  status: ('A' for Active; 'I' for Inactive)
REMARK    1  A    between atoms: C_1  and  O_2
REMARK    2  A    between atoms: O_2  and  C_3
REMARK    3  A    between atoms: C_8  and  C_9
REMARK    4  A    between atoms: C_9  and  C_10
REMARK    5  A    between atoms: C_10  and  C_11
REMARK    6  A    between atoms: C_17  and  C_18
REMARK    7  A    between atoms: N_26  and  C_27
REMARK                            x       y       z     vdW  Elec       q    Type
REMARK                         _______ _______ _______ _____ _____    ______ ____
ROOT
ATOM      1  C   UNL     1       0.267  11.897  19.878  0.00  0.00    +0.000 C 
ATOM      2  C   UNL     1       0.891  12.512  21.142  0.00  0.00    +0.000 C 
ATOM      3  C   UNL     1      -0.278  12.873  22.010  0.00  0.00    +0.000 C 
ATOM      4  O   UNL     1      -0.178  13.562  23.014  0.00  0.00    +0.000 OA
ATOM      5  N   UNL     1      -1.403  12.281  21.513  0.00  0.00    +0.000 N 
ATOM      6  C   UNL     1      -1.219  11.883  20.214  0.00  0.00    +0.000 C 
ATOM      7  O   UNL     1      -2.114  11.655  19.405  0.00  0.00    +0.000 OA
ENDROOT
BRANCH   1  13
ATOM      8  C   UNL     1       1.058   9.432  20.477  0.00  0.00    +0.000 A 
ATOM      9  C   UNL     1       1.560   8.200  20.013  0.00  0.00    +0.000 A 
ATOM     10  C   UNL     1       2.031   8.045  18.714  0.00  0.00    +0.000 A 
ATOM     11  C   UNL     1       2.003   9.127  17.853  0.00  0.00    +0.000 A 
ATOM     12  C   UNL     1       1.467  10.340  18.283  0.00  0.00    +0.000 A 
ATOM     13  C   UNL     1       0.933  10.520  19.587  0.00  0.00    +0.000 A 
BRANCH   8  15
ATOM     14  C   UNL     1      -0.461   8.845  22.211  0.00  0.00    +0.000 C 
ATOM     15  O   UNL     1       0.681   9.596  21.787  0.00  0.00    +0.000 OA
ENDBRANCH   8  15
ENDBRANCH   1  13
BRANCH   5  16
ATOM     16  C   UNL     1      -2.720  12.319  22.137  0.00  0.00    +0.000 C 
ATOM     17  C   UNL     1      -2.726  11.944  23.619  0.00  0.00    +0.000 C 
ATOM     18  C   UNL     1      -4.094  12.388  24.109  0.00  0.00    +0.000 C 
ATOM     19  C   UNL     1      -4.496  13.563  23.219  0.00  0.00    +0.000 C 
ATOM     20  C   UNL     1      -3.426  13.672  22.126  0.00  0.00    +0.000 C 
ENDBRANCH   5  16
BRANCH   1  21
ATOM     21  C   UNL     1       0.431  12.796  18.621  0.00  0.00    +0.000 C 
BRANCH  21  22
ATOM     22  C   UNL     1       0.394  14.303  18.859  0.00  0.00    +0.000 C 
ATOM     23  O   UNL     1      -0.682  14.848  19.113  0.00  0.00    +0.000 OA
ATOM     24  N   UNL     1       1.578  15.003  18.895  0.00  0.00    +0.000 N 
ATOM     25  C   UNL     1       2.909  14.499  18.624  0.00  0.00    +0.000 C 
ATOM     26  C   UNL     1       3.792  15.343  19.520  0.00  0.00    +0.000 C 
ATOM     27  C   UNL     1       3.126  16.712  19.497  0.00  0.00    +0.000 C 
ATOM     28  C   UNL     1       1.626  16.422  19.269  0.00  0.00    +0.000 C 
BRANCH  28  29
ATOM     29  C   UNL     1       1.071  17.301  18.167  0.00  0.00    +0.000 A 
ATOM     30  N   UNL     1      -0.130  17.852  18.177  0.00  0.00    +0.000 NA
ATOM     31  C   UNL     1      -0.329  18.570  17.018  0.00  0.00    +0.000 A 
ATOM     32  C   UNL     1       0.726  18.582  16.136  0.00  0.00    +0.000 A 
ATOM     33  S   UNL     1       1.994  17.605  16.741  0.00  0.00    +0.000 S 
ENDBRANCH  28  29
ENDBRANCH  21  22
ENDBRANCH   1  21
TORSDOF 6
ENDMDL
MODEL 4
REMARK VINA RESULT:      -6.3      1.065      1.322
REMARK  Name = 
REMARK  7 active torsions:
REMARK  status: ('A' for Active; 'I' for Inactive)
REMARK    1  A    between atoms: C_1  and  O_2
REMARK    2  A    between atoms: O_2  and  C_3
REMARK    3  A    between atoms: C_8  and  C_9
REMARK    4  A    between atoms: C_9  and  C_10
REMARK    5  A    between atoms: C_10  and  C_11
REMARK    6  A    between atoms: C_17  and  C_18
REMARK    7  A    between atoms: N_26  and  C_27
REMARK                            x       y       z     vdW  Elec       q    Type
REMARK                         _______ _______ _______ _____ _____    ______ ____
ROOT
ATOM      1  C   UNL     1      -0.086  12.747  20.323  0.00  0.00    +0.000 C 
ATOM      2  C   UNL     1       0.794  13.542  21.302  0.00  0.00    +0.000 C 
ATOM      3  C   UNL     1      -0.160  14.083  22.324  0.00  0.00    +0.000 C 
ATOM      4  O   UNL     1       0.153  14.926  23.152  0.00  0.00    +0.000 OA
ATOM      5  N   UNL     1      -1.365  13.456  22.186  0.00  0.00    +0.000 N 
ATOM      6  C   UNL     1      -1.465  12.841  20.964  0.00  0.00    +0.000 C 
ATOM      7  O   UNL     1      -2.512  12.513  20.415  0.00  0.00    +0.000 OA
ENDROOT
BRANCH   1  13
ATOM      8  C   UNL     1       0.661  10.327  21.128  0.00  0.00    +0.000 A 
ATOM      9  C   UNL     1       1.079   9.032  20.765  0.00  0.00    +0.000 A 
ATOM     10  C   UNL     1       1.439   8.718  19.459  0.00  0.00    +0.000 A 
ATOM     11  C   UNL     1       1.382   9.702  18.489  0.00  0.00    +0.000 A 
ATOM     12  C   UNL     1       0.927  10.977  18.823  0.00  0.00    +0.000 A 
ATOM     13  C   UNL     1       0.505  11.319  20.135  0.00  0.00    +0.000 A 
BRANCH   8  15
ATOM     14  C   UNL     1      -0.501   9.770  23.128  0.00  0.00    +0.000 C 
ATOM     15  O   UNL     1       0.395  10.646  22.436  0.00  0.00    +0.000 OA
ENDBRANCH   8  15
ENDBRANCH   1  13
BRANCH   5  16
ATOM     16  C   UNL     1      -2.516  13.643  23.060  0.00  0.00    +0.000 C 
ATOM     17  C   UNL     1      -3.651  14.460  22.441  0.00  0.00    +0.000 C 
ATOM     18  C   UNL     1      -4.830  14.220  23.369  0.00  0.00    +0.000 C 
ATOM     19  C   UNL     1      -4.609  12.835  23.976  0.00  0.00    +0.000 C 
ATOM     20  C   UNL     1      -3.224  12.369  23.514  0.00  0.00    +0.000 C 
ENDBRANCH   5  16
BRANCH   1  21
ATOM     21  C   UNL     1      -0.199  13.418  18.926  0.00  0.00    +0.000 C 
BRANCH  21  22
ATOM     22  C   UNL     1       0.739  14.592  18.662  0.00  0.00    +0.000 C 
ATOM     23  O   UNL     1       1.853  14.378  18.181  0.00  0.00    +0.000 OA
ATOM     24  N   UNL     1       0.279  15.874  18.861  0.00  0.00    +0.000 N 
ATOM     25  C   UNL     1      -1.000  16.276  19.410  0.00  0.00    +0.000 C 
ATOM     26  C   UNL     1      -1.289  17.584  18.703  0.00  0.00    +0.000 C 
ATOM     27  C   UNL     1       0.083  18.230  18.566  0.00  0.00    +0.000 C 
ATOM     28  C   UNL     1       1.074  17.048  18.482  0.00  0.00    +0.000 C 
BRANCH  28  29
ATOM     29  C   UNL     1       2.237  17.255  19.430  0.00  0.00    +0.000 A 
ATOM     30  N   UNL     1       3.509  17.112  19.104  0.00  0.00    +0.000 NA
ATOM     31  C   UNL     1       4.308  17.351  20.201  0.00  0.00    +0.000 A 
ATOM     32  C   UNL     1       3.646  17.694  21.357  0.00  0.00    +0.000 A 
ATOM     33  S   UNL     1       1.956  17.653  21.086  0.00  0.00    +0.000 S 
ENDBRANCH  28  29
ENDBRANCH  21  22
ENDBRANCH   1  21
TORSDOF 6
ENDMDL
MODEL 5
REMARK VINA RESULT:      -6.1      2.721      6.235
REMARK  Name = 
REMARK  7 active torsions:
REMARK  status: ('A' for Active; 'I' for Inactive)
REMARK    1  A    between atoms: C_1  and  O_2
REMARK    2  A    between atoms: O_2  and  C_3
REMARK    3  A    between atoms: C_8  and  C_9
REMARK    4  A    between atoms: C_9  and  C_10
REMARK    5  A    between atoms: C_10  and  C_11
REMARK    6  A    between atoms: C_17  and  C_18
REMARK    7  A    between atoms: N_26  and  C_27
REMARK                            x       y       z     vdW  Elec       q    Type
REMARK                         _______ _______ _______ _____ _____    ______ ____
ROOT
ATOM      1  C   UNL     1      -0.159  13.094  21.408  0.00  0.00    +0.000 C 
ATOM      2  C   UNL     1      -0.952  13.376  20.121  0.00  0.00    +0.000 C 
ATOM      3  C   UNL     1      -0.074  14.294  19.323  0.00  0.00    +0.000 C 
ATOM      4  O   UNL     1      -0.458  14.887  18.326  0.00  0.00    +0.000 OA
ATOM      5  N   UNL     1       1.175  14.307  19.872  0.00  0.00    +0.000 N 
ATOM      6  C   UNL     1       1.157  13.818  21.154  0.00  0.00    +0.000 C 
ATOM      7  O   UNL     1       2.015  14.023  22.007  0.00  0.00    +0.000 OA
ENDROOT
BRANCH   1  13
ATOM      8  C   UNL     1       0.587  10.608  20.836  0.00  0.00    +0.000 A 
ATOM      9  C   UNL     1       0.687   9.270  21.265  0.00  0.00    +0.000 A 
ATOM     10  C   UNL     1       0.063   8.825  22.425  0.00  0.00    +0.000 A 
ATOM     11  C   UNL     1      -0.673   9.719  23.180  0.00  0.00    +0.000 A 
ATOM     12  C   UNL     1      -0.744  11.057  22.793  0.00  0.00    +0.000 A 
ATOM     13  C   UNL     1      -0.079  11.557  21.642  0.00  0.00    +0.000 A 
BRANCH   8  15
ATOM     14  C   UNL     1       0.811  10.214  18.500  0.00  0.00    +0.000 C 
ATOM     15  O   UNL     1       1.132  11.013  19.643  0.00  0.00    +0.000 OA
ENDBRANCH   8  15
ENDBRANCH   1  13
BRANCH   5  16
ATOM     16  C   UNL     1       2.330  15.005  19.322  0.00  0.00    +0.000 C 
ATOM     17  C   UNL     1       2.947  14.334  18.095  0.00  0.00    +0.000 C 
ATOM     18  C   UNL     1       3.869  15.394  17.515  0.00  0.00    +0.000 C 
ATOM     19  C   UNL     1       3.255  16.738  17.903  0.00  0.00    +0.000 C 
ATOM     20  C   UNL     1       2.080  16.431  18.839  0.00  0.00    +0.000 C 
ENDBRANCH   5  16
BRANCH   1  21
ATOM     21  C   UNL     1      -0.792  13.749  22.667  0.00  0.00    +0.000 C 
BRANCH  21  22
ATOM     22  C   UNL     1      -1.886  14.782  22.414  0.00  0.00    +0.000 C 
ATOM     23  O   UNL     1      -1.569  15.933  22.111  0.00  0.00    +0.000 OA
ATOM     24  N   UNL     1      -3.201  14.378  22.421  0.00  0.00    +0.000 N 
ATOM     25  C   UNL     1      -3.719  13.066  22.751  0.00  0.00    +0.000 C 
ATOM     26  C   UNL     1      -4.956  12.949  21.883  0.00  0.00    +0.000 C 
ATOM     27  C   UNL     1      -5.519  14.364  21.867  0.00  0.00    +0.000 C 
ATOM     28  C   UNL     1      -4.290  15.284  22.035  0.00  0.00    +0.000 C 
BRANCH  28  29
ATOM     29  C   UNL     1      -4.543  16.327  23.105  0.00  0.00    +0.000 A 
ATOM     30  N   UNL     1      -4.688  16.065  24.391  0.00  0.00    +0.000 NA
ATOM     31  C   UNL     1      -4.926  17.231  25.087  0.00  0.00    +0.000 A 
ATOM     32  C   UNL     1      -4.944  18.381  24.332  0.00  0.00    +0.000 A 
ATOM     33  S   UNL     1      -4.721  17.991  22.681  0.00  0.00    +0.000 S 
ENDBRANCH  28  29
ENDBRANCH  21  22
ENDBRANCH   1  21
TORSDOF 6
ENDMDL
MODEL 6
REMARK VINA RESULT:      -6.1      2.687      3.742
REMARK  Name = 
REMARK  7 active torsions:
REMARK  status: ('A' for Active; 'I' for Inactive)
REMARK    1  A    between atoms: C_1  and  O_2
REMARK    2  A    between atoms: O_2  and  C_3
REMARK    3  A    between atoms: C_8  and  C_9
REMARK    4  A    between atoms: C_9  and  C_10
REMARK    5  A    between atoms: C_10  and  C_11
REMARK    6  A    between atoms: C_17  and  C_18
REMARK    7  A    between atoms: N_26  and  C_27
REMARK                            x       y       z     vdW  Elec       q    Type
REMARK                         _______ _______ _______ _____ _____    ______ ____
ROOT
ATOM      1  C   UNL     1      -1.217  11.750  19.591  0.00  0.00    +0.000 C 
ATOM      2  C   UNL     1      -1.819  12.748  20.594  0.00  0.00    +0.000 C 
ATOM      3  C   UNL     1      -3.266  12.850  20.212  0.00  0.00    +0.000 C 
ATOM      4  O   UNL     1      -4.019  13.699  20.666  0.00  0.00    +0.000 OA
ATOM      5  N   UNL     1      -3.570  11.843  19.342  0.00  0.00    +0.000 N 
ATOM      6  C   UNL     1      -2.435  11.306  18.791  0.00  0.00    +0.000 C 
ATOM      7  O   UNL     1      -2.387  10.659  17.749  0.00  0.00    +0.000 OA
ENDROOT
BRANCH   1  13
ATOM      8  C   UNL     1       0.440   9.684  19.814  0.00  0.00    +0.000 A 
ATOM      9  C   UNL     1       1.175   8.838  20.667  0.00  0.00    +0.000 A 
ATOM     10  C   UNL     1       0.989   8.849  22.045  0.00  0.00    +0.000 A 
ATOM     11  C   UNL     1       0.062   9.715  22.593  0.00  0.00    +0.000 A 
ATOM     12  C   UNL     1      -0.642  10.591  21.766  0.00  0.00    +0.000 A 
ATOM     13  C   UNL     1      -0.442  10.641  20.361  0.00  0.00    +0.000 A 
BRANCH   8  15
ATOM     14  C   UNL     1       1.819   9.104  17.964  0.00  0.00    +0.000 C 
ATOM     15  O   UNL     1       0.567   9.599  18.450  0.00  0.00    +0.000 OA
ENDBRANCH   8  15
ENDBRANCH   1  13
BRANCH   5  16
ATOM     16  C   UNL     1      -4.901  11.554  18.821  0.00  0.00    +0.000 C 
ATOM     17  C   UNL     1      -6.021  11.675  19.854  0.00  0.00    +0.000 C 
ATOM     18  C   UNL     1      -7.294  11.679  19.023  0.00  0.00    +0.000 C 
ATOM     19  C   UNL     1      -6.907  12.276  17.670  0.00  0.00    +0.000 C 
ATOM     20  C   UNL     1      -5.385  12.454  17.688  0.00  0.00    +0.000 C 
ENDBRANCH   5  16
BRANCH   1  21
ATOM     21  C   UNL     1      -0.241  12.418  18.582  0.00  0.00    +0.000 C 
BRANCH  21  22
ATOM     22  C   UNL     1       0.084  13.888  18.828  0.00  0.00    +0.000 C 
ATOM     23  O   UNL     1      -0.796  14.735  18.668  0.00  0.00    +0.000 OA
ATOM     24  N   UNL     1       1.320  14.224  19.330  0.00  0.00    +0.000 N 
ATOM     25  C   UNL     1       2.443  13.342  19.573  0.00  0.00    +0.000 C 
ATOM     26  C   UNL     1       3.138  13.977  20.761  0.00  0.00    +0.000 C 
ATOM     27  C   UNL     1       2.965  15.471  20.522  0.00  0.00    +0.000 C 
ATOM     28  C   UNL     1       1.643  15.599  19.733  0.00  0.00    +0.000 C 
BRANCH  28  29
ATOM     29  C   UNL     1       1.823  16.497  18.527  0.00  0.00    +0.000 A 
ATOM     30  N   UNL     1       2.805  16.393  17.650  0.00  0.00    +0.000 NA
ATOM     31  C   UNL     1       2.689  17.375  16.690  0.00  0.00    +0.000 A 
ATOM     32  C   UNL     1       1.608  18.215  16.826  0.00  0.00    +0.000 A 
ATOM     33  S   UNL     1       0.737  17.809  18.243  0.00  0.00    +0.000 S 
ENDBRANCH  28  29
ENDBRANCH  21  22
ENDBRANCH   1  21
TORSDOF 6
ENDMDL
MODEL 7
REMARK VINA RESULT:      -6.0      2.074      3.124
REMARK  Name = 
REMARK  7 active torsions:
REMARK  status: ('A' for Active; 'I' for Inactive)
REMARK    1  A    between atoms: C_1  and  O_2
REMARK    2  A    between atoms: O_2  and  C_3
REMARK    3  A    between atoms: C_8  and  C_9
REMARK    4  A    between atoms: C_9  and  C_10
REMARK    5  A    between atoms: C_10  and  C_11
REMARK    6  A    between atoms: C_17  and  C_18
REMARK    7  A    between atoms: N_26  and  C_27
REMARK                            x       y       z     vdW  Elec       q    Type
REMARK                         _______ _______ _______ _____ _____    ______ ____
ROOT
ATOM      1  C   UNL     1      -1.777  12.863  21.988  0.00  0.00    +0.000 C 
ATOM      2  C   UNL     1      -1.671  13.327  23.450  0.00  0.00    +0.000 C 
ATOM      3  C   UNL     1      -3.066  13.727  23.828  0.00  0.00    +0.000 C 
ATOM      4  O   UNL     1      -3.334  14.330  24.857  0.00  0.00    +0.000 OA
ATOM      5  N   UNL     1      -3.933  13.275  22.876  0.00  0.00    +0.000 N 
ATOM      6  C   UNL     1      -3.273  12.957  21.717  0.00  0.00    +0.000 C 
ATOM      7  O   UNL     1      -3.786  12.868  20.606  0.00  0.00    +0.000 OA
ENDROOT
BRANCH   1  13
ATOM      8  C   UNL     1      -0.799  10.794  20.637  0.00  0.00    +0.000 A 
ATOM      9  C   UNL     1      -0.079   9.584  20.675  0.00  0.00    +0.000 A 
ATOM     10  C   UNL     1       0.246   8.964  21.877  0.00  0.00    +0.000 A 
ATOM     11  C   UNL     1      -0.145   9.551  23.066  0.00  0.00    +0.000 A 
ATOM     12  C   UNL     1      -0.819  10.772  23.046  0.00  0.00    +0.000 A 
ATOM     13  C   UNL     1      -1.124  11.457  21.840  0.00  0.00    +0.000 A 
BRANCH   8  15
ATOM     14  C   UNL     1      -1.341  10.441  18.347  0.00  0.00    +0.000 C 
ATOM     15  O   UNL     1      -1.192  11.348  19.444  0.00  0.00    +0.000 OA
ENDBRANCH   8  15
ENDBRANCH   1  13
BRANCH   5  16
ATOM     16  C   UNL     1      -5.385  13.384  22.940  0.00  0.00    +0.000 C 
ATOM     17  C   UNL     1      -6.018  12.682  24.141  0.00  0.00    +0.000 C 
ATOM     18  C   UNL     1      -7.439  13.220  24.181  0.00  0.00    +0.000 C 
ATOM     19  C   UNL     1      -7.372  14.620  23.572  0.00  0.00    +0.000 C 
ATOM     20  C   UNL     1      -5.945  14.800  23.042  0.00  0.00    +0.000 C 
ENDBRANCH   5  16
BRANCH   1  21
ATOM     21  C   UNL     1      -1.082  13.832  20.992  0.00  0.00    +0.000 C 
BRANCH  21  22
ATOM     22  C   UNL     1       0.409  14.070  21.207  0.00  0.00    +0.000 C 
ATOM     23  O   UNL     1       0.844  14.169  22.356  0.00  0.00    +0.000 OA
ATOM     24  N   UNL     1       1.253  14.056  20.121  0.00  0.00    +0.000 N 
ATOM     25  C   UNL     1       0.888  13.943  18.723  0.00  0.00    +0.000 C 
ATOM     26  C   UNL     1       2.067  13.213  18.112  0.00  0.00    +0.000 C 
ATOM     27  C   UNL     1       3.265  13.756  18.879  0.00  0.00    +0.000 C 
ATOM     28  C   UNL     1       2.711  14.124  20.274  0.00  0.00    +0.000 C 
BRANCH  28  29
ATOM     29  C   UNL     1       3.158  15.515  20.677  0.00  0.00    +0.000 A 
ATOM     30  N   UNL     1       3.786  15.806  21.802  0.00  0.00    +0.000 NA
ATOM     31  C   UNL     1       4.028  17.161  21.871  0.00  0.00    +0.000 A 
ATOM     32  C   UNL     1       3.602  17.897  20.789  0.00  0.00    +0.000 A 
ATOM     33  S   UNL     1       2.808  16.873  19.672  0.00  0.00    +0.000 S 
ENDBRANCH  28  29
ENDBRANCH  21  22
ENDBRANCH   1  21
TORSDOF 6
ENDMDL
MODEL 8
REMARK VINA RESULT:      -6.0      2.832      6.990
REMARK  Name = 
REMARK  7 active torsions:
REMARK  status: ('A' for Active; 'I' for Inactive)
REMARK    1  A    between atoms: C_1  and  O_2
REMARK    2  A    between atoms: O_2  and  C_3
REMARK    3  A    between atoms: C_8  and  C_9
REMARK    4  A    between atoms: C_9  and  C_10
REMARK    5  A    between atoms: C_10  and  C_11
REMARK    6  A    between atoms: C_17  and  C_18
REMARK    7  A    between atoms: N_26  and  C_27
REMARK                            x       y       z     vdW  Elec       q    Type
REMARK                         _______ _______ _______ _____ _____    ______ ____
ROOT
ATOM      1  C   UNL     1      -0.701  13.374  20.127  0.00  0.00    +0.000 C 
ATOM      2  C   UNL     1      -0.052  12.971  21.461  0.00  0.00    +0.000 C 
ATOM      3  C   UNL     1       0.300  11.522  21.295  0.00  0.00    +0.000 C 
ATOM      4  O   UNL     1       0.657  10.810  22.222  0.00  0.00    +0.000 OA
ATOM      5  N   UNL     1       0.191  11.185  19.977  0.00  0.00    +0.000 N 
ATOM      6  C   UNL     1      -0.553  12.109  19.290  0.00  0.00    +0.000 C 
ATOM      7  O   UNL     1      -1.112  11.916  18.214  0.00  0.00    +0.000 OA
ENDROOT
BRANCH   1  13
ATOM      8  C   UNL     1       1.333  14.794  19.171  0.00  0.00    +0.000 A 
ATOM      9  C   UNL     1       1.764  15.989  18.564  0.00  0.00    +0.000 A 
ATOM     10  C   UNL     1       0.925  17.091  18.440  0.00  0.00    +0.000 A 
ATOM     11  C   UNL     1      -0.369  17.011  18.921  0.00  0.00    +0.000 A 
ATOM     12  C   UNL     1      -0.826  15.819  19.483  0.00  0.00    +0.000 A 
ATOM     13  C   UNL     1      -0.012  14.659  19.581  0.00  0.00    +0.000 A 
BRANCH   8  15
ATOM     14  C   UNL     1       2.905  13.288  18.211  0.00  0.00    +0.000 C 
ATOM     15  O   UNL     1       2.197  13.746  19.368  0.00  0.00    +0.000 OA
ENDBRANCH   8  15
ENDBRANCH   1  13
BRANCH   5  16
ATOM     16  C   UNL     1       0.544   9.890  19.407  0.00  0.00    +0.000 C 
ATOM     17  C   UNL     1       1.534   9.962  18.244  0.00  0.00    +0.000 C 
ATOM     18  C   UNL     1       2.002   8.528  18.065  0.00  0.00    +0.000 C 
ATOM     19  C   UNL     1       1.894   7.878  19.444  0.00  0.00    +0.000 C 
ATOM     20  C   UNL     1       1.211   8.901  20.359  0.00  0.00    +0.000 C 
ENDBRANCH   5  16
BRANCH   1  21
ATOM     21  C   UNL     1      -2.225  13.650  20.251  0.00  0.00    +0.000 C 
BRANCH  21  22
ATOM     22  C   UNL     1      -2.876  13.264  21.575  0.00  0.00    +0.000 C 
ATOM     23  O   UNL     1      -3.231  12.098  21.755  0.00  0.00    +0.000 OA
ATOM     24  N   UNL     1      -2.951  14.199  22.581  0.00  0.00    +0.000 N 
ATOM     25  C   UNL     1      -2.570  15.595  22.517  0.00  0.00    +0.000 C 
ATOM     26  C   UNL     1      -2.109  15.898  23.929  0.00  0.00    +0.000 C 
ATOM     27  C   UNL     1      -3.043  15.068  24.798  0.00  0.00    +0.000 C 
ATOM     28  C   UNL     1      -3.424  13.851  23.927  0.00  0.00    +0.000 C 
BRANCH  28  29
ATOM     29  C   UNL     1      -4.922  13.627  23.943  0.00  0.00    +0.000 A 
ATOM     30  N   UNL     1      -5.507  12.455  24.107  0.00  0.00    +0.000 NA
ATOM     31  C   UNL     1      -6.876  12.596  24.048  0.00  0.00    +0.000 A 
ATOM     32  C   UNL     1      -7.334  13.880  23.858  0.00  0.00    +0.000 A 
ATOM     33  S   UNL     1      -6.007  14.945  23.679  0.00  0.00    +0.000 S 
ENDBRANCH  28  29
ENDBRANCH  21  22
ENDBRANCH   1  21
TORSDOF 6
ENDMDL
MODEL 9
REMARK VINA RESULT:      -5.9      2.615      5.385
REMARK  Name = 
REMARK  7 active torsions:
REMARK  status: ('A' for Active; 'I' for Inactive)
REMARK    1  A    between atoms: C_1  and  O_2
REMARK    2  A    between atoms: O_2  and  C_3
REMARK    3  A    between atoms: C_8  and  C_9
REMARK    4  A    between atoms: C_9  and  C_10
REMARK    5  A    between atoms: C_10  and  C_11
REMARK    6  A    between atoms: C_17  and  C_18
REMARK    7  A    between atoms: N_26  and  C_27
REMARK                            x       y       z     vdW  Elec       q    Type
REMARK                         _______ _______ _______ _____ _____    ______ ____
ROOT
ATOM      1  C   UNL     1       0.780  10.196  19.107  0.00  0.00    +0.000 C 
ATOM      2  C   UNL     1       1.658   9.821  17.902  0.00  0.00    +0.000 C 
ATOM      3  C   UNL     1       2.383   8.579  18.327  0.00  0.00    +0.000 C 
ATOM      4  O   UNL     1       3.316   8.101  17.700  0.00  0.00    +0.000 OA
ATOM      5  N   UNL     1       1.804   8.090  19.462  0.00  0.00    +0.000 N 
ATOM      6  C   UNL     1       1.030   9.044  20.072  0.00  0.00    +0.000 C 
ATOM      7  O   UNL     1       0.681   9.033  21.249  0.00  0.00    +0.000 OA
ENDROOT
BRANCH   1  13
ATOM      8  C   UNL     1      -1.687  11.172  19.278  0.00  0.00    +0.000 A 
ATOM      9  C   UNL     1      -2.926  11.382  18.644  0.00  0.00    +0.000 A 
ATOM     10  C   UNL     1      -3.241  10.777  17.432  0.00  0.00    +0.000 A 
ATOM     11  C   UNL     1      -2.311   9.949  16.831  0.00  0.00    +0.000 A 
ATOM     12  C   UNL     1      -1.061   9.767  17.423  0.00  0.00    +0.000 A 
ATOM     13  C   UNL     1      -0.689  10.408  18.634  0.00  0.00    +0.000 A 
BRANCH   8  15
ATOM     14  C   UNL     1      -2.301  12.747  20.952  0.00  0.00    +0.000 C 
ATOM     15  O   UNL     1      -1.424  11.703  20.516  0.00  0.00    +0.000 OA
ENDBRANCH   8  15
ENDBRANCH   1  13
BRANCH   5  16
ATOM     16  C   UNL     1       2.167   6.843  20.124  0.00  0.00    +0.000 C 
ATOM     17  C   UNL     1       0.991   5.902  20.384  0.00  0.00    +0.000 C 
ATOM     18  C   UNL     1       1.646   4.577  20.738  0.00  0.00    +0.000 C 
ATOM     19  C   UNL     1       2.988   4.566  20.006  0.00  0.00    +0.000 C 
ATOM     20  C   UNL     1       3.155   5.953  19.374  0.00  0.00    +0.000 C 
ENDBRANCH   5  16
BRANCH   1  21
ATOM     21  C   UNL     1       1.254  11.490  19.825  0.00  0.00    +0.000 C 
BRANCH  21  22
ATOM     22  C   UNL     1       2.006  12.503  18.967  0.00  0.00    +0.000 C 
ATOM     23  O   UNL     1       2.727  12.101  18.052  0.00  0.00    +0.000 OA
ATOM     24  N   UNL     1       1.775  13.845  19.160  0.00  0.00    +0.000 N 
ATOM     25  C   UNL     1       0.954  14.460  20.184  0.00  0.00    +0.000 C 
ATOM     26  C   UNL     1       0.429  15.710  19.507  0.00  0.00    +0.000 C 
ATOM     27  C   UNL     1       1.591  16.162  18.633  0.00  0.00    +0.000 C 
ATOM     28  C   UNL     1       2.346  14.864  18.270  0.00  0.00    +0.000 C 
BRANCH  28  29
ATOM     29  C   UNL     1       3.834  15.026  18.503  0.00  0.00    +0.000 A 
ATOM     30  N   UNL     1       4.760  14.898  17.570  0.00  0.00    +0.000 NA
ATOM     31  C   UNL     1       6.011  15.085  18.116  0.00  0.00    +0.000 A 
ATOM     32  C   UNL     1       6.036  15.375  19.461  0.00  0.00    +0.000 A 
ATOM     33  S   UNL     1       4.443  15.347  20.086  0.00  0.00    +0.000 S 
ENDBRANCH  28  29
ENDBRANCH  21  22
ENDBRANCH   1  21
TORSDOF 6
ENDMDL
