MODEL 1
REMARK VINA RESULT:      -8.7      0.000      0.000
REMARK  Name = 
REMARK  4 active torsions:
REMARK  status: ('A' for Active; 'I' for Inactive)
REMARK    1  A    between atoms: C_3  and  C_4
REMARK    2  A    between atoms: N_6  and  C_7
REMARK    3  A    between atoms: N_25  and  C_26
REMARK    4  A    between atoms: C_26  and  C_27
REMARK                            x       y       z     vdW  Elec       q    Type
REMARK                         _______ _______ _______ _____ _____    ______ ____
ROOT
ATOM      1  N   UNL     1       4.500   4.722  19.210  0.00  0.00    +0.000 NA
ATOM      2  C   UNL     1       3.692   5.701  18.911  0.00  0.00    +0.000 A 
ATOM      3  C   UNL     1       3.877   6.458  17.599  0.00  0.00    +0.000 A 
ATOM      4  C   UNL     1       3.212   7.627  17.546  0.00  0.00    +0.000 A 
ATOM      5  C   UNL     1       2.352   8.112  18.614  0.00  0.00    +0.000 A 
ATOM      6  C   UNL     1       1.781   9.492  18.506  0.00  0.00    +0.000 A 
ATOM      7  O   UNL     1       2.029  10.178  17.505  0.00  0.00    +0.000 OA
ATOM      8  N   UNL     1       1.004   9.923  19.560  0.00  0.00    +0.000 N 
ATOM      9  C   UNL     1       0.477  11.208  19.539  0.00  0.00    +0.000 A 
ATOM     10  C   UNL     1      -0.282  11.672  20.546  0.00  0.00    +0.000 A 
ATOM     11  C   UNL     1      -0.572  10.823  21.669  0.00  0.00    +0.000 A 
ATOM     12  C   UNL     1      -0.081   9.578  21.725  0.00  0.00    +0.000 A 
ATOM     13  C   UNL     1       0.772   9.061  20.616  0.00  0.00    +0.000 A 
ATOM     14  N   UNL     1       1.252   7.862  20.700  0.00  0.00    +0.000 NA
ATOM     15  C   UNL     1       2.061   7.365  19.700  0.00  0.00    +0.000 A 
ATOM     16  N   UNL     1       2.671   6.083  19.815  0.00  0.00    +0.000 N 
ATOM     17  H   UNL     1       5.218   4.616  18.471  0.00  0.00    +0.000 HD
ENDROOT
BRANCH   3  18
ATOM     18  C   UNL     1       4.790   5.992  16.481  0.00  0.00    +0.000 C 
ATOM     19  O   UNL     1       5.185   6.782  15.631  0.00  0.00    +0.000 OA
ATOM     20  N   UNL     1       5.157   4.663  16.519  0.00  0.00    +0.000 N 
ATOM     21  H   UNL     1       4.907   4.145  17.346  0.00  0.00    +0.000 HD
BRANCH  20  22
ATOM     22  C   UNL     1       6.089   3.932  15.647  0.00  0.00    +0.000 C 
ATOM     23  C   UNL     1       5.495   3.272  14.391  0.00  0.00    +0.000 C 
ATOM     24  C   UNL     1       5.708   4.013  13.071  0.00  0.00    +0.000 C 
ATOM     25  C   UNL     1       7.120   4.565  12.925  0.00  0.00    +0.000 C 
ATOM     26  C   UNL     1       7.468   5.457  14.106  0.00  0.00    +0.000 C 
ATOM     27  C   UNL     1       7.409   4.677  15.412  0.00  0.00    +0.000 C 
ENDBRANCH  20  22
ENDBRANCH   3  18
BRANCH  16  28
ATOM     28  C   UNL     1       2.508   5.317  21.088  0.00  0.00    +0.000 C 
BRANCH  28  29
ATOM     29  C   UNL     1       1.679   4.014  21.002  0.00  0.00    +0.000 C 
ATOM     30  C   UNL     1       2.453   2.706  20.959  0.00  0.00    +0.000 C 
ATOM     31  C   UNL     1       1.686   1.831  19.996  0.00  0.00    +0.000 C 
ATOM     32  C   UNL     1       0.805   2.778  19.217  0.00  0.00    +0.000 C 
ATOM     33  O   UNL     1       0.740   4.018  19.915  0.00  0.00    +0.000 OA
ENDBRANCH  28  29
ENDBRANCH  16  28
TORSDOF 4
ENDMDL
MODEL 2
REMARK VINA RESULT:      -8.5      3.288      7.150
REMARK  Name = 
REMARK  4 active torsions:
REMARK  status: ('A' for Active; 'I' for Inactive)
REMARK    1  A    between atoms: C_3  and  C_4
REMARK    2  A    between atoms: N_6  and  C_7
REMARK    3  A    between atoms: N_25  and  C_26
REMARK    4  A    between atoms: C_26  and  C_27
REMARK                            x       y       z     vdW  Elec       q    Type
REMARK                         _______ _______ _______ _____ _____    ______ ____
ROOT
ATOM      1  N   UNL     1       2.154  10.257  17.370  0.00  0.00    +0.000 NA
ATOM      2  C   UNL     1       1.715  10.346  18.595  0.00  0.00    +0.000 A 
ATOM      3  C   UNL     1       1.626   9.090  19.457  0.00  0.00    +0.000 A 
ATOM      4  C   UNL     1       0.874   9.240  20.562  0.00  0.00    +0.000 A 
ATOM      5  C   UNL     1       0.239  10.493  20.940  0.00  0.00    +0.000 A 
ATOM      6  C   UNL     1      -0.693  10.502  22.110  0.00  0.00    +0.000 A 
ATOM      7  O   UNL     1      -0.884   9.457  22.746  0.00  0.00    +0.000 OA
ATOM      8  N   UNL     1      -1.302  11.704  22.406  0.00  0.00    +0.000 N 
ATOM      9  C   UNL     1      -2.208  11.770  23.457  0.00  0.00    +0.000 A 
ATOM     10  C   UNL     1      -2.828  12.918  23.778  0.00  0.00    +0.000 A 
ATOM     11  C   UNL     1      -2.543  14.113  23.032  0.00  0.00    +0.000 A 
ATOM     12  C   UNL     1      -1.676  14.089  22.012  0.00  0.00    +0.000 A 
ATOM     13  C   UNL     1      -0.994  12.815  21.643  0.00  0.00    +0.000 A 
ATOM     14  N   UNL     1      -0.174  12.809  20.641  0.00  0.00    +0.000 NA
ATOM     15  C   UNL     1       0.455  11.641  20.264  0.00  0.00    +0.000 A 
ATOM     16  N   UNL     1       1.290  11.594  19.112  0.00  0.00    +0.000 N 
ATOM     17  H   UNL     1       2.364   9.270  17.139  0.00  0.00    +0.000 HD
ENDROOT
BRANCH   3  18
ATOM     18  C   UNL     1       2.252   7.762  19.075  0.00  0.00    +0.000 C 
ATOM     19  O   UNL     1       2.888   7.651  18.033  0.00  0.00    +0.000 OA
ATOM     20  N   UNL     1       2.085   6.736  19.982  0.00  0.00    +0.000 N 
ATOM     21  H   UNL     1       1.686   6.978  20.875  0.00  0.00    +0.000 HD
BRANCH  20  22
ATOM     22  C   UNL     1       2.636   5.372  19.952  0.00  0.00    +0.000 C 
ATOM     23  C   UNL     1       2.246   4.439  21.112  0.00  0.00    +0.000 C 
ATOM     24  C   UNL     1       1.155   3.411  20.815  0.00  0.00    +0.000 C 
ATOM     25  C   UNL     1       1.324   2.746  19.457  0.00  0.00    +0.000 C 
ATOM     26  C   UNL     1       1.392   3.791  18.355  0.00  0.00    +0.000 C 
ATOM     27  C   UNL     1       2.577   4.724  18.564  0.00  0.00    +0.000 C 
ENDBRANCH  20  22
ENDBRANCH   3  18
BRANCH  16  28
ATOM     28  C   UNL     1       1.399  12.809  18.247  0.00  0.00    +0.000 C 
BRANCH  28  29
ATOM     29  C   UNL     1       2.333  13.932  18.757  0.00  0.00    +0.000 C 
ATOM     30  C   UNL     1       1.781  15.348  18.741  0.00  0.00    +0.000 C 
ATOM     31  C   UNL     1       2.948  16.216  18.335  0.00  0.00    +0.000 C 
ATOM     32  C   UNL     1       3.953  15.269  17.725  0.00  0.00    +0.000 C 
ATOM     33  O   UNL     1       3.610  13.938  18.101  0.00  0.00    +0.000 OA
ENDBRANCH  28  29
ENDBRANCH  16  28
TORSDOF 4
ENDMDL
MODEL 3
REMARK VINA RESULT:      -8.1      3.091      6.924
REMARK  Name = 
REMARK  4 active torsions:
REMARK  status: ('A' for Active; 'I' for Inactive)
REMARK    1  A    between atoms: C_3  and  C_4
REMARK    2  A    between atoms: N_6  and  C_7
REMARK    3  A    between atoms: N_25  and  C_26
REMARK    4  A    between atoms: C_26  and  C_27
REMARK                            x       y       z     vdW  Elec       q    Type
REMARK                         _______ _______ _______ _____ _____    ______ ____
ROOT
ATOM      1  N   UNL     1       2.137  10.474  17.373  0.00  0.00    +0.000 NA
ATOM      2  C   UNL     1       1.712  10.564  18.602  0.00  0.00    +0.000 A 
ATOM      3  C   UNL     1       1.480   9.294  19.415  0.00  0.00    +0.000 A 
ATOM      4  C   UNL     1       0.750   9.486  20.530  0.00  0.00    +0.000 A 
ATOM      5  C   UNL     1       0.263  10.788  20.958  0.00  0.00    +0.000 A 
ATOM      6  C   UNL     1      -0.662  10.859  22.132  0.00  0.00    +0.000 A 
ATOM      7  O   UNL     1      -0.971   9.819  22.728  0.00  0.00    +0.000 OA
ATOM      8  N   UNL     1      -1.129  12.110  22.476  0.00  0.00    +0.000 N 
ATOM      9  C   UNL     1      -2.021  12.239  23.533  0.00  0.00    +0.000 A 
ATOM     10  C   UNL     1      -2.505  13.437  23.901  0.00  0.00    +0.000 A 
ATOM     11  C   UNL     1      -2.086  14.620  23.200  0.00  0.00    +0.000 A 
ATOM     12  C   UNL     1      -1.228  14.536  22.176  0.00  0.00    +0.000 A 
ATOM     13  C   UNL     1      -0.696  13.208  21.755  0.00  0.00    +0.000 A 
ATOM     14  N   UNL     1       0.117  13.146  20.750  0.00  0.00    +0.000 NA
ATOM     15  C   UNL     1       0.609  11.930  20.325  0.00  0.00    +0.000 A 
ATOM     16  N   UNL     1       1.433  11.832  19.168  0.00  0.00    +0.000 N 
ATOM     17  H   UNL     1       2.232   9.478  17.103  0.00  0.00    +0.000 HD
ENDROOT
BRANCH   3  18
ATOM     18  C   UNL     1       1.949   7.919  18.980  0.00  0.00    +0.000 C 
ATOM     19  O   UNL     1       2.133   7.672  17.794  0.00  0.00    +0.000 OA
ATOM     20  N   UNL     1       2.180   7.014  19.995  0.00  0.00    +0.000 N 
ATOM     21  H   UNL     1       2.153   7.369  20.937  0.00  0.00    +0.000 HD
BRANCH  20  22
ATOM     22  C   UNL     1       2.720   5.648  19.915  0.00  0.00    +0.000 C 
ATOM     23  C   UNL     1       1.795   4.568  19.327  0.00  0.00    +0.000 C 
ATOM     24  C   UNL     1       2.059   4.166  17.877  0.00  0.00    +0.000 C 
ATOM     25  C   UNL     1       3.541   4.008  17.568  0.00  0.00    +0.000 C 
ATOM     26  C   UNL     1       4.298   5.278  17.921  0.00  0.00    +0.000 C 
ATOM     27  C   UNL     1       4.165   5.596  19.404  0.00  0.00    +0.000 C 
ENDBRANCH  20  22
ENDBRANCH   3  18
BRANCH  16  28
ATOM     28  C   UNL     1       1.679  13.059  18.350  0.00  0.00    +0.000 C 
BRANCH  28  29
ATOM     29  C   UNL     1       2.780  14.016  18.865  0.00  0.00    +0.000 C 
ATOM     30  C   UNL     1       2.399  15.478  19.033  0.00  0.00    +0.000 C 
ATOM     31  C   UNL     1       3.620  16.252  18.595  0.00  0.00    +0.000 C 
ATOM     32  C   UNL     1       4.448  15.268  17.804  0.00  0.00    +0.000 C 
ATOM     33  O   UNL     1       3.986  13.951  18.089  0.00  0.00    +0.000 OA
ENDBRANCH  28  29
ENDBRANCH  16  28
TORSDOF 4
ENDMDL
MODEL 4
REMARK VINA RESULT:      -8.0      3.502      6.762
REMARK  Name = 
REMARK  4 active torsions:
REMARK  status: ('A' for Active; 'I' for Inactive)
REMARK    1  A    between atoms: C_3  and  C_4
REMARK    2  A    between atoms: N_6  and  C_7
REMARK    3  A    between atoms: N_25  and  C_26
REMARK    4  A    between atoms: C_26  and  C_27
REMARK                            x       y       z     vdW  Elec       q    Type
REMARK                         _______ _______ _______ _____ _____    ______ ____
ROOT
ATOM      1  N   UNL     1      -0.579   9.181  19.130  0.00  0.00    +0.000 NA
ATOM      2  C   UNL     1       0.087  10.222  18.711  0.00  0.00    +0.000 A 
ATOM      3  C   UNL     1       1.562  10.078  18.351  0.00  0.00    +0.000 A 
ATOM      4  C   UNL     1       2.215  11.250  18.247  0.00  0.00    +0.000 A 
ATOM      5  C   UNL     1       1.573  12.545  18.411  0.00  0.00    +0.000 A 
ATOM      6  C   UNL     1       2.427  13.774  18.420  0.00  0.00    +0.000 A 
ATOM      7  O   UNL     1       3.650  13.668  18.262  0.00  0.00    +0.000 OA
ATOM      8  N   UNL     1       1.778  14.975  18.618  0.00  0.00    +0.000 N 
ATOM      9  C   UNL     1       2.518  16.149  18.675  0.00  0.00    +0.000 A 
ATOM     10  C   UNL     1       1.930  17.342  18.870  0.00  0.00    +0.000 A 
ATOM     11  C   UNL     1       0.502  17.416  19.011  0.00  0.00    +0.000 A 
ATOM     12  C   UNL     1      -0.245  16.306  18.962  0.00  0.00    +0.000 A 
ATOM     13  C   UNL     1       0.403  14.978  18.758  0.00  0.00    +0.000 A 
ATOM     14  N   UNL     1      -0.336  13.915  18.733  0.00  0.00    +0.000 NA
ATOM     15  C   UNL     1       0.238  12.672  18.566  0.00  0.00    +0.000 A 
ATOM     16  N   UNL     1      -0.547  11.486  18.626  0.00  0.00    +0.000 N 
ATOM     17  H   UNL     1       0.048   8.358  19.188  0.00  0.00    +0.000 HD
ENDROOT
BRANCH   3  18
ATOM     18  C   UNL     1       2.265   8.742  18.203  0.00  0.00    +0.000 C 
ATOM     19  O   UNL     1       3.024   8.540  17.262  0.00  0.00    +0.000 OA
ATOM     20  N   UNL     1       2.020   7.820  19.199  0.00  0.00    +0.000 N 
ATOM     21  H   UNL     1       1.510   8.145  20.005  0.00  0.00    +0.000 HD
BRANCH  20  22
ATOM     22  C   UNL     1       2.608   6.486  19.395  0.00  0.00    +0.000 C 
ATOM     23  C   UNL     1       2.098   5.669  20.594  0.00  0.00    +0.000 C 
ATOM     24  C   UNL     1       1.083   4.570  20.283  0.00  0.00    +0.000 C 
ATOM     25  C   UNL     1       1.445   3.767  19.040  0.00  0.00    +0.000 C 
ATOM     26  C   UNL     1       1.625   4.688  17.844  0.00  0.00    +0.000 C 
ATOM     27  C   UNL     1       2.746   5.687  18.093  0.00  0.00    +0.000 C 
ENDBRANCH  20  22
ENDBRANCH   3  18
BRANCH  16  28
ATOM     28  C   UNL     1      -1.996  11.594  18.976  0.00  0.00    +0.000 C 
BRANCH  28  29
ATOM     29  C   UNL     1      -2.998  11.383  17.817  0.00  0.00    +0.000 C 
ATOM     30  C   UNL     1      -3.615  10.000  17.682  0.00  0.00    +0.000 C 
ATOM     31  C   UNL     1      -3.698   9.754  16.195  0.00  0.00    +0.000 C 
ATOM     32  C   UNL     1      -2.758  10.759  15.575  0.00  0.00    +0.000 C 
ATOM     33  O   UNL     1      -2.466  11.766  16.540  0.00  0.00    +0.000 OA
ENDBRANCH  28  29
ENDBRANCH  16  28
TORSDOF 4
ENDMDL
MODEL 5
REMARK VINA RESULT:      -7.9      1.575      2.557
REMARK  Name = 
REMARK  4 active torsions:
REMARK  status: ('A' for Active; 'I' for Inactive)
REMARK    1  A    between atoms: C_3  and  C_4
REMARK    2  A    between atoms: N_6  and  C_7
REMARK    3  A    between atoms: N_25  and  C_26
REMARK    4  A    between atoms: C_26  and  C_27
REMARK                            x       y       z     vdW  Elec       q    Type
REMARK                         _______ _______ _______ _____ _____    ______ ____
ROOT
ATOM      1  N   UNL     1       6.302   3.795  17.660  0.00  0.00    +0.000 NA
ATOM      2  C   UNL     1       5.300   4.626  17.582  0.00  0.00    +0.000 A 
ATOM      3  C   UNL     1       5.154   5.519  16.354  0.00  0.00    +0.000 A 
ATOM      4  C   UNL     1       4.294   6.540  16.522  0.00  0.00    +0.000 A 
ATOM      5  C   UNL     1       3.528   6.756  17.740  0.00  0.00    +0.000 A 
ATOM      6  C   UNL     1       2.715   8.006  17.866  0.00  0.00    +0.000 A 
ATOM      7  O   UNL     1       2.689   8.814  16.928  0.00  0.00    +0.000 OA
ATOM      8  N   UNL     1       2.038   8.185  19.054  0.00  0.00    +0.000 N 
ATOM      9  C   UNL     1       1.297   9.343  19.249  0.00  0.00    +0.000 A 
ATOM     10  C   UNL     1       0.625   9.563  20.391  0.00  0.00    +0.000 A 
ATOM     11  C   UNL     1       0.657   8.577  21.437  0.00  0.00    +0.000 A 
ATOM     12  C   UNL     1       1.361   7.448  21.286  0.00  0.00    +0.000 A 
ATOM     13  C   UNL     1       2.119   7.204  20.025  0.00  0.00    +0.000 A 
ATOM     14  N   UNL     1       2.809   6.115  19.907  0.00  0.00    +0.000 NA
ATOM     15  C   UNL     1       3.536   5.872  18.761  0.00  0.00    +0.000 A 
ATOM     16  N   UNL     1       4.372   4.725  18.648  0.00  0.00    +0.000 N 
ATOM     17  H   UNL     1       6.911   3.894  16.828  0.00  0.00    +0.000 HD
ENDROOT
BRANCH   3  18
ATOM     18  C   UNL     1       5.960   5.337  15.082  0.00  0.00    +0.000 C 
ATOM     19  O   UNL     1       7.152   5.622  15.055  0.00  0.00    +0.000 OA
ATOM     20  N   UNL     1       5.275   4.808  14.007  0.00  0.00    +0.000 N 
ATOM     21  H   UNL     1       4.346   4.462  14.186  0.00  0.00    +0.000 HD
BRANCH  20  22
ATOM     22  C   UNL     1       5.782   4.430  12.679  0.00  0.00    +0.000 C 
ATOM     23  C   UNL     1       6.860   3.333  12.633  0.00  0.00    +0.000 C 
ATOM     24  C   UNL     1       6.385   1.934  12.242  0.00  0.00    +0.000 C 
ATOM     25  C   UNL     1       5.402   1.947  11.080  0.00  0.00    +0.000 C 
ATOM     26  C   UNL     1       4.218   2.848  11.392  0.00  0.00    +0.000 C 
ATOM     27  C   UNL     1       4.675   4.281  11.628  0.00  0.00    +0.000 C 
ENDBRANCH  20  22
ENDBRANCH   3  18
BRANCH  16  28
ATOM     28  C   UNL     1       4.534   3.830  19.834  0.00  0.00    +0.000 C 
BRANCH  28  29
ATOM     29  C   UNL     1       3.425   2.775  20.054  0.00  0.00    +0.000 C 
ATOM     30  C   UNL     1       2.498   2.496  18.883  0.00  0.00    +0.000 C 
ATOM     31  C   UNL     1       1.135   2.295  19.503  0.00  0.00    +0.000 C 
ATOM     32  C   UNL     1       1.242   2.886  20.889  0.00  0.00    +0.000 C 
ATOM     33  O   UNL     1       2.620   3.042  21.213  0.00  0.00    +0.000 OA
ENDBRANCH  28  29
ENDBRANCH  16  28
TORSDOF 4
ENDMDL
MODEL 6
REMARK VINA RESULT:      -7.9      3.481      7.272
REMARK  Name = 
REMARK  4 active torsions:
REMARK  status: ('A' for Active; 'I' for Inactive)
REMARK    1  A    between atoms: C_3  and  C_4
REMARK    2  A    between atoms: N_6  and  C_7
REMARK    3  A    between atoms: N_25  and  C_26
REMARK    4  A    between atoms: C_26  and  C_27
REMARK                            x       y       z     vdW  Elec       q    Type
REMARK                         _______ _______ _______ _____ _____    ______ ____
ROOT
ATOM      1  N   UNL     1      -0.328   9.380  23.121  0.00  0.00    +0.000 NA
ATOM      2  C   UNL     1      -0.048  10.049  22.038  0.00  0.00    +0.000 A 
ATOM      3  C   UNL     1       0.728   9.372  20.913  0.00  0.00    +0.000 A 
ATOM      4  C   UNL     1       1.233  10.230  20.006  0.00  0.00    +0.000 A 
ATOM      5  C   UNL     1       1.022  11.668  20.055  0.00  0.00    +0.000 A 
ATOM      6  C   UNL     1       1.753  12.535  19.079  0.00  0.00    +0.000 A 
ATOM      7  O   UNL     1       2.497  12.013  18.238  0.00  0.00    +0.000 OA
ATOM      8  N   UNL     1       1.553  13.895  19.189  0.00  0.00    +0.000 N 
ATOM      9  C   UNL     1       2.232  14.757  18.338  0.00  0.00    +0.000 A 
ATOM     10  C   UNL     1       2.071  16.089  18.411  0.00  0.00    +0.000 A 
ATOM     11  C   UNL     1       1.168  16.644  19.382  0.00  0.00    +0.000 A 
ATOM     12  C   UNL     1       0.495  15.845  20.220  0.00  0.00    +0.000 A 
ATOM     13  C   UNL     1       0.679  14.367  20.151  0.00  0.00    +0.000 A 
ATOM     14  N   UNL     1       0.034  13.614  20.984  0.00  0.00    +0.000 NA
ATOM     15  C   UNL     1       0.200  12.245  20.957  0.00  0.00    +0.000 A 
ATOM     16  N   UNL     1      -0.430  11.408  21.922  0.00  0.00    +0.000 N 
ATOM     17  H   UNL     1       0.074   8.427  23.064  0.00  0.00    +0.000 HD
ENDROOT
BRANCH   3  18
ATOM     18  C   UNL     1       0.990   7.880  20.851  0.00  0.00    +0.000 C 
ATOM     19  O   UNL     1       0.156   7.085  21.271  0.00  0.00    +0.000 OA
ATOM     20  N   UNL     1       2.182   7.502  20.270  0.00  0.00    +0.000 N 
ATOM     21  H   UNL     1       2.717   8.225  19.815  0.00  0.00    +0.000 HD
BRANCH  20  22
ATOM     22  C   UNL     1       2.686   6.151  19.979  0.00  0.00    +0.000 C 
ATOM     23  C   UNL     1       2.127   5.001  20.834  0.00  0.00    +0.000 C 
ATOM     24  C   UNL     1       1.044   4.139  20.186  0.00  0.00    +0.000 C 
ATOM     25  C   UNL     1       1.353   3.796  18.735  0.00  0.00    +0.000 C 
ATOM     26  C   UNL     1       1.589   5.062  17.926  0.00  0.00    +0.000 C 
ATOM     27  C   UNL     1       2.772   5.846  18.479  0.00  0.00    +0.000 C 
ENDBRANCH  20  22
ENDBRANCH   3  18
BRANCH  16  28
ATOM     28  C   UNL     1      -1.199  12.042  23.037  0.00  0.00    +0.000 C 
BRANCH  28  29
ATOM     29  C   UNL     1      -2.723  12.188  22.821  0.00  0.00    +0.000 C 
ATOM     30  C   UNL     1      -3.231  13.558  22.399  0.00  0.00    +0.000 C 
ATOM     31  C   UNL     1      -4.537  13.733  23.136  0.00  0.00    +0.000 C 
ATOM     32  C   UNL     1      -4.506  12.709  24.244  0.00  0.00    +0.000 C 
ATOM     33  O   UNL     1      -3.493  11.751  23.952  0.00  0.00    +0.000 OA
ENDBRANCH  28  29
ENDBRANCH  16  28
TORSDOF 4
ENDMDL
MODEL 7
REMARK VINA RESULT:      -7.8      3.435      6.683
REMARK  Name = 
REMARK  4 active torsions:
REMARK  status: ('A' for Active; 'I' for Inactive)
REMARK    1  A    between atoms: C_3  and  C_4
REMARK    2  A    between atoms: N_6  and  C_7
REMARK    3  A    between atoms: N_25  and  C_26
REMARK    4  A    between atoms: C_26  and  C_27
REMARK                            x       y       z     vdW  Elec       q    Type
REMARK                         _______ _______ _______ _____ _____    ______ ____
ROOT
ATOM      1  N   UNL     1       0.312   9.686  17.254  0.00  0.00    +0.000 NA
ATOM      2  C   UNL     1       0.214  10.109  18.484  0.00  0.00    +0.000 A 
ATOM      3  C   UNL     1       0.874   9.318  19.609  0.00  0.00    +0.000 A 
ATOM      4  C   UNL     1       0.445   9.658  20.838  0.00  0.00    +0.000 A 
ATOM      5  C   UNL     1      -0.522  10.715  21.089  0.00  0.00    +0.000 A 
ATOM      6  C   UNL     1      -1.035  10.904  22.483  0.00  0.00    +0.000 A 
ATOM      7  O   UNL     1      -0.609  10.181  23.393  0.00  0.00    +0.000 OA
ATOM      8  N   UNL     1      -1.979  11.892  22.665  0.00  0.00    +0.000 N 
ATOM      9  C   UNL     1      -2.523  12.093  23.927  0.00  0.00    +0.000 A 
ATOM     10  C   UNL     1      -3.449  13.040  24.150  0.00  0.00    +0.000 A 
ATOM     11  C   UNL     1      -3.884  13.880  23.068  0.00  0.00    +0.000 A 
ATOM     12  C   UNL     1      -3.383  13.717  21.837  0.00  0.00    +0.000 A 
ATOM     13  C   UNL     1      -2.364  12.658  21.580  0.00  0.00    +0.000 A 
ATOM     14  N   UNL     1      -1.907  12.504  20.379  0.00  0.00    +0.000 NA
ATOM     15  C   UNL     1      -0.979  11.521  20.107  0.00  0.00    +0.000 A 
ATOM     16  N   UNL     1      -0.532  11.277  18.777  0.00  0.00    +0.000 N 
ATOM     17  H   UNL     1       0.837   8.793  17.227  0.00  0.00    +0.000 HD
ENDROOT
BRANCH   3  18
ATOM     18  C   UNL     1       1.863   8.192  19.377  0.00  0.00    +0.000 C 
ATOM     19  O   UNL     1       2.871   8.378  18.704  0.00  0.00    +0.000 OA
ATOM     20  N   UNL     1       1.565   6.994  19.994  0.00  0.00    +0.000 N 
ATOM     21  H   UNL     1       0.801   6.998  20.651  0.00  0.00    +0.000 HD
BRANCH  20  22
ATOM     22  C   UNL     1       2.354   5.754  20.041  0.00  0.00    +0.000 C 
ATOM     23  C   UNL     1       2.006   4.751  21.155  0.00  0.00    +0.000 C 
ATOM     24  C   UNL     1       1.161   3.547  20.742  0.00  0.00    +0.000 C 
ATOM     25  C   UNL     1       1.605   2.939  19.419  0.00  0.00    +0.000 C 
ATOM     26  C   UNL     1       1.611   3.994  18.323  0.00  0.00    +0.000 C 
ATOM     27  C   UNL     1       2.575   5.123  18.662  0.00  0.00    +0.000 C 
ENDBRANCH  20  22
ENDBRANCH   3  18
BRANCH  16  28
ATOM     28  C   UNL     1      -1.160  12.037  17.653  0.00  0.00    +0.000 C 
BRANCH  28  29
ATOM     29  C   UNL     1      -2.517  11.503  17.139  0.00  0.00    +0.000 C 
ATOM     30  C   UNL     1      -3.072  10.262  17.819  0.00  0.00    +0.000 C 
ATOM     31  C   UNL     1      -3.704   9.458  16.708  0.00  0.00    +0.000 C 
ATOM     32  C   UNL     1      -3.121  10.019  15.433  0.00  0.00    +0.000 C 
ATOM     33  O   UNL     1      -2.532  11.284  15.720  0.00  0.00    +0.000 OA
ENDBRANCH  28  29
ENDBRANCH  16  28
TORSDOF 4
ENDMDL
MODEL 8
REMARK VINA RESULT:      -7.8      4.184     11.111
REMARK  Name = 
REMARK  4 active torsions:
REMARK  status: ('A' for Active; 'I' for Inactive)
REMARK    1  A    between atoms: C_3  and  C_4
REMARK    2  A    between atoms: N_6  and  C_7
REMARK    3  A    between atoms: N_25  and  C_26
REMARK    4  A    between atoms: C_26  and  C_27
REMARK                            x       y       z     vdW  Elec       q    Type
REMARK                         _______ _______ _______ _____ _____    ______ ____
ROOT
ATOM      1  N   UNL     1      -0.597  14.554  20.715  0.00  0.00    +0.000 NA
ATOM      2  C   UNL     1      -0.534  13.252  20.752  0.00  0.00    +0.000 A 
ATOM      3  C   UNL     1      -0.898  12.515  22.037  0.00  0.00    +0.000 A 
ATOM      4  C   UNL     1      -0.494  11.232  22.062  0.00  0.00    +0.000 A 
ATOM      5  C   UNL     1       0.185  10.580  20.952  0.00  0.00    +0.000 A 
ATOM      6  C   UNL     1       0.718   9.196  21.149  0.00  0.00    +0.000 A 
ATOM      7  O   UNL     1       0.549   8.626  22.235  0.00  0.00    +0.000 OA
ATOM      8  N   UNL     1       1.387   8.634  20.082  0.00  0.00    +0.000 N 
ATOM      9  C   UNL     1       1.940   7.366  20.213  0.00  0.00    +0.000 A 
ATOM     10  C   UNL     1       2.604   6.781  19.203  0.00  0.00    +0.000 A 
ATOM     11  C   UNL     1       2.741   7.470  17.948  0.00  0.00    +0.000 A 
ATOM     12  C   UNL     1       2.222   8.693  17.783  0.00  0.00    +0.000 A 
ATOM     13  C   UNL     1       1.494   9.353  18.906  0.00  0.00    +0.000 A 
ATOM     14  N   UNL     1       1.017  10.543  18.732  0.00  0.00    +0.000 NA
ATOM     15  C   UNL     1       0.357  11.186  19.758  0.00  0.00    +0.000 A 
ATOM     16  N   UNL     1      -0.095  12.529  19.616  0.00  0.00    +0.000 N 
ATOM     17  H   UNL     1      -0.877  14.922  21.643  0.00  0.00    +0.000 HD
ENDROOT
BRANCH   3  18
ATOM     18  C   UNL     1      -1.577  13.175  23.221  0.00  0.00    +0.000 C 
ATOM     19  O   UNL     1      -0.949  13.924  23.960  0.00  0.00    +0.000 OA
ATOM     20  N   UNL     1      -2.921  12.903  23.372  0.00  0.00    +0.000 N 
ATOM     21  H   UNL     1      -3.372  12.406  22.619  0.00  0.00    +0.000 HD
BRANCH  20  22
ATOM     22  C   UNL     1      -3.875  13.449  24.349  0.00  0.00    +0.000 C 
ATOM     23  C   UNL     1      -4.368  14.887  24.111  0.00  0.00    +0.000 C 
ATOM     24  C   UNL     1      -5.759  15.033  23.498  0.00  0.00    +0.000 C 
ATOM     25  C   UNL     1      -6.776  14.076  24.105  0.00  0.00    +0.000 C 
ATOM     26  C   UNL     1      -6.288  12.640  23.996  0.00  0.00    +0.000 C 
ATOM     27  C   UNL     1      -4.975  12.456  24.743  0.00  0.00    +0.000 C 
ENDBRANCH  20  22
ENDBRANCH   3  18
BRANCH  16  28
ATOM     28  C   UNL     1       0.245  13.278  18.368  0.00  0.00    +0.000 C 
BRANCH  28  29
ATOM     29  C   UNL     1       1.598  14.027  18.366  0.00  0.00    +0.000 C 
ATOM     30  C   UNL     1       2.696  13.470  19.256  0.00  0.00    +0.000 C 
ATOM     31  C   UNL     1       3.398  14.684  19.816  0.00  0.00    +0.000 C 
ATOM     32  C   UNL     1       2.440  15.830  19.597  0.00  0.00    +0.000 C 
ATOM     33  O   UNL     1       1.461  15.430  18.642  0.00  0.00    +0.000 OA
ENDBRANCH  28  29
ENDBRANCH  16  28
TORSDOF 4
ENDMDL
MODEL 9
REMARK VINA RESULT:      -7.8      3.835      7.445
REMARK  Name = 
REMARK  4 active torsions:
REMARK  status: ('A' for Active; 'I' for Inactive)
REMARK    1  A    between atoms: C_3  and  C_4
REMARK    2  A    between atoms: N_6  and  C_7
REMARK    3  A    between atoms: N_25  and  C_26
REMARK    4  A    between atoms: C_26  and  C_27
REMARK                            x       y       z     vdW  Elec       q    Type
REMARK                         _______ _______ _______ _____ _____    ______ ____
ROOT
ATOM      1  N   UNL     1       1.440  11.959  20.061  0.00  0.00    +0.000 NA
ATOM      2  C   UNL     1       0.266  11.484  19.750  0.00  0.00    +0.000 A 
ATOM      3  C   UNL     1       0.163  10.257  18.850  0.00  0.00    +0.000 A 
ATOM      4  C   UNL     1      -1.067  10.055  18.343  0.00  0.00    +0.000 A 
ATOM      5  C   UNL     1      -2.214  10.894  18.655  0.00  0.00    +0.000 A 
ATOM      6  C   UNL     1      -3.495  10.663  17.917  0.00  0.00    +0.000 A 
ATOM      7  O   UNL     1      -3.562   9.752  17.081  0.00  0.00    +0.000 OA
ATOM      8  N   UNL     1      -4.543  11.508  18.219  0.00  0.00    +0.000 N 
ATOM      9  C   UNL     1      -5.747  11.371  17.541  0.00  0.00    +0.000 A 
ATOM     10  C   UNL     1      -6.793  12.173  17.799  0.00  0.00    +0.000 A 
ATOM     11  C   UNL     1      -6.677  13.192  18.806  0.00  0.00    +0.000 A 
ATOM     12  C   UNL     1      -5.532  13.356  19.480  0.00  0.00    +0.000 A 
ATOM     13  C   UNL     1      -4.364  12.475  19.190  0.00  0.00    +0.000 A 
ATOM     14  N   UNL     1      -3.259  12.662  19.839  0.00  0.00    +0.000 NA
ATOM     15  C   UNL     1      -2.156  11.877  19.578  0.00  0.00    +0.000 A 
ATOM     16  N   UNL     1      -0.908  12.126  20.217  0.00  0.00    +0.000 N 
ATOM     17  H   UNL     1       2.181  11.409  19.591  0.00  0.00    +0.000 HD
ENDROOT
BRANCH   3  18
ATOM     18  C   UNL     1       1.346   9.382  18.483  0.00  0.00    +0.000 C 
ATOM     19  O   UNL     1       2.170   9.764  17.660  0.00  0.00    +0.000 OA
ATOM     20  N   UNL     1       1.436   8.180  19.155  0.00  0.00    +0.000 N 
ATOM     21  H   UNL     1       0.798   8.038  19.922  0.00  0.00    +0.000 HD
BRANCH  20  22
ATOM     22  C   UNL     1       2.495   7.161  19.096  0.00  0.00    +0.000 C 
ATOM     23  C   UNL     1       2.698   6.295  20.351  0.00  0.00    +0.000 C 
ATOM     24  C   UNL     1       2.105   4.887  20.305  0.00  0.00    +0.000 C 
ATOM     25  C   UNL     1       2.342   4.190  18.973  0.00  0.00    +0.000 C 
ATOM     26  C   UNL     1       1.811   5.035  17.826  0.00  0.00    +0.000 C 
ATOM     27  C   UNL     1       2.516   6.384  17.774  0.00  0.00    +0.000 C 
ENDBRANCH  20  22
ENDBRANCH   3  18
BRANCH  16  28
ATOM     28  C   UNL     1      -0.775  13.320  21.105  0.00  0.00    +0.000 C 
BRANCH  28  29
ATOM     29  C   UNL     1      -1.356  13.181  22.532  0.00  0.00    +0.000 C 
ATOM     30  C   UNL     1      -1.882  11.812  22.931  0.00  0.00    +0.000 C 
ATOM     31  C   UNL     1      -3.112  12.094  23.761  0.00  0.00    +0.000 C 
ATOM     32  C   UNL     1      -3.484  13.522  23.443  0.00  0.00    +0.000 C 
ATOM     33  O   UNL     1      -2.370  14.156  22.821  0.00  0.00    +0.000 OA
ENDBRANCH  28  29
ENDBRANCH  16  28
TORSDOF 4
ENDMDL
