MODEL 1
REMARK VINA RESULT:      -8.2      0.000      0.000
REMARK  Name = 
REMARK  4 active torsions:
REMARK  status: ('A' for Active; 'I' for Inactive)
REMARK    1  A    between atoms: C_1  and  N_2
REMARK    2  A    between atoms: C_8  and  N_9
REMARK    3  A    between atoms: C_13  and  C_15
REMARK    4  A    between atoms: C_20  and  O_21
REMARK                            x       y       z     vdW  Elec       q    Type
REMARK                         _______ _______ _______ _____ _____    ______ ____
ROOT
ATOM      1  N   UNL     1       4.123   5.313  17.982  0.00  0.00    +0.000 N 
ATOM      2  C   UNL     1       4.497   6.315  17.132  0.00  0.00    +0.000 C 
ATOM      3  O   UNL     1       4.366   7.505  17.369  0.00  0.00    +0.000 OA
ATOM      4  N   UNL     1       5.063   5.864  15.957  0.00  0.00    +0.000 N 
ATOM      5  C   UNL     1       5.382   4.569  15.605  0.00  0.00    +0.000 C 
ATOM      6  O   UNL     1       5.191   3.592  16.337  0.00  0.00    +0.000 OA
ATOM      7  H   UNL     1       4.477   4.403  17.695  0.00  0.00    +0.000 HD
ATOM      8  H   UNL     1       5.353   6.607  15.331  0.00  0.00    +0.000 HD
ENDROOT
BRANCH   1  16
ATOM      9  C   UNL     1       1.340   2.588  21.491  0.00  0.00    +0.000 C 
ATOM     10  N   UNL     1       2.137   3.604  20.825  0.00  0.00    +0.000 NA
ATOM     11  C   UNL     1       3.247   3.036  20.054  0.00  0.00    +0.000 C 
ATOM     12  C   UNL     1       2.611   2.679  18.703  0.00  0.00    +0.000 C 
ATOM     13  C   UNL     1       1.453   3.655  18.525  0.00  0.00    +0.000 C 
ATOM     14  C   UNL     1       1.441   4.447  19.832  0.00  0.00    +0.000 C 
ATOM     15  C   UNL     1       2.284   5.732  19.657  0.00  0.00    +0.000 C 
ATOM     16  C   UNL     1       3.784   5.456  19.391  0.00  0.00    +0.000 C 
ATOM     17  C   UNL     1       4.270   4.182  20.099  0.00  0.00    +0.000 C 
ENDBRANCH   1  16
BRANCH   5  18
ATOM     18  C   UNL     1       5.943   4.337  14.251  0.00  0.00    +0.000 A 
ATOM     19  C   UNL     1       5.199   3.518  13.385  0.00  0.00    +0.000 A 
ATOM     20  C   UNL     1       5.648   3.258  12.093  0.00  0.00    +0.000 A 
ATOM     21  C   UNL     1       6.857   3.804  11.658  0.00  0.00    +0.000 A 
ATOM     22  C   UNL     1       7.611   4.609  12.514  0.00  0.00    +0.000 A 
ATOM     23  C   UNL     1       7.156   4.875  13.806  0.00  0.00    +0.000 A 
BRANCH  23  24
ATOM     24  O   UNL     1       7.907   5.665  14.633  0.00  0.00    +0.000 OA
ATOM     25  H   UNL     1       8.651   6.035  14.125  0.00  0.00    +0.000 HD
ENDBRANCH  23  24
ENDBRANCH   5  18
TORSDOF 3
ENDMDL
MODEL 2
REMARK VINA RESULT:      -8.2      1.321      1.511
REMARK  Name = 
REMARK  4 active torsions:
REMARK  status: ('A' for Active; 'I' for Inactive)
REMARK    1  A    between atoms: C_1  and  N_2
REMARK    2  A    between atoms: C_8  and  N_9
REMARK    3  A    between atoms: C_13  and  C_15
REMARK    4  A    between atoms: C_20  and  O_21
REMARK                            x       y       z     vdW  Elec       q    Type
REMARK                         _______ _______ _______ _____ _____    ______ ____
ROOT
ATOM      1  N   UNL     1       5.292   4.737  18.164  0.00  0.00    +0.000 N 
ATOM      2  C   UNL     1       6.582   4.494  17.790  0.00  0.00    +0.000 C 
ATOM      3  O   UNL     1       7.520   4.401  18.567  0.00  0.00    +0.000 OA
ATOM      4  N   UNL     1       6.748   4.341  16.429  0.00  0.00    +0.000 N 
ATOM      5  C   UNL     1       5.776   4.301  15.450  0.00  0.00    +0.000 C 
ATOM      6  O   UNL     1       4.566   4.401  15.680  0.00  0.00    +0.000 OA
ATOM      7  H   UNL     1       4.630   4.596  17.403  0.00  0.00    +0.000 HD
ATOM      8  H   UNL     1       7.703   4.147  16.151  0.00  0.00    +0.000 HD
ENDROOT
BRANCH   1  16
ATOM      9  C   UNL     1       0.816   3.081  20.333  0.00  0.00    +0.000 C 
ATOM     10  N   UNL     1       2.133   3.651  20.112  0.00  0.00    +0.000 NA
ATOM     11  C   UNL     1       2.973   2.816  19.248  0.00  0.00    +0.000 C 
ATOM     12  C   UNL     1       2.574   3.238  17.827  0.00  0.00    +0.000 C 
ATOM     13  C   UNL     1       2.110   4.687  17.947  0.00  0.00    +0.000 C 
ATOM     14  C   UNL     1       2.182   4.969  19.447  0.00  0.00    +0.000 C 
ATOM     15  C   UNL     1       3.556   5.596  19.781  0.00  0.00    +0.000 C 
ATOM     16  C   UNL     1       4.750   4.647  19.512  0.00  0.00    +0.000 C 
ATOM     17  C   UNL     1       4.381   3.174  19.749  0.00  0.00    +0.000 C 
ENDBRANCH   1  16
BRANCH   5  18
ATOM     18  C   UNL     1       6.218   4.175  14.039  0.00  0.00    +0.000 A 
ATOM     19  C   UNL     1       5.467   3.326  13.210  0.00  0.00    +0.000 A 
ATOM     20  C   UNL     1       5.805   3.160  11.870  0.00  0.00    +0.000 A 
ATOM     21  C   UNL     1       6.912   3.832  11.348  0.00  0.00    +0.000 A 
ATOM     22  C   UNL     1       7.674   4.669  12.166  0.00  0.00    +0.000 A 
ATOM     23  C   UNL     1       7.329   4.841  13.507  0.00  0.00    +0.000 A 
BRANCH  23  24
ATOM     24  O   UNL     1       8.085   5.664  14.296  0.00  0.00    +0.000 OA
ATOM     25  H   UNL     1       8.962   5.772  13.886  0.00  0.00    +0.000 HD
ENDBRANCH  23  24
ENDBRANCH   5  18
TORSDOF 3
ENDMDL
MODEL 3
REMARK VINA RESULT:      -7.6      4.296      8.114
REMARK  Name = 
REMARK  4 active torsions:
REMARK  status: ('A' for Active; 'I' for Inactive)
REMARK    1  A    between atoms: C_1  and  N_2
REMARK    2  A    between atoms: C_8  and  N_9
REMARK    3  A    between atoms: C_13  and  C_15
REMARK    4  A    between atoms: C_20  and  O_21
REMARK                            x       y       z     vdW  Elec       q    Type
REMARK                         _______ _______ _______ _____ _____    ______ ____
ROOT
ATOM      1  N   UNL     1       2.636   7.040  19.041  0.00  0.00    +0.000 N 
ATOM      2  C   UNL     1       2.222   8.206  18.462  0.00  0.00    +0.000 C 
ATOM      3  O   UNL     1       2.434   8.511  17.299  0.00  0.00    +0.000 OA
ATOM      4  N   UNL     1       1.513   9.028  19.313  0.00  0.00    +0.000 N 
ATOM      5  C   UNL     1       1.096   8.767  20.602  0.00  0.00    +0.000 C 
ATOM      6  O   UNL     1       1.317   7.705  21.193  0.00  0.00    +0.000 OA
ATOM      7  H   UNL     1       2.210   6.882  19.952  0.00  0.00    +0.000 HD
ATOM      8  H   UNL     1       1.193   9.888  18.881  0.00  0.00    +0.000 HD
ENDROOT
BRANCH   1  16
ATOM      9  C   UNL     1       1.988   1.856  19.484  0.00  0.00    +0.000 C 
ATOM     10  N   UNL     1       2.435   3.179  19.082  0.00  0.00    +0.000 NA
ATOM     11  C   UNL     1       1.327   4.123  18.910  0.00  0.00    +0.000 C 
ATOM     12  C   UNL     1       1.078   4.660  20.327  0.00  0.00    +0.000 C 
ATOM     13  C   UNL     1       2.422   4.565  21.042  0.00  0.00    +0.000 C 
ATOM     14  C   UNL     1       3.332   3.888  20.017  0.00  0.00    +0.000 C 
ATOM     15  C   UNL     1       4.074   4.973  19.200  0.00  0.00    +0.000 C 
ATOM     16  C   UNL     1       3.130   5.859  18.349  0.00  0.00    +0.000 C 
ATOM     17  C   UNL     1       1.900   5.081  17.855  0.00  0.00    +0.000 C 
ENDBRANCH   1  16
BRANCH   5  18
ATOM     18  C   UNL     1       0.383   9.844  21.332  0.00  0.00    +0.000 A 
ATOM     19  C   UNL     1       0.634  11.164  20.922  0.00  0.00    +0.000 A 
ATOM     20  C   UNL     1      -0.002  12.235  21.545  0.00  0.00    +0.000 A 
ATOM     21  C   UNL     1      -0.887  11.995  22.598  0.00  0.00    +0.000 A 
ATOM     22  C   UNL     1      -1.135  10.688  23.022  0.00  0.00    +0.000 A 
ATOM     23  C   UNL     1      -0.503   9.616  22.392  0.00  0.00    +0.000 A 
BRANCH  23  24
ATOM     24  O   UNL     1      -0.755   8.341  22.819  0.00  0.00    +0.000 OA
ATOM     25  H   UNL     1      -1.709   8.164  22.731  0.00  0.00    +0.000 HD
ENDBRANCH  23  24
ENDBRANCH   5  18
TORSDOF 3
ENDMDL
MODEL 4
REMARK VINA RESULT:      -7.5      3.248      7.527
REMARK  Name = 
REMARK  4 active torsions:
REMARK  status: ('A' for Active; 'I' for Inactive)
REMARK    1  A    between atoms: C_1  and  N_2
REMARK    2  A    between atoms: C_8  and  N_9
REMARK    3  A    between atoms: C_13  and  C_15
REMARK    4  A    between atoms: C_20  and  O_21
REMARK                            x       y       z     vdW  Elec       q    Type
REMARK                         _______ _______ _______ _____ _____    ______ ____
ROOT
ATOM      1  N   UNL     1       2.875   4.912  19.204  0.00  0.00    +0.000 N 
ATOM      2  C   UNL     1       2.328   4.999  20.453  0.00  0.00    +0.000 C 
ATOM      3  O   UNL     1       2.285   4.076  21.252  0.00  0.00    +0.000 OA
ATOM      4  N   UNL     1       1.830   6.249  20.756  0.00  0.00    +0.000 N 
ATOM      5  C   UNL     1       1.915   7.406  20.010  0.00  0.00    +0.000 C 
ATOM      6  O   UNL     1       2.481   7.475  18.913  0.00  0.00    +0.000 OA
ATOM      7  H   UNL     1       2.986   5.822  18.761  0.00  0.00    +0.000 HD
ATOM      8  H   UNL     1       1.436   6.319  21.688  0.00  0.00    +0.000 HD
ENDROOT
BRANCH   1  16
ATOM      9  C   UNL     1       7.310   4.620  16.424  0.00  0.00    +0.000 C 
ATOM     10  N   UNL     1       6.097   4.300  17.157  0.00  0.00    +0.000 NA
ATOM     11  C   UNL     1       5.969   5.066  18.400  0.00  0.00    +0.000 C 
ATOM     12  C   UNL     1       5.326   6.387  17.953  0.00  0.00    +0.000 C 
ATOM     13  C   UNL     1       4.511   6.044  16.711  0.00  0.00    +0.000 C 
ATOM     14  C   UNL     1       4.818   4.566  16.470  0.00  0.00    +0.000 C 
ATOM     15  C   UNL     1       3.739   3.702  17.166  0.00  0.00    +0.000 C 
ATOM     16  C   UNL     1       3.733   3.846  18.708  0.00  0.00    +0.000 C 
ATOM     17  C   UNL     1       5.140   4.107  19.269  0.00  0.00    +0.000 C 
ENDBRANCH   1  16
BRANCH   5  18
ATOM     18  C   UNL     1       1.248   8.622  20.537  0.00  0.00    +0.000 A 
ATOM     19  C   UNL     1       1.065   8.695  21.928  0.00  0.00    +0.000 A 
ATOM     20  C   UNL     1       0.458   9.806  22.507  0.00  0.00    +0.000 A 
ATOM     21  C   UNL     1       0.014  10.852  21.697  0.00  0.00    +0.000 A 
ATOM     22  C   UNL     1       0.179  10.786  20.312  0.00  0.00    +0.000 A 
ATOM     23  C   UNL     1       0.794   9.675  19.733  0.00  0.00    +0.000 A 
BRANCH  23  24
ATOM     24  O   UNL     1       0.949   9.624  18.375  0.00  0.00    +0.000 OA
ATOM     25  H   UNL     1       1.745  10.129  18.130  0.00  0.00    +0.000 HD
ENDBRANCH  23  24
ENDBRANCH   5  18
TORSDOF 3
ENDMDL
MODEL 5
REMARK VINA RESULT:      -7.4      4.248      8.009
REMARK  Name = 
REMARK  4 active torsions:
REMARK  status: ('A' for Active; 'I' for Inactive)
REMARK    1  A    between atoms: C_1  and  N_2
REMARK    2  A    between atoms: C_8  and  N_9
REMARK    3  A    between atoms: C_13  and  C_15
REMARK    4  A    between atoms: C_20  and  O_21
REMARK                            x       y       z     vdW  Elec       q    Type
REMARK                         _______ _______ _______ _____ _____    ______ ____
ROOT
ATOM      1  N   UNL     1       2.646   7.047  19.034  0.00  0.00    +0.000 N 
ATOM      2  C   UNL     1       2.228   8.205  18.443  0.00  0.00    +0.000 C 
ATOM      3  O   UNL     1       2.515   8.541  17.305  0.00  0.00    +0.000 OA
ATOM      4  N   UNL     1       1.419   8.980  19.249  0.00  0.00    +0.000 N 
ATOM      5  C   UNL     1       0.917   8.677  20.498  0.00  0.00    +0.000 C 
ATOM      6  O   UNL     1       1.138   7.614  21.087  0.00  0.00    +0.000 OA
ATOM      7  H   UNL     1       2.158   6.854  19.907  0.00  0.00    +0.000 HD
ATOM      8  H   UNL     1       1.097   9.834  18.807  0.00  0.00    +0.000 HD
ENDROOT
BRANCH   1  16
ATOM      9  C   UNL     1       2.202   1.833  19.351  0.00  0.00    +0.000 C 
ATOM     10  N   UNL     1       2.617   3.181  19.003  0.00  0.00    +0.000 NA
ATOM     11  C   UNL     1       1.483   4.078  18.762  0.00  0.00    +0.000 C 
ATOM     12  C   UNL     1       1.105   4.578  20.164  0.00  0.00    +0.000 C 
ATOM     13  C   UNL     1       2.395   4.529  20.976  0.00  0.00    +0.000 C 
ATOM     14  C   UNL     1       3.408   3.912  20.013  0.00  0.00    +0.000 C 
ATOM     15  C   UNL     1       4.160   5.043  19.271  0.00  0.00    +0.000 C 
ATOM     16  C   UNL     1       3.244   5.901  18.364  0.00  0.00    +0.000 C 
ATOM     17  C   UNL     1       2.090   5.080  17.768  0.00  0.00    +0.000 C 
ENDBRANCH   1  16
BRANCH   5  18
ATOM     18  C   UNL     1       0.103   9.709  21.186  0.00  0.00    +0.000 A 
ATOM     19  C   UNL     1      -0.138   9.520  22.557  0.00  0.00    +0.000 A 
ATOM     20  C   UNL     1      -0.883  10.446  23.282  0.00  0.00    +0.000 A 
ATOM     21  C   UNL     1      -1.408  11.567  22.637  0.00  0.00    +0.000 A 
ATOM     22  C   UNL     1      -1.186  11.760  21.273  0.00  0.00    +0.000 A 
ATOM     23  C   UNL     1      -0.433  10.835  20.549  0.00  0.00    +0.000 A 
BRANCH  23  24
ATOM     24  O   UNL     1      -0.224  11.037  19.212  0.00  0.00    +0.000 OA
ATOM     25  H   UNL     1       0.171  10.233  18.831  0.00  0.00    +0.000 HD
ENDBRANCH  23  24
ENDBRANCH   5  18
TORSDOF 3
ENDMDL
MODEL 6
REMARK VINA RESULT:      -7.2      3.441      7.455
REMARK  Name = 
REMARK  4 active torsions:
REMARK  status: ('A' for Active; 'I' for Inactive)
REMARK    1  A    between atoms: C_1  and  N_2
REMARK    2  A    between atoms: C_8  and  N_9
REMARK    3  A    between atoms: C_13  and  C_15
REMARK    4  A    between atoms: C_20  and  O_21
REMARK                            x       y       z     vdW  Elec       q    Type
REMARK                         _______ _______ _______ _____ _____    ______ ____
ROOT
ATOM      1  N   UNL     1       2.955   5.183  19.161  0.00  0.00    +0.000 N 
ATOM      2  C   UNL     1       2.367   5.409  20.372  0.00  0.00    +0.000 C 
ATOM      3  O   UNL     1       2.311   4.588  21.275  0.00  0.00    +0.000 OA
ATOM      4  N   UNL     1       1.840   6.676  20.508  0.00  0.00    +0.000 N 
ATOM      5  C   UNL     1       1.932   7.737  19.630  0.00  0.00    +0.000 C 
ATOM      6  O   UNL     1       2.532   7.685  18.551  0.00  0.00    +0.000 OA
ATOM      7  H   UNL     1       3.066   6.035  18.614  0.00  0.00    +0.000 HD
ATOM      8  H   UNL     1       1.415   6.850  21.412  0.00  0.00    +0.000 HD
ENDROOT
BRANCH   1  16
ATOM      9  C   UNL     1       7.410   4.620  16.455  0.00  0.00    +0.000 C 
ATOM     10  N   UNL     1       6.202   4.375  17.225  0.00  0.00    +0.000 NA
ATOM     11  C   UNL     1       6.047   5.307  18.345  0.00  0.00    +0.000 C 
ATOM     12  C   UNL     1       5.370   6.532  17.713  0.00  0.00    +0.000 C 
ATOM     13  C   UNL     1       4.570   5.992  16.532  0.00  0.00    +0.000 C 
ATOM     14  C   UNL     1       4.919   4.504  16.506  0.00  0.00    +0.000 C 
ATOM     15  C   UNL     1       3.862   3.719  17.318  0.00  0.00    +0.000 C 
ATOM     16  C   UNL     1       3.844   4.081  18.823  0.00  0.00    +0.000 C 
ATOM     17  C   UNL     1       5.241   4.459  19.341  0.00  0.00    +0.000 C 
ENDBRANCH   1  16
BRANCH   5  18
ATOM     18  C   UNL     1       1.230   8.995  19.986  0.00  0.00    +0.000 A 
ATOM     19  C   UNL     1       0.661   9.727  18.932  0.00  0.00    +0.000 A 
ATOM     20  C   UNL     1      -0.025  10.913  19.179  0.00  0.00    +0.000 A 
ATOM     21  C   UNL     1      -0.136  11.387  20.487  0.00  0.00    +0.000 A 
ATOM     22  C   UNL     1       0.437  10.675  21.543  0.00  0.00    +0.000 A 
ATOM     23  C   UNL     1       1.117   9.483  21.294  0.00  0.00    +0.000 A 
BRANCH  23  24
ATOM     24  O   UNL     1       1.674   8.796  22.338  0.00  0.00    +0.000 OA
ATOM     25  H   UNL     1       1.631   7.842  22.145  0.00  0.00    +0.000 HD
ENDBRANCH  23  24
ENDBRANCH   5  18
TORSDOF 3
ENDMDL
MODEL 7
REMARK VINA RESULT:      -7.0      1.646      2.162
REMARK  Name = 
REMARK  4 active torsions:
REMARK  status: ('A' for Active; 'I' for Inactive)
REMARK    1  A    between atoms: C_1  and  N_2
REMARK    2  A    between atoms: C_8  and  N_9
REMARK    3  A    between atoms: C_13  and  C_15
REMARK    4  A    between atoms: C_20  and  O_21
REMARK                            x       y       z     vdW  Elec       q    Type
REMARK                         _______ _______ _______ _____ _____    ______ ____
ROOT
ATOM      1  N   UNL     1       5.360   4.569  18.135  0.00  0.00    +0.000 N 
ATOM      2  C   UNL     1       6.695   4.662  17.859  0.00  0.00    +0.000 C 
ATOM      3  O   UNL     1       7.571   4.732  18.707  0.00  0.00    +0.000 OA
ATOM      4  N   UNL     1       6.986   4.652  16.511  0.00  0.00    +0.000 N 
ATOM      5  C   UNL     1       6.121   4.458  15.452  0.00  0.00    +0.000 C 
ATOM      6  O   UNL     1       4.909   4.257  15.584  0.00  0.00    +0.000 OA
ATOM      7  H   UNL     1       4.806   4.334  17.315  0.00  0.00    +0.000 HD
ATOM      8  H   UNL     1       7.977   4.706  16.304  0.00  0.00    +0.000 HD
ENDROOT
BRANCH   1  16
ATOM      9  C   UNL     1       0.714   2.825  19.825  0.00  0.00    +0.000 C 
ATOM     10  N   UNL     1       2.071   3.339  19.753  0.00  0.00    +0.000 NA
ATOM     11  C   UNL     1       2.892   2.633  18.765  0.00  0.00    +0.000 C 
ATOM     12  C   UNL     1       2.572   3.347  17.443  0.00  0.00    +0.000 C 
ATOM     13  C   UNL     1       2.192   4.772  17.831  0.00  0.00    +0.000 C 
ATOM     14  C   UNL     1       2.224   4.754  19.359  0.00  0.00    +0.000 C 
ATOM     15  C   UNL     1       3.619   5.213  19.844  0.00  0.00    +0.000 C 
ATOM     16  C   UNL     1       4.764   4.258  19.426  0.00  0.00    +0.000 C 
ATOM     17  C   UNL     1       4.298   2.794  19.361  0.00  0.00    +0.000 C 
ENDBRANCH   1  16
BRANCH   5  18
ATOM     18  C   UNL     1       6.677   4.543  14.079  0.00  0.00    +0.000 A 
ATOM     19  C   UNL     1       7.630   5.547  13.839  0.00  0.00    +0.000 A 
ATOM     20  C   UNL     1       8.210   5.689  12.582  0.00  0.00    +0.000 A 
ATOM     21  C   UNL     1       7.831   4.836  11.545  0.00  0.00    +0.000 A 
ATOM     22  C   UNL     1       6.876   3.842  11.768  0.00  0.00    +0.000 A 
ATOM     23  C   UNL     1       6.300   3.696  13.030  0.00  0.00    +0.000 A 
BRANCH  23  24
ATOM     24  O   UNL     1       5.365   2.718  13.233  0.00  0.00    +0.000 OA
ATOM     25  H   UNL     1       4.641   3.083  13.773  0.00  0.00    +0.000 HD
ENDBRANCH  23  24
ENDBRANCH   5  18
TORSDOF 3
ENDMDL
MODEL 8
REMARK VINA RESULT:      -6.6      3.991      7.297
REMARK  Name = 
REMARK  4 active torsions:
REMARK  status: ('A' for Active; 'I' for Inactive)
REMARK    1  A    between atoms: C_1  and  N_2
REMARK    2  A    between atoms: C_8  and  N_9
REMARK    3  A    between atoms: C_13  and  C_15
REMARK    4  A    between atoms: C_20  and  O_21
REMARK                            x       y       z     vdW  Elec       q    Type
REMARK                         _______ _______ _______ _____ _____    ______ ____
ROOT
ATOM      1  N   UNL     1       2.637   6.274  18.569  0.00  0.00    +0.000 N 
ATOM      2  C   UNL     1       2.104   6.871  19.675  0.00  0.00    +0.000 C 
ATOM      3  O   UNL     1       1.921   6.307  20.742  0.00  0.00    +0.000 OA
ATOM      4  N   UNL     1       1.795   8.203  19.494  0.00  0.00    +0.000 N 
ATOM      5  C   UNL     1       2.054   8.998  18.395  0.00  0.00    +0.000 C 
ATOM      6  O   UNL     1       2.628   8.596  17.378  0.00  0.00    +0.000 OA
ATOM      7  H   UNL     1       2.883   6.943  17.842  0.00  0.00    +0.000 HD
ATOM      8  H   UNL     1       1.412   8.652  20.318  0.00  0.00    +0.000 HD
ENDROOT
BRANCH   1  16
ATOM      9  C   UNL     1       7.309   4.561  16.917  0.00  0.00    +0.000 C 
ATOM     10  N   UNL     1       5.954   4.642  17.436  0.00  0.00    +0.000 NA
ATOM     11  C   UNL     1       5.786   5.725  18.410  0.00  0.00    +0.000 C 
ATOM     12  C   UNL     1       5.505   6.960  17.542  0.00  0.00    +0.000 C 
ATOM     13  C   UNL     1       4.847   6.425  16.273  0.00  0.00    +0.000 C 
ATOM     14  C   UNL     1       4.883   4.909  16.456  0.00  0.00    +0.000 C 
ATOM     15  C   UNL     1       3.554   4.441  17.097  0.00  0.00    +0.000 C 
ATOM     16  C   UNL     1       3.329   4.994  18.525  0.00  0.00    +0.000 C 
ATOM     17  C   UNL     1       4.652   5.175  19.288  0.00  0.00    +0.000 C 
ENDBRANCH   1  16
BRANCH   5  18
ATOM     18  C   UNL     1       1.573  10.401  18.426  0.00  0.00    +0.000 A 
ATOM     19  C   UNL     1       2.489  11.396  18.047  0.00  0.00    +0.000 A 
ATOM     20  C   UNL     1       2.116  12.737  18.036  0.00  0.00    +0.000 A 
ATOM     21  C   UNL     1       0.824  13.099  18.421  0.00  0.00    +0.000 A 
ATOM     22  C   UNL     1      -0.092  12.120  18.811  0.00  0.00    +0.000 A 
ATOM     23  C   UNL     1       0.281  10.775  18.814  0.00  0.00    +0.000 A 
BRANCH  23  24
ATOM     24  O   UNL     1      -0.627   9.827  19.201  0.00  0.00    +0.000 OA
ATOM     25  H   UNL     1      -0.307   8.952  18.916  0.00  0.00    +0.000 HD
ENDBRANCH  23  24
ENDBRANCH   5  18
TORSDOF 3
ENDMDL
MODEL 9
REMARK VINA RESULT:      -6.6      3.378      6.855
REMARK  Name = 
REMARK  4 active torsions:
REMARK  status: ('A' for Active; 'I' for Inactive)
REMARK    1  A    between atoms: C_1  and  N_2
REMARK    2  A    between atoms: C_8  and  N_9
REMARK    3  A    between atoms: C_13  and  C_15
REMARK    4  A    between atoms: C_20  and  O_21
REMARK                            x       y       z     vdW  Elec       q    Type
REMARK                         _______ _______ _______ _____ _____    ______ ____
ROOT
ATOM      1  N   UNL     1       4.111   6.555  18.271  0.00  0.00    +0.000 N 
ATOM      2  C   UNL     1       3.674   7.484  17.370  0.00  0.00    +0.000 C 
ATOM      3  O   UNL     1       4.101   7.594  16.231  0.00  0.00    +0.000 OA
ATOM      4  N   UNL     1       2.673   8.300  17.854  0.00  0.00    +0.000 N 
ATOM      5  C   UNL     1       2.014   8.217  19.064  0.00  0.00    +0.000 C 
ATOM      6  O   UNL     1       2.248   7.353  19.915  0.00  0.00    +0.000 OA
ATOM      7  H   UNL     1       3.515   6.496  19.094  0.00  0.00    +0.000 HD
ATOM      8  H   UNL     1       2.338   8.982  17.182  0.00  0.00    +0.000 HD
ENDROOT
BRANCH   1  16
ATOM      9  C   UNL     1       3.430   1.360  18.424  0.00  0.00    +0.000 C 
ATOM     10  N   UNL     1       3.996   2.691  18.291  0.00  0.00    +0.000 NA
ATOM     11  C   UNL     1       3.133   3.599  17.531  0.00  0.00    +0.000 C 
ATOM     12  C   UNL     1       2.154   4.143  18.582  0.00  0.00    +0.000 C 
ATOM     13  C   UNL     1       2.910   4.094  19.906  0.00  0.00    +0.000 C 
ATOM     14  C   UNL     1       4.240   3.435  19.543  0.00  0.00    +0.000 C 
ATOM     15  C   UNL     1       5.282   4.533  19.223  0.00  0.00    +0.000 C 
ATOM     16  C   UNL     1       4.922   5.382  17.979  0.00  0.00    +0.000 C 
ATOM     17  C   UNL     1       4.162   4.564  16.923  0.00  0.00    +0.000 C 
ENDBRANCH   1  16
BRANCH   5  18
ATOM     18  C   UNL     1       0.999   9.255  19.373  0.00  0.00    +0.000 A 
ATOM     19  C   UNL     1       0.334   9.839  18.283  0.00  0.00    +0.000 A 
ATOM     20  C   UNL     1      -0.641  10.813  18.485  0.00  0.00    +0.000 A 
ATOM     21  C   UNL     1      -0.949  11.224  19.782  0.00  0.00    +0.000 A 
ATOM     22  C   UNL     1      -0.285  10.659  20.874  0.00  0.00    +0.000 A 
ATOM     23  C   UNL     1       0.686   9.678  20.670  0.00  0.00    +0.000 A 
BRANCH  23  24
ATOM     24  O   UNL     1       1.328   9.135  21.749  0.00  0.00    +0.000 OA
ATOM     25  H   UNL     1       2.265   9.000  21.521  0.00  0.00    +0.000 HD
ENDBRANCH  23  24
ENDBRANCH   5  18
TORSDOF 3
ENDMDL
