MODEL 1
REMARK VINA RESULT:      -8.6      0.000      0.000
REMARK  Name = 
REMARK  9 active torsions:
REMARK  status: ('A' for Active; 'I' for Inactive)
REMARK    1  A    between atoms: C_2  and  C_3
REMARK    2  A    between atoms: C_3  and  C_4
REMARK    3  A    between atoms: C_9  and  C_10
REMARK    4  A    between atoms: C_10  and  C_11
REMARK    5  A    between atoms: C_13  and  C_14
REMARK    6  A    between atoms: C_14  and  O_15
REMARK    7  A    between atoms: O_15  and  C_16
REMARK    8  A    between atoms: N_24  and  C_25
REMARK    9  A    between atoms: C_25  and  C_26
REMARK                            x       y       z     vdW  Elec       q    Type
REMARK                         _______ _______ _______ _____ _____    ______ ____
ROOT
ATOM      1  C   UNL     1       2.784   4.751  18.672  0.00  0.00    +0.000 C 
ATOM      2  C   UNL     1       1.492   4.000  18.276  0.00  0.00    +0.000 C 
ATOM      3  C   UNL     1       1.118   2.955  19.325  0.00  0.00    +0.000 C 
ATOM      4  N   UNL     1       2.177   1.965  19.507  0.00  0.00    +0.000 NA
ATOM      5  C   UNL     1       3.476   2.570  19.823  0.00  0.00    +0.000 C 
ATOM      6  C   UNL     1       3.892   3.658  18.814  0.00  0.00    +0.000 C 
ATOM      7  H   UNL     1       2.280   1.432  18.641  0.00  0.00    +0.000 HD
ENDROOT
BRANCH   1   8
ATOM      8  C   UNL     1       2.528   5.662  19.903  0.00  0.00    +0.000 C 
BRANCH   8  10
ATOM      9  O   UNL     1       2.437   7.500  18.333  0.00  0.00    +0.000 OA
ATOM     10  C   UNL     1       2.254   7.114  19.486  0.00  0.00    +0.000 C 
ATOM     11  N   UNL     1       1.806   7.959  20.483  0.00  0.00    +0.000 N 
ATOM     12  H   UNL     1       1.451   7.568  21.346  0.00  0.00    +0.000 HD
BRANCH  11  13
ATOM     13  C   UNL     1       1.437   9.325  20.153  0.00  0.00    +0.000 C 
BRANCH  13  14
ATOM     14  C   UNL     1       0.435   9.925  21.111  0.00  0.00    +0.000 A 
ATOM     15  C   UNL     1       0.127   9.283  22.323  0.00  0.00    +0.000 A 
ATOM     16  C   UNL     1      -0.769   9.865  23.230  0.00  0.00    +0.000 A 
ATOM     17  C   UNL     1      -1.365  11.080  22.923  0.00  0.00    +0.000 A 
ATOM     18  F   UNL     1      -2.218  11.637  23.794  0.00  0.00    +0.000 F 
ATOM     19  C   UNL     1      -1.080  11.730  21.729  0.00  0.00    +0.000 A 
ATOM     20  C   UNL     1      -0.184  11.153  20.823  0.00  0.00    +0.000 A 
ENDBRANCH  13  14
ENDBRANCH  11  13
ENDBRANCH   8  10
ENDBRANCH   1   8
BRANCH   6  21
ATOM     21  C   UNL     1       5.316   4.186  19.107  0.00  0.00    +0.000 C 
BRANCH  21  22
ATOM     22  C   UNL     1       6.159   4.422  17.874  0.00  0.00    +0.000 A 
ATOM     23  C   UNL     1       5.728   4.663  16.543  0.00  0.00    +0.000 A 
ATOM     24  C   UNL     1       6.894   4.759  15.813  0.00  0.00    +0.000 A 
ATOM     25  O   UNL     1       7.953   4.608  16.652  0.00  0.00    +0.000 OA
ATOM     26  N   UNL     1       7.497   4.377  17.935  0.00  0.00    +0.000 NA
BRANCH  24  27
ATOM     27  C   UNL     1       7.222   4.942  14.375  0.00  0.00    +0.000 C 
BRANCH  27  28
ATOM     28  O   UNL     1       6.022   4.714  13.636  0.00  0.00    +0.000 OA
BRANCH  28  29
ATOM     29  C   UNL     1       6.063   3.709  12.706  0.00  0.00    +0.000 A 
ATOM     30  C   UNL     1       7.343   3.369  12.264  0.00  0.00    +0.000 A 
ATOM     31  C   UNL     1       7.527   2.355  11.323  0.00  0.00    +0.000 A 
ATOM     32  C   UNL     1       6.427   1.659  10.827  0.00  0.00    +0.000 A 
ATOM     33  C   UNL     1       5.147   1.979  11.278  0.00  0.00    +0.000 A 
ATOM     34  C   UNL     1       4.962   3.002  12.216  0.00  0.00    +0.000 A 
ENDBRANCH  28  29
ENDBRANCH  27  28
ENDBRANCH  24  27
ENDBRANCH  21  22
ENDBRANCH   6  21
TORSDOF 9
ENDMDL
MODEL 2
REMARK VINA RESULT:      -8.3      4.224      6.098
REMARK  Name = 
REMARK  9 active torsions:
REMARK  status: ('A' for Active; 'I' for Inactive)
REMARK    1  A    between atoms: C_2  and  C_3
REMARK    2  A    between atoms: C_3  and  C_4
REMARK    3  A    between atoms: C_9  and  C_10
REMARK    4  A    between atoms: C_10  and  C_11
REMARK    5  A    between atoms: C_13  and  C_14
REMARK    6  A    between atoms: C_14  and  O_15
REMARK    7  A    between atoms: O_15  and  C_16
REMARK    8  A    between atoms: N_24  and  C_25
REMARK    9  A    between atoms: C_25  and  C_26
REMARK                            x       y       z     vdW  Elec       q    Type
REMARK                         _______ _______ _______ _____ _____    ______ ____
ROOT
ATOM      1  C   UNL     1       3.507   5.112  18.335  0.00  0.00    +0.000 C 
ATOM      2  C   UNL     1       2.126   4.767  17.731  0.00  0.00    +0.000 C 
ATOM      3  C   UNL     1       1.754   3.311  18.003  0.00  0.00    +0.000 C 
ATOM      4  N   UNL     1       2.736   2.386  17.442  0.00  0.00    +0.000 NA
ATOM      5  C   UNL     1       4.104   2.661  17.895  0.00  0.00    +0.000 C 
ATOM      6  C   UNL     1       4.525   4.127  17.676  0.00  0.00    +0.000 C 
ATOM      7  H   UNL     1       2.718   2.468  16.423  0.00  0.00    +0.000 HD
ENDROOT
BRANCH   1   8
ATOM      8  C   UNL     1       3.436   5.121  19.886  0.00  0.00    +0.000 C 
BRANCH   8  10
ATOM      9  O   UNL     1       1.206   5.200  20.821  0.00  0.00    +0.000 OA
ATOM     10  C   UNL     1       2.170   5.830  20.391  0.00  0.00    +0.000 C 
ATOM     11  N   UNL     1       2.175   7.209  20.316  0.00  0.00    +0.000 N 
ATOM     12  H   UNL     1       3.050   7.698  20.179  0.00  0.00    +0.000 HD
BRANCH  11  13
ATOM     13  C   UNL     1       1.054   7.960  20.857  0.00  0.00    +0.000 C 
BRANCH  13  14
ATOM     14  C   UNL     1       1.010   9.394  20.385  0.00  0.00    +0.000 A 
ATOM     15  C   UNL     1       0.756  10.441  21.289  0.00  0.00    +0.000 A 
ATOM     16  C   UNL     1       0.760  11.773  20.855  0.00  0.00    +0.000 A 
ATOM     17  C   UNL     1       1.008  12.061  19.521  0.00  0.00    +0.000 A 
ATOM     18  F   UNL     1       1.016  13.337  19.110  0.00  0.00    +0.000 F 
ATOM     19  C   UNL     1       1.256  11.044  18.609  0.00  0.00    +0.000 A 
ATOM     20  C   UNL     1       1.255   9.713  19.038  0.00  0.00    +0.000 A 
ENDBRANCH  13  14
ENDBRANCH  11  13
ENDBRANCH   8  10
ENDBRANCH   1   8
BRANCH   6  21
ATOM     21  C   UNL     1       6.009   4.352  18.050  0.00  0.00    +0.000 C 
BRANCH  21  22
ATOM     22  C   UNL     1       6.563   5.692  17.623  0.00  0.00    +0.000 A 
ATOM     23  C   UNL     1       7.346   6.604  18.378  0.00  0.00    +0.000 A 
ATOM     24  C   UNL     1       7.538   7.678  17.535  0.00  0.00    +0.000 A 
ATOM     25  O   UNL     1       6.929   7.419  16.347  0.00  0.00    +0.000 OA
ATOM     26  N   UNL     1       6.304   6.190  16.406  0.00  0.00    +0.000 NA
BRANCH  24  27
ATOM     27  C   UNL     1       8.196   9.005  17.654  0.00  0.00    +0.000 C 
BRANCH  27  28
ATOM     28  O   UNL     1       8.689   9.113  18.990  0.00  0.00    +0.000 OA
BRANCH  28  29
ATOM     29  C   UNL     1       9.351  10.271  19.302  0.00  0.00    +0.000 A 
ATOM     30  C   UNL     1       9.817  10.995  18.202  0.00  0.00    +0.000 A 
ATOM     31  C   UNL     1      10.500  12.199  18.379  0.00  0.00    +0.000 A 
ATOM     32  C   UNL     1      10.711  12.697  19.663  0.00  0.00    +0.000 A 
ATOM     33  C   UNL     1      10.231  11.990  20.765  0.00  0.00    +0.000 A 
ATOM     34  C   UNL     1       9.552  10.778  20.587  0.00  0.00    +0.000 A 
ENDBRANCH  28  29
ENDBRANCH  27  28
ENDBRANCH  24  27
ENDBRANCH  21  22
ENDBRANCH   6  21
TORSDOF 9
ENDMDL
MODEL 3
REMARK VINA RESULT:      -8.3      4.302      6.133
REMARK  Name = 
REMARK  9 active torsions:
REMARK  status: ('A' for Active; 'I' for Inactive)
REMARK    1  A    between atoms: C_2  and  C_3
REMARK    2  A    between atoms: C_3  and  C_4
REMARK    3  A    between atoms: C_9  and  C_10
REMARK    4  A    between atoms: C_10  and  C_11
REMARK    5  A    between atoms: C_13  and  C_14
REMARK    6  A    between atoms: C_14  and  O_15
REMARK    7  A    between atoms: O_15  and  C_16
REMARK    8  A    between atoms: N_24  and  C_25
REMARK    9  A    between atoms: C_25  and  C_26
REMARK                            x       y       z     vdW  Elec       q    Type
REMARK                         _______ _______ _______ _____ _____    ______ ____
ROOT
ATOM      1  C   UNL     1       3.633   5.509  18.112  0.00  0.00    +0.000 C 
ATOM      2  C   UNL     1       2.152   5.530  17.669  0.00  0.00    +0.000 C 
ATOM      3  C   UNL     1       1.531   4.137  17.756  0.00  0.00    +0.000 C 
ATOM      4  N   UNL     1       2.240   3.173  16.918  0.00  0.00    +0.000 NA
ATOM      5  C   UNL     1       3.677   3.115  17.205  0.00  0.00    +0.000 C 
ATOM      6  C   UNL     1       4.354   4.499  17.163  0.00  0.00    +0.000 C 
ATOM      7  H   UNL     1       2.124   3.443  15.939  0.00  0.00    +0.000 HD
ENDROOT
BRANCH   1   8
ATOM      8  C   UNL     1       3.741   5.245  19.638  0.00  0.00    +0.000 C 
BRANCH   8  10
ATOM      9  O   UNL     1       1.774   5.169  21.045  0.00  0.00    +0.000 OA
ATOM     10  C   UNL     1       2.562   5.862  20.405  0.00  0.00    +0.000 C 
ATOM     11  N   UNL     1       2.432   7.235  20.317  0.00  0.00    +0.000 N 
ATOM     12  H   UNL     1       3.210   7.789  19.984  0.00  0.00    +0.000 HD
BRANCH  11  13
ATOM     13  C   UNL     1       1.398   7.908  21.085  0.00  0.00    +0.000 C 
BRANCH  13  14
ATOM     14  C   UNL     1       0.798   9.096  20.372  0.00  0.00    +0.000 A 
ATOM     15  C   UNL     1       1.196   9.427  19.065  0.00  0.00    +0.000 A 
ATOM     16  C   UNL     1       0.604  10.502  18.390  0.00  0.00    +0.000 A 
ATOM     17  C   UNL     1      -0.377  11.254  19.022  0.00  0.00    +0.000 A 
ATOM     18  F   UNL     1      -0.944  12.280  18.372  0.00  0.00    +0.000 F 
ATOM     19  C   UNL     1      -0.782  10.950  20.315  0.00  0.00    +0.000 A 
ATOM     20  C   UNL     1      -0.196   9.875  20.990  0.00  0.00    +0.000 A 
ENDBRANCH  13  14
ENDBRANCH  11  13
ENDBRANCH   8  10
ENDBRANCH   1   8
BRANCH   6  21
ATOM     21  C   UNL     1       5.886   4.386  17.348  0.00  0.00    +0.000 C 
BRANCH  21  22
ATOM     22  C   UNL     1       6.599   5.714  17.466  0.00  0.00    +0.000 A 
ATOM     23  C   UNL     1       7.564   6.115  18.427  0.00  0.00    +0.000 A 
ATOM     24  C   UNL     1       7.848   7.426  18.107  0.00  0.00    +0.000 A 
ATOM     25  O   UNL     1       7.118   7.780  17.016  0.00  0.00    +0.000 OA
ATOM     26  N   UNL     1       6.324   6.721  16.626  0.00  0.00    +0.000 NA
BRANCH  24  27
ATOM     27  C   UNL     1       8.703   8.490  18.694  0.00  0.00    +0.000 C 
BRANCH  27  28
ATOM     28  O   UNL     1       8.297   9.728  18.109  0.00  0.00    +0.000 OA
BRANCH  28  29
ATOM     29  C   UNL     1       8.974  10.845  18.520  0.00  0.00    +0.000 A 
ATOM     30  C   UNL     1       9.568  10.742  19.780  0.00  0.00    +0.000 A 
ATOM     31  C   UNL     1      10.297  11.806  20.314  0.00  0.00    +0.000 A 
ATOM     32  C   UNL     1      10.451  12.981  19.581  0.00  0.00    +0.000 A 
ATOM     33  C   UNL     1       9.879  13.084  18.314  0.00  0.00    +0.000 A 
ATOM     34  C   UNL     1       9.141  12.019  17.782  0.00  0.00    +0.000 A 
ENDBRANCH  28  29
ENDBRANCH  27  28
ENDBRANCH  24  27
ENDBRANCH  21  22
ENDBRANCH   6  21
TORSDOF 9
ENDMDL
MODEL 4
REMARK VINA RESULT:      -8.2      3.577     10.030
REMARK  Name = 
REMARK  9 active torsions:
REMARK  status: ('A' for Active; 'I' for Inactive)
REMARK    1  A    between atoms: C_2  and  C_3
REMARK    2  A    between atoms: C_3  and  C_4
REMARK    3  A    between atoms: C_9  and  C_10
REMARK    4  A    between atoms: C_10  and  C_11
REMARK    5  A    between atoms: C_13  and  C_14
REMARK    6  A    between atoms: C_14  and  O_15
REMARK    7  A    between atoms: O_15  and  C_16
REMARK    8  A    between atoms: N_24  and  C_25
REMARK    9  A    between atoms: C_25  and  C_26
REMARK                            x       y       z     vdW  Elec       q    Type
REMARK                         _______ _______ _______ _____ _____    ______ ____
ROOT
ATOM      1  C   UNL     1       3.107   4.649  20.310  0.00  0.00    +0.000 C 
ATOM      2  C   UNL     1       2.294   3.984  21.445  0.00  0.00    +0.000 C 
ATOM      3  C   UNL     1       1.459   2.820  20.916  0.00  0.00    +0.000 C 
ATOM      4  N   UNL     1       0.521   3.251  19.881  0.00  0.00    +0.000 NA
ATOM      5  C   UNL     1       1.176   3.958  18.776  0.00  0.00    +0.000 C 
ATOM      6  C   UNL     1       2.061   5.127  19.252  0.00  0.00    +0.000 C 
ATOM      7  H   UNL     1      -0.162   3.884  20.301  0.00  0.00    +0.000 HD
ENDROOT
BRANCH   1   8
ATOM      8  C   UNL     1       4.228   3.696  19.814  0.00  0.00    +0.000 C 
BRANCH   8  10
ATOM      9  O   UNL     1       5.884   5.451  19.645  0.00  0.00    +0.000 OA
ATOM     10  C   UNL     1       5.363   4.468  19.124  0.00  0.00    +0.000 C 
ATOM     11  N   UNL     1       5.748   4.001  17.881  0.00  0.00    +0.000 N 
ATOM     12  H   UNL     1       5.468   3.074  17.588  0.00  0.00    +0.000 HD
BRANCH  11  13
ATOM     13  C   UNL     1       6.874   4.619  17.201  0.00  0.00    +0.000 C 
BRANCH  13  14
ATOM     14  C   UNL     1       6.794   4.519  15.697  0.00  0.00    +0.000 A 
ATOM     15  C   UNL     1       7.700   5.218  14.880  0.00  0.00    +0.000 A 
ATOM     16  C   UNL     1       7.651   5.086  13.486  0.00  0.00    +0.000 A 
ATOM     17  C   UNL     1       6.693   4.267  12.906  0.00  0.00    +0.000 A 
ATOM     18  F   UNL     1       6.652   4.139  11.572  0.00  0.00    +0.000 F 
ATOM     19  C   UNL     1       5.784   3.570  13.692  0.00  0.00    +0.000 A 
ATOM     20  C   UNL     1       5.832   3.697  15.084  0.00  0.00    +0.000 A 
ENDBRANCH  13  14
ENDBRANCH  11  13
ENDBRANCH   8  10
ENDBRANCH   1   8
BRANCH   6  21
ATOM     21  C   UNL     1       2.636   5.924  18.058  0.00  0.00    +0.000 C 
BRANCH  21  22
ATOM     22  C   UNL     1       2.352   7.408  18.104  0.00  0.00    +0.000 A 
ATOM     23  C   UNL     1       1.519   8.119  19.008  0.00  0.00    +0.000 A 
ATOM     24  C   UNL     1       1.578   9.428  18.578  0.00  0.00    +0.000 A 
ATOM     25  O   UNL     1       2.406   9.500  17.502  0.00  0.00    +0.000 OA
ATOM     26  N   UNL     1       2.874   8.240  17.192  0.00  0.00    +0.000 NA
BRANCH  24  27
ATOM     27  C   UNL     1       0.931  10.700  18.991  0.00  0.00    +0.000 C 
BRANCH  27  28
ATOM     28  O   UNL     1       1.310  10.946  20.345  0.00  0.00    +0.000 OA
BRANCH  28  29
ATOM     29  C   UNL     1       0.287  11.112  21.241  0.00  0.00    +0.000 A 
ATOM     30  C   UNL     1       0.174  10.101  22.199  0.00  0.00    +0.000 A 
ATOM     31  C   UNL     1      -0.820  10.153  23.177  0.00  0.00    +0.000 A 
ATOM     32  C   UNL     1      -1.704  11.229  23.214  0.00  0.00    +0.000 A 
ATOM     33  C   UNL     1      -1.586  12.253  22.274  0.00  0.00    +0.000 A 
ATOM     34  C   UNL     1      -0.592  12.196  21.288  0.00  0.00    +0.000 A 
ENDBRANCH  28  29
ENDBRANCH  27  28
ENDBRANCH  24  27
ENDBRANCH  21  22
ENDBRANCH   6  21
TORSDOF 9
ENDMDL
MODEL 5
REMARK VINA RESULT:      -8.2      1.835      2.244
REMARK  Name = 
REMARK  9 active torsions:
REMARK  status: ('A' for Active; 'I' for Inactive)
REMARK    1  A    between atoms: C_2  and  C_3
REMARK    2  A    between atoms: C_3  and  C_4
REMARK    3  A    between atoms: C_9  and  C_10
REMARK    4  A    between atoms: C_10  and  C_11
REMARK    5  A    between atoms: C_13  and  C_14
REMARK    6  A    between atoms: C_14  and  O_15
REMARK    7  A    between atoms: O_15  and  C_16
REMARK    8  A    between atoms: N_24  and  C_25
REMARK    9  A    between atoms: C_25  and  C_26
REMARK                            x       y       z     vdW  Elec       q    Type
REMARK                         _______ _______ _______ _____ _____    ______ ____
ROOT
ATOM      1  C   UNL     1       2.543   5.060  18.503  0.00  0.00    +0.000 C 
ATOM      2  C   UNL     1       1.350   4.165  18.097  0.00  0.00    +0.000 C 
ATOM      3  C   UNL     1       1.189   2.990  19.059  0.00  0.00    +0.000 C 
ATOM      4  N   UNL     1       2.387   2.155  19.102  0.00  0.00    +0.000 NA
ATOM      5  C   UNL     1       3.602   2.914  19.415  0.00  0.00    +0.000 C 
ATOM      6  C   UNL     1       3.801   4.134  18.494  0.00  0.00    +0.000 C 
ATOM      7  H   UNL     1       2.515   1.718  18.186  0.00  0.00    +0.000 HD
ENDROOT
BRANCH   1   8
ATOM      8  C   UNL     1       2.231   5.815  19.824  0.00  0.00    +0.000 C 
BRANCH   8  10
ATOM      9  O   UNL     1       2.031   8.116  20.544  0.00  0.00    +0.000 OA
ATOM     10  C   UNL     1       2.161   7.334  19.605  0.00  0.00    +0.000 C 
ATOM     11  N   UNL     1       2.235   7.763  18.294  0.00  0.00    +0.000 N 
ATOM     12  H   UNL     1       2.568   7.128  17.579  0.00  0.00    +0.000 HD
BRANCH  11  13
ATOM     13  C   UNL     1       2.267   9.187  18.006  0.00  0.00    +0.000 C 
BRANCH  13  14
ATOM     14  C   UNL     1       0.941   9.874  18.229  0.00  0.00    +0.000 A 
ATOM     15  C   UNL     1       0.845  11.000  19.065  0.00  0.00    +0.000 A 
ATOM     16  C   UNL     1      -0.379  11.661  19.232  0.00  0.00    +0.000 A 
ATOM     17  C   UNL     1      -1.509  11.193  18.576  0.00  0.00    +0.000 A 
ATOM     18  F   UNL     1      -2.677  11.830  18.735  0.00  0.00    +0.000 F 
ATOM     19  C   UNL     1      -1.439  10.079  17.750  0.00  0.00    +0.000 A 
ATOM     20  C   UNL     1      -0.219   9.419  17.578  0.00  0.00    +0.000 A 
ENDBRANCH  13  14
ENDBRANCH  11  13
ENDBRANCH   8  10
ENDBRANCH   1   8
BRANCH   6  21
ATOM     21  C   UNL     1       5.150   4.839  18.772  0.00  0.00    +0.000 C 
BRANCH  21  22
ATOM     22  C   UNL     1       6.119   4.809  17.612  0.00  0.00    +0.000 A 
ATOM     23  C   UNL     1       5.868   5.100  16.245  0.00  0.00    +0.000 A 
ATOM     24  C   UNL     1       7.074   4.873  15.615  0.00  0.00    +0.000 A 
ATOM     25  O   UNL     1       7.991   4.492  16.544  0.00  0.00    +0.000 OA
ATOM     26  N   UNL     1       7.393   4.431  17.786  0.00  0.00    +0.000 NA
BRANCH  24  27
ATOM     27  C   UNL     1       7.549   4.914  14.208  0.00  0.00    +0.000 C 
BRANCH  27  28
ATOM     28  O   UNL     1       6.401   4.769  13.370  0.00  0.00    +0.000 OA
BRANCH  28  29
ATOM     29  C   UNL     1       6.389   3.680  12.539  0.00  0.00    +0.000 A 
ATOM     30  C   UNL     1       5.117   3.202  12.215  0.00  0.00    +0.000 A 
ATOM     31  C   UNL     1       4.962   2.103  11.369  0.00  0.00    +0.000 A 
ATOM     32  C   UNL     1       6.084   1.480  10.826  0.00  0.00    +0.000 A 
ATOM     33  C   UNL     1       7.356   1.962  11.129  0.00  0.00    +0.000 A 
ATOM     34  C   UNL     1       7.511   3.061  11.985  0.00  0.00    +0.000 A 
ENDBRANCH  28  29
ENDBRANCH  27  28
ENDBRANCH  24  27
ENDBRANCH  21  22
ENDBRANCH   6  21
TORSDOF 9
ENDMDL
MODEL 6
REMARK VINA RESULT:      -8.1      3.465      5.271
REMARK  Name = 
REMARK  9 active torsions:
REMARK  status: ('A' for Active; 'I' for Inactive)
REMARK    1  A    between atoms: C_2  and  C_3
REMARK    2  A    between atoms: C_3  and  C_4
REMARK    3  A    between atoms: C_9  and  C_10
REMARK    4  A    between atoms: C_10  and  C_11
REMARK    5  A    between atoms: C_13  and  C_14
REMARK    6  A    between atoms: C_14  and  O_15
REMARK    7  A    between atoms: O_15  and  C_16
REMARK    8  A    between atoms: N_24  and  C_25
REMARK    9  A    between atoms: C_25  and  C_26
REMARK                            x       y       z     vdW  Elec       q    Type
REMARK                         _______ _______ _______ _____ _____    ______ ____
ROOT
ATOM      1  C   UNL     1       2.812   4.841  17.529  0.00  0.00    +0.000 C 
ATOM      2  C   UNL     1       1.504   4.216  18.066  0.00  0.00    +0.000 C 
ATOM      3  C   UNL     1       1.786   3.252  19.216  0.00  0.00    +0.000 C 
ATOM      4  N   UNL     1       2.672   2.164  18.809  0.00  0.00    +0.000 NA
ATOM      5  C   UNL     1       3.926   2.640  18.218  0.00  0.00    +0.000 C 
ATOM      6  C   UNL     1       3.706   3.644  17.069  0.00  0.00    +0.000 C 
ATOM      7  H   UNL     1       2.190   1.594  18.111  0.00  0.00    +0.000 HD
ENDROOT
BRANCH   1   8
ATOM      8  C   UNL     1       3.420   5.815  18.574  0.00  0.00    +0.000 C 
BRANCH   8  10
ATOM      9  O   UNL     1       3.336   7.932  17.407  0.00  0.00    +0.000 OA
ATOM     10  C   UNL     1       2.937   7.256  18.352  0.00  0.00    +0.000 C 
ATOM     11  N   UNL     1       2.044   7.749  19.285  0.00  0.00    +0.000 N 
ATOM     12  H   UNL     1       1.566   7.108  19.905  0.00  0.00    +0.000 HD
BRANCH  11  13
ATOM     13  C   UNL     1       1.470   9.071  19.098  0.00  0.00    +0.000 C 
BRANCH  13  14
ATOM     14  C   UNL     1       0.665   9.548  20.284  0.00  0.00    +0.000 A 
ATOM     15  C   UNL     1       0.669   8.830  21.492  0.00  0.00    +0.000 A 
ATOM     16  C   UNL     1      -0.043   9.301  22.603  0.00  0.00    +0.000 A 
ATOM     17  C   UNL     1      -0.767  10.480  22.507  0.00  0.00    +0.000 A 
ATOM     18  F   UNL     1      -1.444  10.930  23.573  0.00  0.00    +0.000 F 
ATOM     19  C   UNL     1      -0.791  11.204  21.321  0.00  0.00    +0.000 A 
ATOM     20  C   UNL     1      -0.079  10.738  20.211  0.00  0.00    +0.000 A 
ENDBRANCH  13  14
ENDBRANCH  11  13
ENDBRANCH   8  10
ENDBRANCH   1   8
BRANCH   6  21
ATOM     21  C   UNL     1       5.041   4.030  16.391  0.00  0.00    +0.000 C 
BRANCH  21  22
ATOM     22  C   UNL     1       5.982   4.820  17.272  0.00  0.00    +0.000 A 
ATOM     23  C   UNL     1       6.533   6.109  17.044  0.00  0.00    +0.000 A 
ATOM     24  C   UNL     1       7.355   6.332  18.128  0.00  0.00    +0.000 A 
ATOM     25  O   UNL     1       7.286   5.260  18.960  0.00  0.00    +0.000 OA
ATOM     26  N   UNL     1       6.447   4.307  18.420  0.00  0.00    +0.000 NA
BRANCH  24  27
ATOM     27  C   UNL     1       8.282   7.418  18.538  0.00  0.00    +0.000 C 
BRANCH  27  28
ATOM     28  O   UNL     1       7.867   8.606  17.863  0.00  0.00    +0.000 OA
BRANCH  28  29
ATOM     29  C   UNL     1       8.490   9.767  18.236  0.00  0.00    +0.000 A 
ATOM     30  C   UNL     1       8.084  10.904  17.534  0.00  0.00    +0.000 A 
ATOM     31  C   UNL     1       8.634  12.154  17.823  0.00  0.00    +0.000 A 
ATOM     32  C   UNL     1       9.587  12.279  18.831  0.00  0.00    +0.000 A 
ATOM     33  C   UNL     1       9.984  11.152  19.550  0.00  0.00    +0.000 A 
ATOM     34  C   UNL     1       9.437   9.896  19.254  0.00  0.00    +0.000 A 
ENDBRANCH  28  29
ENDBRANCH  27  28
ENDBRANCH  24  27
ENDBRANCH  21  22
ENDBRANCH   6  21
TORSDOF 9
ENDMDL
MODEL 7
REMARK VINA RESULT:      -8.0      3.876      7.122
REMARK  Name = 
REMARK  9 active torsions:
REMARK  status: ('A' for Active; 'I' for Inactive)
REMARK    1  A    between atoms: C_2  and  C_3
REMARK    2  A    between atoms: C_3  and  C_4
REMARK    3  A    between atoms: C_9  and  C_10
REMARK    4  A    between atoms: C_10  and  C_11
REMARK    5  A    between atoms: C_13  and  C_14
REMARK    6  A    between atoms: C_14  and  O_15
REMARK    7  A    between atoms: O_15  and  C_16
REMARK    8  A    between atoms: N_24  and  C_25
REMARK    9  A    between atoms: C_25  and  C_26
REMARK                            x       y       z     vdW  Elec       q    Type
REMARK                         _______ _______ _______ _____ _____    ______ ____
ROOT
ATOM      1  C   UNL     1      -0.444  11.407  19.145  0.00  0.00    +0.000 C 
ATOM      2  C   UNL     1      -0.517  12.494  20.241  0.00  0.00    +0.000 C 
ATOM      3  C   UNL     1       0.326  13.711  19.868  0.00  0.00    +0.000 C 
ATOM      4  N   UNL     1       1.731  13.360  19.674  0.00  0.00    +0.000 NA
ATOM      5  C   UNL     1       1.921  12.283  18.697  0.00  0.00    +0.000 C 
ATOM      6  C   UNL     1       1.068  11.037  19.004  0.00  0.00    +0.000 C 
ATOM      7  H   UNL     1       2.116  13.047  20.568  0.00  0.00    +0.000 HD
ENDROOT
BRANCH   1   8
ATOM      8  C   UNL     1      -1.177  11.879  17.860  0.00  0.00    +0.000 C 
BRANCH   8  10
ATOM      9  O   UNL     1      -2.576   9.910  17.720  0.00  0.00    +0.000 OA
ATOM     10  C   UNL     1      -2.507  11.135  17.661  0.00  0.00    +0.000 C 
ATOM     11  N   UNL     1      -3.611  11.923  17.398  0.00  0.00    +0.000 N 
ATOM     12  H   UNL     1      -3.569  12.917  17.582  0.00  0.00    +0.000 HD
BRANCH  11  13
ATOM     13  C   UNL     1      -4.922  11.306  17.287  0.00  0.00    +0.000 C 
BRANCH  13  14
ATOM     14  C   UNL     1      -5.723  11.367  18.566  0.00  0.00    +0.000 A 
ATOM     15  C   UNL     1      -6.715  10.409  18.840  0.00  0.00    +0.000 A 
ATOM     16  C   UNL     1      -7.425  10.443  20.048  0.00  0.00    +0.000 A 
ATOM     17  C   UNL     1      -7.153  11.437  20.977  0.00  0.00    +0.000 A 
ATOM     18  F   UNL     1      -7.830  11.465  22.133  0.00  0.00    +0.000 F 
ATOM     19  C   UNL     1      -6.181  12.397  20.726  0.00  0.00    +0.000 A 
ATOM     20  C   UNL     1      -5.469  12.365  19.523  0.00  0.00    +0.000 A 
ENDBRANCH  13  14
ENDBRANCH  11  13
ENDBRANCH   8  10
ENDBRANCH   1   8
BRANCH   6  21
ATOM     21  C   UNL     1       1.384   9.880  18.027  0.00  0.00    +0.000 C 
BRANCH  21  22
ATOM     22  C   UNL     1       1.850   8.608  18.697  0.00  0.00    +0.000 A 
ATOM     23  C   UNL     1       2.591   7.535  18.136  0.00  0.00    +0.000 A 
ATOM     24  C   UNL     1       2.703   6.617  19.159  0.00  0.00    +0.000 A 
ATOM     25  O   UNL     1       2.088   7.115  20.265  0.00  0.00    +0.000 OA
ATOM     26  N   UNL     1       1.538   8.347  19.974  0.00  0.00    +0.000 NA
BRANCH  24  27
ATOM     27  C   UNL     1       3.283   5.256  19.292  0.00  0.00    +0.000 C 
BRANCH  27  28
ATOM     28  O   UNL     1       4.693   5.412  19.448  0.00  0.00    +0.000 OA
BRANCH  28  29
ATOM     29  C   UNL     1       5.445   5.313  18.307  0.00  0.00    +0.000 A 
ATOM     30  C   UNL     1       5.053   4.297  17.431  0.00  0.00    +0.000 A 
ATOM     31  C   UNL     1       5.730   4.094  16.227  0.00  0.00    +0.000 A 
ATOM     32  C   UNL     1       6.798   4.918  15.881  0.00  0.00    +0.000 A 
ATOM     33  C   UNL     1       7.183   5.947  16.740  0.00  0.00    +0.000 A 
ATOM     34  C   UNL     1       6.509   6.145  17.952  0.00  0.00    +0.000 A 
ENDBRANCH  28  29
ENDBRANCH  27  28
ENDBRANCH  24  27
ENDBRANCH  21  22
ENDBRANCH   6  21
TORSDOF 9
ENDMDL
MODEL 8
REMARK VINA RESULT:      -8.0      4.850      9.419
REMARK  Name = 
REMARK  9 active torsions:
REMARK  status: ('A' for Active; 'I' for Inactive)
REMARK    1  A    between atoms: C_2  and  C_3
REMARK    2  A    between atoms: C_3  and  C_4
REMARK    3  A    between atoms: C_9  and  C_10
REMARK    4  A    between atoms: C_10  and  C_11
REMARK    5  A    between atoms: C_13  and  C_14
REMARK    6  A    between atoms: C_14  and  O_15
REMARK    7  A    between atoms: O_15  and  C_16
REMARK    8  A    between atoms: N_24  and  C_25
REMARK    9  A    between atoms: C_25  and  C_26
REMARK                            x       y       z     vdW  Elec       q    Type
REMARK                         _______ _______ _______ _____ _____    ______ ____
ROOT
ATOM      1  C   UNL     1       7.014   5.218  16.976  0.00  0.00    +0.000 C 
ATOM      2  C   UNL     1       7.210   4.738  15.520  0.00  0.00    +0.000 C 
ATOM      3  C   UNL     1       5.933   4.921  14.702  0.00  0.00    +0.000 C 
ATOM      4  N   UNL     1       4.812   4.179  15.275  0.00  0.00    +0.000 NA
ATOM      5  C   UNL     1       4.571   4.505  16.684  0.00  0.00    +0.000 C 
ATOM      6  C   UNL     1       5.836   4.370  17.555  0.00  0.00    +0.000 C 
ATOM      7  H   UNL     1       5.014   3.179  15.212  0.00  0.00    +0.000 HD
ENDROOT
BRANCH   1   8
ATOM      8  C   UNL     1       6.863   6.763  17.024  0.00  0.00    +0.000 C 
BRANCH   8  10
ATOM      9  O   UNL     1       8.304   6.725  18.967  0.00  0.00    +0.000 OA
ATOM     10  C   UNL     1       7.803   7.391  18.064  0.00  0.00    +0.000 C 
ATOM     11  N   UNL     1       8.035   8.747  17.933  0.00  0.00    +0.000 N 
ATOM     12  H   UNL     1       7.801   9.211  17.065  0.00  0.00    +0.000 HD
BRANCH  11  13
ATOM     13  C   UNL     1       8.983   9.400  18.821  0.00  0.00    +0.000 C 
BRANCH  13  14
ATOM     14  C   UNL     1       9.335  10.805  18.392  0.00  0.00    +0.000 A 
ATOM     15  C   UNL     1       8.367  11.645  17.813  0.00  0.00    +0.000 A 
ATOM     16  C   UNL     1       8.686  12.962  17.459  0.00  0.00    +0.000 A 
ATOM     17  C   UNL     1       9.972  13.439  17.672  0.00  0.00    +0.000 A 
ATOM     18  F   UNL     1      10.273  14.701  17.337  0.00  0.00    +0.000 F 
ATOM     19  C   UNL     1      10.946  12.627  18.238  0.00  0.00    +0.000 A 
ATOM     20  C   UNL     1      10.630  11.312  18.596  0.00  0.00    +0.000 A 
ENDBRANCH  13  14
ENDBRANCH  11  13
ENDBRANCH   8  10
ENDBRANCH   1   8
BRANCH   6  21
ATOM     21  C   UNL     1       5.520   4.602  19.052  0.00  0.00    +0.000 C 
BRANCH  21  22
ATOM     22  C   UNL     1       4.221   5.332  19.308  0.00  0.00    +0.000 A 
ATOM     23  C   UNL     1       3.900   6.686  19.030  0.00  0.00    +0.000 A 
ATOM     24  C   UNL     1       2.614   6.843  19.503  0.00  0.00    +0.000 A 
ATOM     25  O   UNL     1       2.186   5.657  20.011  0.00  0.00    +0.000 OA
ATOM     26  N   UNL     1       3.192   4.718  19.909  0.00  0.00    +0.000 NA
BRANCH  24  27
ATOM     27  C   UNL     1       1.664   7.979  19.608  0.00  0.00    +0.000 C 
BRANCH  27  28
ATOM     28  O   UNL     1       1.186   8.006  20.954  0.00  0.00    +0.000 OA
BRANCH  28  29
ATOM     29  C   UNL     1       0.453   9.106  21.317  0.00  0.00    +0.000 A 
ATOM     30  C   UNL     1       0.052   9.129  22.654  0.00  0.00    +0.000 A 
ATOM     31  C   UNL     1      -0.692  10.198  23.157  0.00  0.00    +0.000 A 
ATOM     32  C   UNL     1      -1.029  11.263  22.325  0.00  0.00    +0.000 A 
ATOM     33  C   UNL     1      -0.615  11.257  20.994  0.00  0.00    +0.000 A 
ATOM     34  C   UNL     1       0.125  10.181  20.488  0.00  0.00    +0.000 A 
ENDBRANCH  28  29
ENDBRANCH  27  28
ENDBRANCH  24  27
ENDBRANCH  21  22
ENDBRANCH   6  21
TORSDOF 9
ENDMDL
MODEL 9
REMARK VINA RESULT:      -8.0      1.803      2.381
REMARK  Name = 
REMARK  9 active torsions:
REMARK  status: ('A' for Active; 'I' for Inactive)
REMARK    1  A    between atoms: C_2  and  C_3
REMARK    2  A    between atoms: C_3  and  C_4
REMARK    3  A    between atoms: C_9  and  C_10
REMARK    4  A    between atoms: C_10  and  C_11
REMARK    5  A    between atoms: C_13  and  C_14
REMARK    6  A    between atoms: C_14  and  O_15
REMARK    7  A    between atoms: O_15  and  C_16
REMARK    8  A    between atoms: N_24  and  C_25
REMARK    9  A    between atoms: C_25  and  C_26
REMARK                            x       y       z     vdW  Elec       q    Type
REMARK                         _______ _______ _______ _____ _____    ______ ____
ROOT
ATOM      1  C   UNL     1       3.235   4.896  18.283  0.00  0.00    +0.000 C 
ATOM      2  C   UNL     1       1.782   4.622  17.833  0.00  0.00    +0.000 C 
ATOM      3  C   UNL     1       1.356   3.198  18.184  0.00  0.00    +0.000 C 
ATOM      4  N   UNL     1       2.219   2.202  17.554  0.00  0.00    +0.000 NA
ATOM      5  C   UNL     1       3.639   2.403  17.858  0.00  0.00    +0.000 C 
ATOM      6  C   UNL     1       4.121   3.836  17.554  0.00  0.00    +0.000 C 
ATOM      7  H   UNL     1       2.101   2.260  16.540  0.00  0.00    +0.000 HD
ENDROOT
BRANCH   1   8
ATOM      8  C   UNL     1       3.324   4.946  19.832  0.00  0.00    +0.000 C 
BRANCH   8  10
ATOM      9  O   UNL     1       1.191   5.147  20.956  0.00  0.00    +0.000 OA
ATOM     10  C   UNL     1       2.147   5.722  20.442  0.00  0.00    +0.000 C 
ATOM     11  N   UNL     1       2.222   7.100  20.364  0.00  0.00    +0.000 N 
ATOM     12  H   UNL     1       3.108   7.540  20.150  0.00  0.00    +0.000 HD
BRANCH  11  13
ATOM     13  C   UNL     1       1.195   7.911  20.996  0.00  0.00    +0.000 C 
BRANCH  13  14
ATOM     14  C   UNL     1       0.916   9.203  20.266  0.00  0.00    +0.000 A 
ATOM     15  C   UNL     1       1.426   9.424  18.975  0.00  0.00    +0.000 A 
ATOM     16  C   UNL     1       1.127  10.605  18.283  0.00  0.00    +0.000 A 
ATOM     17  C   UNL     1       0.329  11.569  18.882  0.00  0.00    +0.000 A 
ATOM     18  F   UNL     1       0.042  12.696  18.216  0.00  0.00    +0.000 F 
ATOM     19  C   UNL     1      -0.181  11.376  20.159  0.00  0.00    +0.000 A 
ATOM     20  C   UNL     1       0.113  10.197  20.851  0.00  0.00    +0.000 A 
ENDBRANCH  13  14
ENDBRANCH  11  13
ENDBRANCH   8  10
ENDBRANCH   1   8
BRANCH   6  21
ATOM     21  C   UNL     1       5.646   3.978  17.769  0.00  0.00    +0.000 C 
BRANCH  21  22
ATOM     22  C   UNL     1       6.386   4.586  16.600  0.00  0.00    +0.000 A 
ATOM     23  C   UNL     1       6.449   4.124  15.259  0.00  0.00    +0.000 A 
ATOM     24  C   UNL     1       7.291   5.013  14.624  0.00  0.00    +0.000 A 
ATOM     25  O   UNL     1       7.689   5.957  15.520  0.00  0.00    +0.000 OA
ATOM     26  N   UNL     1       7.143   5.681  16.757  0.00  0.00    +0.000 NA
BRANCH  24  27
ATOM     27  C   UNL     1       7.859   5.131  13.257  0.00  0.00    +0.000 C 
BRANCH  27  28
ATOM     28  O   UNL     1       6.792   4.901  12.336  0.00  0.00    +0.000 OA
BRANCH  28  29
ATOM     29  C   UNL     1       6.632   3.611  11.902  0.00  0.00    +0.000 A 
ATOM     30  C   UNL     1       5.305   3.186  11.802  0.00  0.00    +0.000 A 
ATOM     31  C   UNL     1       5.001   1.897  11.363  0.00  0.00    +0.000 A 
ATOM     32  C   UNL     1       6.025   1.024  11.006  0.00  0.00    +0.000 A 
ATOM     33  C   UNL     1       7.352   1.446  11.084  0.00  0.00    +0.000 A 
ATOM     34  C   UNL     1       7.657   2.738  11.532  0.00  0.00    +0.000 A 
ENDBRANCH  28  29
ENDBRANCH  27  28
ENDBRANCH  24  27
ENDBRANCH  21  22
ENDBRANCH   6  21
TORSDOF 9
ENDMDL
