MODEL 1
REMARK VINA RESULT:      -8.1      0.000      0.000
REMARK  Name = 
REMARK  15 active torsions:
REMARK  status: ('A' for Active; 'I' for Inactive)
REMARK    1  A    between atoms: C_1  and  N_2
REMARK    2  A    between atoms: N_2  and  C_3
REMARK    3  A    between atoms: N_2  and  C_4
REMARK    4  A    between atoms: C_4  and  C_5
REMARK    5  A    between atoms: C_4  and  C_6
REMARK    6  A    between atoms: C_4  and  C_7
REMARK    7  A    between atoms: C_7  and  C_8
REMARK    8  A    between atoms: C_7  and  N_26
REMARK    9  A    between atoms: C_13  and  O_14
REMARK   10  A    between atoms: O_14  and  C_15
REMARK   11  A    between atoms: C_15  and  C_16
REMARK   12  A    between atoms: C_16  and  C_17
REMARK   13  A    between atoms: C_16  and  C_18
REMARK   14  A    between atoms: C_16  and  C_19
REMARK   15  A    between atoms: C_19  and  O_21
REMARK                            x       y       z     vdW  Elec       q    Type
REMARK                         _______ _______ _______ _____ _____    ______ ____
ROOT
ATOM      1  C   UNL     1       3.295   6.398  18.228  0.00  0.00    +0.000 A 
ATOM      2  C   UNL     1       3.194   7.519  17.391  0.00  0.00    +0.000 A 
ATOM      3  C   UNL     1       2.423   8.636  17.737  0.00  0.00    +0.000 A 
ATOM      4  C   UNL     1       1.775   8.700  18.977  0.00  0.00    +0.000 A 
ATOM      5  C   UNL     1       0.928   9.753  19.373  0.00  0.00    +0.000 A 
ATOM      6  C   UNL     1       0.330   9.752  20.644  0.00  0.00    +0.000 A 
ATOM      7  C   UNL     1       0.580   8.704  21.524  0.00  0.00    +0.000 A 
ATOM      8  C   UNL     1       1.391   7.651  21.142  0.00  0.00    +0.000 A 
ATOM      9  C   UNL     1       1.972   7.628  19.876  0.00  0.00    +0.000 A 
ATOM     10  C   UNL     1       2.710   6.508  19.493  0.00  0.00    +0.000 A 
ENDROOT
BRANCH   1  11
ATOM     11  C   UNL     1       3.867   5.050  17.768  0.00  0.00    +0.000 C 
BRANCH  11  12
ATOM     12  N   UNL     1       5.358   5.073  17.845  0.00  0.00    +0.000 N 
ATOM     13  C   UNL     1       6.160   5.342  18.926  0.00  0.00    +0.000 A 
ATOM     14  C   UNL     1       7.448   5.149  18.516  0.00  0.00    +0.000 A 
ATOM     15  N   UNL     1       7.472   4.766  17.202  0.00  0.00    +0.000 NA
ATOM     16  C   UNL     1       6.218   4.743  16.822  0.00  0.00    +0.000 A 
ENDBRANCH  11  12
BRANCH  11  17
ATOM     17  C   UNL     1       3.194   3.679  18.321  0.00  0.00    +0.000 C 
ATOM     18  C   UNL     1       3.713   2.466  17.491  0.00  0.00    +0.000 C 
ATOM     19  C   UNL     1       1.671   3.802  18.057  0.00  0.00    +0.000 C 
BRANCH  17  21
ATOM     20  C   UNL     1       2.187   3.062  20.551  0.00  0.00    +0.000 C 
ATOM     21  N   UNL     1       3.408   3.393  19.806  0.00  0.00    +0.000 NA
ATOM     22  C   UNL     1       4.364   2.298  20.095  0.00  0.00    +0.000 C 
ENDBRANCH  17  21
ENDBRANCH  11  17
ENDBRANCH   1  11
BRANCH   6  23
ATOM     23  O   UNL     1      -0.475  10.821  20.929  0.00  0.00    +0.000 OA
BRANCH  23  24
ATOM     24  C   UNL     1      -0.080  12.066  20.333  0.00  0.00    +0.000 C 
BRANCH  24  25
ATOM     25  C   UNL     1      -1.317  12.839  19.845  0.00  0.00    +0.000 C 
ATOM     26  C   UNL     1      -2.462  12.644  20.849  0.00  0.00    +0.000 C 
ATOM     27  C   UNL     1      -0.959  14.326  19.708  0.00  0.00    +0.000 C 
BRANCH  25  28
ATOM     28  C   UNL     1      -1.701  12.260  18.485  0.00  0.00    +0.000 C 
ATOM     29  O   UNL     1      -2.512  11.357  18.321  0.00  0.00    +0.000 OA
BRANCH  28  30
ATOM     30  O   UNL     1      -1.068  12.826  17.433  0.00  0.00    +0.000 OA
ATOM     31  H   UNL     1      -1.302  13.755  17.259  0.00  0.00    +0.000 HD
ENDBRANCH  28  30
ENDBRANCH  25  28
ENDBRANCH  24  25
ENDBRANCH  23  24
ENDBRANCH   6  23
TORSDOF 9
ENDMDL
MODEL 2
REMARK VINA RESULT:      -8.1      1.165      1.423
REMARK  Name = 
REMARK  15 active torsions:
REMARK  status: ('A' for Active; 'I' for Inactive)
REMARK    1  A    between atoms: C_1  and  N_2
REMARK    2  A    between atoms: N_2  and  C_3
REMARK    3  A    between atoms: N_2  and  C_4
REMARK    4  A    between atoms: C_4  and  C_5
REMARK    5  A    between atoms: C_4  and  C_6
REMARK    6  A    between atoms: C_4  and  C_7
REMARK    7  A    between atoms: C_7  and  C_8
REMARK    8  A    between atoms: C_7  and  N_26
REMARK    9  A    between atoms: C_13  and  O_14
REMARK   10  A    between atoms: O_14  and  C_15
REMARK   11  A    between atoms: C_15  and  C_16
REMARK   12  A    between atoms: C_16  and  C_17
REMARK   13  A    between atoms: C_16  and  C_18
REMARK   14  A    between atoms: C_16  and  C_19
REMARK   15  A    between atoms: C_19  and  O_21
REMARK                            x       y       z     vdW  Elec       q    Type
REMARK                         _______ _______ _______ _____ _____    ______ ____
ROOT
ATOM      1  C   UNL     1       3.271   6.338  18.339  0.00  0.00    +0.000 A 
ATOM      2  C   UNL     1       3.255   7.402  17.425  0.00  0.00    +0.000 A 
ATOM      3  C   UNL     1       2.501   8.561  17.649  0.00  0.00    +0.000 A 
ATOM      4  C   UNL     1       1.782   8.726  18.840  0.00  0.00    +0.000 A 
ATOM      5  C   UNL     1       0.947   9.826  19.114  0.00  0.00    +0.000 A 
ATOM      6  C   UNL     1       0.275   9.927  20.343  0.00  0.00    +0.000 A 
ATOM      7  C   UNL     1       0.439   8.935  21.304  0.00  0.00    +0.000 A 
ATOM      8  C   UNL     1       1.238   7.836  21.042  0.00  0.00    +0.000 A 
ATOM      9  C   UNL     1       1.891   7.712  19.819  0.00  0.00    +0.000 A 
ATOM     10  C   UNL     1       2.615   6.549  19.556  0.00  0.00    +0.000 A 
ENDROOT
BRANCH   1  11
ATOM     11  C   UNL     1       3.827   4.947  18.005  0.00  0.00    +0.000 C 
BRANCH  11  12
ATOM     12  N   UNL     1       5.308   4.929  18.190  0.00  0.00    +0.000 N 
ATOM     13  C   UNL     1       6.285   4.593  17.286  0.00  0.00    +0.000 A 
ATOM     14  C   UNL     1       7.483   4.822  17.901  0.00  0.00    +0.000 A 
ATOM     15  N   UNL     1       7.279   5.293  19.170  0.00  0.00    +0.000 NA
ATOM     16  C   UNL     1       5.978   5.333  19.323  0.00  0.00    +0.000 A 
ENDBRANCH  11  12
BRANCH  11  17
ATOM     17  C   UNL     1       3.068   3.634  18.589  0.00  0.00    +0.000 C 
ATOM     18  C   UNL     1       3.500   2.374  17.780  0.00  0.00    +0.000 C 
ATOM     19  C   UNL     1       1.555   3.853  18.330  0.00  0.00    +0.000 C 
BRANCH  17  21
ATOM     20  C   UNL     1       2.042   3.068  20.824  0.00  0.00    +0.000 C 
ATOM     21  N   UNL     1       3.272   3.364  20.078  0.00  0.00    +0.000 NA
ATOM     22  C   UNL     1       4.205   2.254  20.383  0.00  0.00    +0.000 C 
ENDBRANCH  17  21
ENDBRANCH  11  17
ENDBRANCH   1  11
BRANCH   6  23
ATOM     23  O   UNL     1      -0.512  11.035  20.507  0.00  0.00    +0.000 OA
BRANCH  23  24
ATOM     24  C   UNL     1      -0.147  11.895  21.596  0.00  0.00    +0.000 C 
BRANCH  24  25
ATOM     25  C   UNL     1      -1.381  12.654  22.112  0.00  0.00    +0.000 C 
ATOM     26  C   UNL     1      -2.118  11.779  23.138  0.00  0.00    +0.000 C 
ATOM     27  C   UNL     1      -0.930  13.977  22.748  0.00  0.00    +0.000 C 
BRANCH  25  28
ATOM     28  C   UNL     1      -2.279  12.925  20.907  0.00  0.00    +0.000 C 
ATOM     29  O   UNL     1      -3.448  12.570  20.821  0.00  0.00    +0.000 OA
BRANCH  28  30
ATOM     30  O   UNL     1      -1.682  13.607  19.903  0.00  0.00    +0.000 OA
ATOM     31  H   UNL     1      -0.721  13.728  19.999  0.00  0.00    +0.000 HD
ENDBRANCH  28  30
ENDBRANCH  25  28
ENDBRANCH  24  25
ENDBRANCH  23  24
ENDBRANCH   6  23
TORSDOF 9
ENDMDL
MODEL 3
REMARK VINA RESULT:      -8.0      1.118      1.755
REMARK  Name = 
REMARK  15 active torsions:
REMARK  status: ('A' for Active; 'I' for Inactive)
REMARK    1  A    between atoms: C_1  and  N_2
REMARK    2  A    between atoms: N_2  and  C_3
REMARK    3  A    between atoms: N_2  and  C_4
REMARK    4  A    between atoms: C_4  and  C_5
REMARK    5  A    between atoms: C_4  and  C_6
REMARK    6  A    between atoms: C_4  and  C_7
REMARK    7  A    between atoms: C_7  and  C_8
REMARK    8  A    between atoms: C_7  and  N_26
REMARK    9  A    between atoms: C_13  and  O_14
REMARK   10  A    between atoms: O_14  and  C_15
REMARK   11  A    between atoms: C_15  and  C_16
REMARK   12  A    between atoms: C_16  and  C_17
REMARK   13  A    between atoms: C_16  and  C_18
REMARK   14  A    between atoms: C_16  and  C_19
REMARK   15  A    between atoms: C_19  and  O_21
REMARK                            x       y       z     vdW  Elec       q    Type
REMARK                         _______ _______ _______ _____ _____    ______ ____
ROOT
ATOM      1  C   UNL     1       3.239   6.321  18.339  0.00  0.00    +0.000 A 
ATOM      2  C   UNL     1       3.206   7.432  17.484  0.00  0.00    +0.000 A 
ATOM      3  C   UNL     1       2.460   8.579  17.785  0.00  0.00    +0.000 A 
ATOM      4  C   UNL     1       1.769   8.682  18.999  0.00  0.00    +0.000 A 
ATOM      5  C   UNL     1       0.943   9.768  19.349  0.00  0.00    +0.000 A 
ATOM      6  C   UNL     1       0.299   9.805  20.596  0.00  0.00    +0.000 A 
ATOM      7  C   UNL     1       0.481   8.764  21.499  0.00  0.00    +0.000 A 
ATOM      8  C   UNL     1       1.270   7.679  21.162  0.00  0.00    +0.000 A 
ATOM      9  C   UNL     1       1.896   7.618  19.919  0.00  0.00    +0.000 A 
ATOM     10  C   UNL     1       2.611   6.469  19.580  0.00  0.00    +0.000 A 
ENDROOT
BRANCH   1  11
ATOM     11  C   UNL     1       3.783   4.949  17.920  0.00  0.00    +0.000 C 
BRANCH  11  12
ATOM     12  N   UNL     1       5.264   4.908  18.098  0.00  0.00    +0.000 N 
ATOM     13  C   UNL     1       6.234   4.599  17.178  0.00  0.00    +0.000 A 
ATOM     14  C   UNL     1       7.436   4.791  17.796  0.00  0.00    +0.000 A 
ATOM     15  N   UNL     1       7.242   5.213  19.084  0.00  0.00    +0.000 NA
ATOM     16  C   UNL     1       5.943   5.260  19.244  0.00  0.00    +0.000 A 
ENDBRANCH  11  12
BRANCH  11  17
ATOM     17  C   UNL     1       3.016   3.609  18.427  0.00  0.00    +0.000 C 
ATOM     18  C   UNL     1       3.550   2.370  17.647  0.00  0.00    +0.000 C 
ATOM     19  C   UNL     1       1.524   3.788  18.044  0.00  0.00    +0.000 C 
BRANCH  17  21
ATOM     20  C   UNL     1       1.835   2.929  20.551  0.00  0.00    +0.000 C 
ATOM     21  N   UNL     1       3.102   3.328  19.925  0.00  0.00    +0.000 NA
ATOM     22  C   UNL     1       4.083   2.284  20.304  0.00  0.00    +0.000 C 
ENDBRANCH  17  21
ENDBRANCH  11  17
ENDBRANCH   1  11
BRANCH   6  23
ATOM     23  O   UNL     1      -0.481  10.905  20.835  0.00  0.00    +0.000 OA
BRANCH  23  24
ATOM     24  C   UNL     1      -0.619  11.814  19.733  0.00  0.00    +0.000 C 
BRANCH  24  25
ATOM     25  C   UNL     1      -0.822  13.249  20.249  0.00  0.00    +0.000 C 
ATOM     26  C   UNL     1      -0.327  14.241  19.187  0.00  0.00    +0.000 C 
ATOM     27  C   UNL     1      -2.312  13.469  20.549  0.00  0.00    +0.000 C 
BRANCH  25  28
ATOM     28  C   UNL     1       0.001  13.388  21.528  0.00  0.00    +0.000 C 
ATOM     29  O   UNL     1      -0.461  13.697  22.619  0.00  0.00    +0.000 OA
BRANCH  28  30
ATOM     30  O   UNL     1       1.322  13.139  21.376  0.00  0.00    +0.000 OA
ATOM     31  H   UNL     1       1.855  13.897  21.076  0.00  0.00    +0.000 HD
ENDBRANCH  28  30
ENDBRANCH  25  28
ENDBRANCH  24  25
ENDBRANCH  23  24
ENDBRANCH   6  23
TORSDOF 9
ENDMDL
MODEL 4
REMARK VINA RESULT:      -8.0      0.757      1.105
REMARK  Name = 
REMARK  15 active torsions:
REMARK  status: ('A' for Active; 'I' for Inactive)
REMARK    1  A    between atoms: C_1  and  N_2
REMARK    2  A    between atoms: N_2  and  C_3
REMARK    3  A    between atoms: N_2  and  C_4
REMARK    4  A    between atoms: C_4  and  C_5
REMARK    5  A    between atoms: C_4  and  C_6
REMARK    6  A    between atoms: C_4  and  C_7
REMARK    7  A    between atoms: C_7  and  C_8
REMARK    8  A    between atoms: C_7  and  N_26
REMARK    9  A    between atoms: C_13  and  O_14
REMARK   10  A    between atoms: O_14  and  C_15
REMARK   11  A    between atoms: C_15  and  C_16
REMARK   12  A    between atoms: C_16  and  C_17
REMARK   13  A    between atoms: C_16  and  C_18
REMARK   14  A    between atoms: C_16  and  C_19
REMARK   15  A    between atoms: C_19  and  O_21
REMARK                            x       y       z     vdW  Elec       q    Type
REMARK                         _______ _______ _______ _____ _____    ______ ____
ROOT
ATOM      1  C   UNL     1       3.211   6.388  18.331  0.00  0.00    +0.000 A 
ATOM      2  C   UNL     1       3.166   7.482  17.455  0.00  0.00    +0.000 A 
ATOM      3  C   UNL     1       2.417   8.631  17.740  0.00  0.00    +0.000 A 
ATOM      4  C   UNL     1       1.734   8.754  18.957  0.00  0.00    +0.000 A 
ATOM      5  C   UNL     1       0.905   9.842  19.292  0.00  0.00    +0.000 A 
ATOM      6  C   UNL     1       0.270   9.900  20.543  0.00  0.00    +0.000 A 
ATOM      7  C   UNL     1       0.464   8.877  21.465  0.00  0.00    +0.000 A 
ATOM      8  C   UNL     1       1.256   7.790  21.143  0.00  0.00    +0.000 A 
ATOM      9  C   UNL     1       1.874   7.709  19.897  0.00  0.00    +0.000 A 
ATOM     10  C   UNL     1       2.591   6.557  19.573  0.00  0.00    +0.000 A 
ENDROOT
BRANCH   1  11
ATOM     11  C   UNL     1       3.759   5.011  17.934  0.00  0.00    +0.000 C 
BRANCH  11  12
ATOM     12  N   UNL     1       5.235   4.965  18.150  0.00  0.00    +0.000 N 
ATOM     13  C   UNL     1       6.229   4.674  17.249  0.00  0.00    +0.000 A 
ATOM     14  C   UNL     1       7.415   4.852  17.902  0.00  0.00    +0.000 A 
ATOM     15  N   UNL     1       7.187   5.246  19.193  0.00  0.00    +0.000 NA
ATOM     16  C   UNL     1       5.884   5.292  19.320  0.00  0.00    +0.000 A 
ENDBRANCH  11  12
BRANCH  11  17
ATOM     17  C   UNL     1       2.973   3.678  18.429  0.00  0.00    +0.000 C 
ATOM     18  C   UNL     1       3.522   2.432  17.671  0.00  0.00    +0.000 C 
ATOM     19  C   UNL     1       1.493   3.861  18.006  0.00  0.00    +0.000 C 
BRANCH  17  21
ATOM     20  C   UNL     1       1.733   3.023  20.527  0.00  0.00    +0.000 C 
ATOM     21  N   UNL     1       3.019   3.406  19.931  0.00  0.00    +0.000 NA
ATOM     22  C   UNL     1       3.981   2.356  20.341  0.00  0.00    +0.000 C 
ENDBRANCH  17  21
ENDBRANCH  11  17
ENDBRANCH   1  11
BRANCH   6  23
ATOM     23  O   UNL     1      -0.514  11.000  20.767  0.00  0.00    +0.000 OA
BRANCH  23  24
ATOM     24  C   UNL     1       0.195  12.206  21.088  0.00  0.00    +0.000 C 
BRANCH  24  25
ATOM     25  C   UNL     1      -0.567  13.430  20.551  0.00  0.00    +0.000 C 
ATOM     26  C   UNL     1      -1.832  13.647  21.395  0.00  0.00    +0.000 C 
ATOM     27  C   UNL     1       0.349  14.661  20.614  0.00  0.00    +0.000 C 
BRANCH  25  28
ATOM     28  C   UNL     1      -0.944  13.125  19.102  0.00  0.00    +0.000 C 
ATOM     29  O   UNL     1      -0.194  13.272  18.146  0.00  0.00    +0.000 OA
BRANCH  28  30
ATOM     30  O   UNL     1      -2.204  12.664  18.934  0.00  0.00    +0.000 OA
ATOM     31  H   UNL     1      -2.571  12.776  18.040  0.00  0.00    +0.000 HD
ENDBRANCH  28  30
ENDBRANCH  25  28
ENDBRANCH  24  25
ENDBRANCH  23  24
ENDBRANCH   6  23
TORSDOF 9
ENDMDL
MODEL 5
REMARK VINA RESULT:      -8.0      0.919      1.469
REMARK  Name = 
REMARK  15 active torsions:
REMARK  status: ('A' for Active; 'I' for Inactive)
REMARK    1  A    between atoms: C_1  and  N_2
REMARK    2  A    between atoms: N_2  and  C_3
REMARK    3  A    between atoms: N_2  and  C_4
REMARK    4  A    between atoms: C_4  and  C_5
REMARK    5  A    between atoms: C_4  and  C_6
REMARK    6  A    between atoms: C_4  and  C_7
REMARK    7  A    between atoms: C_7  and  C_8
REMARK    8  A    between atoms: C_7  and  N_26
REMARK    9  A    between atoms: C_13  and  O_14
REMARK   10  A    between atoms: O_14  and  C_15
REMARK   11  A    between atoms: C_15  and  C_16
REMARK   12  A    between atoms: C_16  and  C_17
REMARK   13  A    between atoms: C_16  and  C_18
REMARK   14  A    between atoms: C_16  and  C_19
REMARK   15  A    between atoms: C_19  and  O_21
REMARK                            x       y       z     vdW  Elec       q    Type
REMARK                         _______ _______ _______ _____ _____    ______ ____
ROOT
ATOM      1  C   UNL     1       3.266   6.318  18.316  0.00  0.00    +0.000 A 
ATOM      2  C   UNL     1       3.263   7.408  17.434  0.00  0.00    +0.000 A 
ATOM      3  C   UNL     1       2.534   8.575  17.697  0.00  0.00    +0.000 A 
ATOM      4  C   UNL     1       1.829   8.719  18.899  0.00  0.00    +0.000 A 
ATOM      5  C   UNL     1       1.018   9.828  19.212  0.00  0.00    +0.000 A 
ATOM      6  C   UNL     1       0.358   9.906  20.449  0.00  0.00    +0.000 A 
ATOM      7  C   UNL     1       0.511   8.884  21.379  0.00  0.00    +0.000 A 
ATOM      8  C   UNL     1       1.285   7.778  21.079  0.00  0.00    +0.000 A 
ATOM      9  C   UNL     1       1.926   7.676  19.847  0.00  0.00    +0.000 A 
ATOM     10  C   UNL     1       2.624   6.507  19.544  0.00  0.00    +0.000 A 
ENDROOT
BRANCH   1  11
ATOM     11  C   UNL     1       3.791   4.927  17.937  0.00  0.00    +0.000 C 
BRANCH  11  12
ATOM     12  N   UNL     1       5.272   4.873  18.112  0.00  0.00    +0.000 N 
ATOM     13  C   UNL     1       6.236   4.543  17.193  0.00  0.00    +0.000 A 
ATOM     14  C   UNL     1       7.442   4.730  17.806  0.00  0.00    +0.000 A 
ATOM     15  N   UNL     1       7.255   5.167  19.090  0.00  0.00    +0.000 NA
ATOM     16  C   UNL     1       5.957   5.230  19.253  0.00  0.00    +0.000 A 
ENDBRANCH  11  12
BRANCH  11  17
ATOM     17  C   UNL     1       3.008   3.613  18.487  0.00  0.00    +0.000 C 
ATOM     18  C   UNL     1       3.511   2.347  17.731  0.00  0.00    +0.000 C 
ATOM     19  C   UNL     1       1.514   3.808  18.119  0.00  0.00    +0.000 C 
BRANCH  17  21
ATOM     20  C   UNL     1       1.844   3.011  20.643  0.00  0.00    +0.000 C 
ATOM     21  N   UNL     1       3.110   3.367  19.990  0.00  0.00    +0.000 NA
ATOM     22  C   UNL     1       4.074   2.312  20.382  0.00  0.00    +0.000 C 
ENDBRANCH  17  21
ENDBRANCH  11  17
ENDBRANCH   1  11
BRANCH   6  23
ATOM     23  O   UNL     1      -0.405  11.025  20.651  0.00  0.00    +0.000 OA
BRANCH  23  24
ATOM     24  C   UNL     1       0.163  12.253  20.172  0.00  0.00    +0.000 C 
BRANCH  24  25
ATOM     25  C   UNL     1      -0.901  13.076  19.426  0.00  0.00    +0.000 C 
ATOM     26  C   UNL     1      -0.340  14.474  19.128  0.00  0.00    +0.000 C 
ATOM     27  C   UNL     1      -1.278  12.351  18.126  0.00  0.00    +0.000 C 
BRANCH  25  28
ATOM     28  C   UNL     1      -2.117  13.178  20.346  0.00  0.00    +0.000 C 
ATOM     29  O   UNL     1      -2.199  13.940  21.301  0.00  0.00    +0.000 OA
BRANCH  28  30
ATOM     30  O   UNL     1      -3.134  12.346  20.028  0.00  0.00    +0.000 OA
ATOM     31  H   UNL     1      -4.013  12.629  20.337  0.00  0.00    +0.000 HD
ENDBRANCH  28  30
ENDBRANCH  25  28
ENDBRANCH  24  25
ENDBRANCH  23  24
ENDBRANCH   6  23
TORSDOF 9
ENDMDL
MODEL 6
REMARK VINA RESULT:      -7.9      1.043      1.345
REMARK  Name = 
REMARK  15 active torsions:
REMARK  status: ('A' for Active; 'I' for Inactive)
REMARK    1  A    between atoms: C_1  and  N_2
REMARK    2  A    between atoms: N_2  and  C_3
REMARK    3  A    between atoms: N_2  and  C_4
REMARK    4  A    between atoms: C_4  and  C_5
REMARK    5  A    between atoms: C_4  and  C_6
REMARK    6  A    between atoms: C_4  and  C_7
REMARK    7  A    between atoms: C_7  and  C_8
REMARK    8  A    between atoms: C_7  and  N_26
REMARK    9  A    between atoms: C_13  and  O_14
REMARK   10  A    between atoms: O_14  and  C_15
REMARK   11  A    between atoms: C_15  and  C_16
REMARK   12  A    between atoms: C_16  and  C_17
REMARK   13  A    between atoms: C_16  and  C_18
REMARK   14  A    between atoms: C_16  and  C_19
REMARK   15  A    between atoms: C_19  and  O_21
REMARK                            x       y       z     vdW  Elec       q    Type
REMARK                         _______ _______ _______ _____ _____    ______ ____
ROOT
ATOM      1  C   UNL     1       3.078   6.543  18.335  0.00  0.00    +0.000 A 
ATOM      2  C   UNL     1       3.046   7.648  17.472  0.00  0.00    +0.000 A 
ATOM      3  C   UNL     1       2.356   8.824  17.797  0.00  0.00    +0.000 A 
ATOM      4  C   UNL     1       1.725   8.960  19.040  0.00  0.00    +0.000 A 
ATOM      5  C   UNL     1       0.956  10.078  19.418  0.00  0.00    +0.000 A 
ATOM      6  C   UNL     1       0.371  10.147  20.693  0.00  0.00    +0.000 A 
ATOM      7  C   UNL     1       0.557   9.106  21.596  0.00  0.00    +0.000 A 
ATOM      8  C   UNL     1       1.290   7.990  21.233  0.00  0.00    +0.000 A 
ATOM      9  C   UNL     1       1.856   7.899  19.963  0.00  0.00    +0.000 A 
ATOM     10  C   UNL     1       2.513   6.723  19.601  0.00  0.00    +0.000 A 
ENDROOT
BRANCH   1  11
ATOM     11  C   UNL     1       3.553   5.149  17.903  0.00  0.00    +0.000 C 
BRANCH  11  12
ATOM     12  N   UNL     1       5.025   5.021  18.116  0.00  0.00    +0.000 N 
ATOM     13  C   UNL     1       6.012   4.796  17.189  0.00  0.00    +0.000 A 
ATOM     14  C   UNL     1       7.200   4.851  17.861  0.00  0.00    +0.000 A 
ATOM     15  N   UNL     1       6.979   5.103  19.188  0.00  0.00    +0.000 NA
ATOM     16  C   UNL     1       5.678   5.185  19.317  0.00  0.00    +0.000 A 
ENDBRANCH  11  12
BRANCH  11  17
ATOM     17  C   UNL     1       2.698   3.847  18.366  0.00  0.00    +0.000 C 
ATOM     18  C   UNL     1       3.354   2.556  17.792  0.00  0.00    +0.000 C 
ATOM     19  C   UNL     1       1.300   3.987  17.711  0.00  0.00    +0.000 C 
BRANCH  17  21
ATOM     20  C   UNL     1       1.134   3.422  20.300  0.00  0.00    +0.000 C 
ATOM     21  N   UNL     1       2.514   3.683  19.873  0.00  0.00    +0.000 NA
ATOM     22  C   UNL     1       3.334   2.610  20.484  0.00  0.00    +0.000 C 
ENDBRANCH  17  21
ENDBRANCH  11  17
ENDBRANCH   1  11
BRANCH   6  23
ATOM     23  O   UNL     1      -0.357  11.276  20.957  0.00  0.00    +0.000 OA
BRANCH  23  24
ATOM     24  C   UNL     1      -1.480  11.502  20.093  0.00  0.00    +0.000 C 
BRANCH  24  25
ATOM     25  C   UNL     1      -2.376  12.614  20.664  0.00  0.00    +0.000 C 
ATOM     26  C   UNL     1      -2.542  12.402  22.176  0.00  0.00    +0.000 C 
ATOM     27  C   UNL     1      -1.734  13.978  20.371  0.00  0.00    +0.000 C 
BRANCH  25  28
ATOM     28  C   UNL     1      -3.729  12.505  19.963  0.00  0.00    +0.000 C 
ATOM     29  O   UNL     1      -4.811  12.562  20.534  0.00  0.00    +0.000 OA
BRANCH  28  30
ATOM     30  O   UNL     1      -3.657  12.335  18.624  0.00  0.00    +0.000 OA
ATOM     31  H   UNL     1      -3.435  13.136  18.116  0.00  0.00    +0.000 HD
ENDBRANCH  28  30
ENDBRANCH  25  28
ENDBRANCH  24  25
ENDBRANCH  23  24
ENDBRANCH   6  23
TORSDOF 9
ENDMDL
MODEL 7
REMARK VINA RESULT:      -7.9      1.463      2.056
REMARK  Name = 
REMARK  15 active torsions:
REMARK  status: ('A' for Active; 'I' for Inactive)
REMARK    1  A    between atoms: C_1  and  N_2
REMARK    2  A    between atoms: N_2  and  C_3
REMARK    3  A    between atoms: N_2  and  C_4
REMARK    4  A    between atoms: C_4  and  C_5
REMARK    5  A    between atoms: C_4  and  C_6
REMARK    6  A    between atoms: C_4  and  C_7
REMARK    7  A    between atoms: C_7  and  C_8
REMARK    8  A    between atoms: C_7  and  N_26
REMARK    9  A    between atoms: C_13  and  O_14
REMARK   10  A    between atoms: O_14  and  C_15
REMARK   11  A    between atoms: C_15  and  C_16
REMARK   12  A    between atoms: C_16  and  C_17
REMARK   13  A    between atoms: C_16  and  C_18
REMARK   14  A    between atoms: C_16  and  C_19
REMARK   15  A    between atoms: C_19  and  O_21
REMARK                            x       y       z     vdW  Elec       q    Type
REMARK                         _______ _______ _______ _____ _____    ______ ____
ROOT
ATOM      1  C   UNL     1       3.294   6.328  18.355  0.00  0.00    +0.000 A 
ATOM      2  C   UNL     1       3.252   7.419  17.475  0.00  0.00    +0.000 A 
ATOM      3  C   UNL     1       2.483   8.560  17.743  0.00  0.00    +0.000 A 
ATOM      4  C   UNL     1       1.776   8.677  18.945  0.00  0.00    +0.000 A 
ATOM      5  C   UNL     1       0.927   9.756  19.262  0.00  0.00    +0.000 A 
ATOM      6  C   UNL     1       0.267   9.808  20.500  0.00  0.00    +0.000 A 
ATOM      7  C   UNL     1       0.456   8.790  21.428  0.00  0.00    +0.000 A 
ATOM      8  C   UNL     1       1.267   7.712  21.124  0.00  0.00    +0.000 A 
ATOM      9  C   UNL     1       1.910   7.635  19.890  0.00  0.00    +0.000 A 
ATOM     10  C   UNL     1       2.648   6.492  19.584  0.00  0.00    +0.000 A 
ENDROOT
BRANCH   1  11
ATOM     11  C   UNL     1       3.866   4.957  17.972  0.00  0.00    +0.000 C 
BRANCH  11  12
ATOM     12  N   UNL     1       5.344   4.942  18.179  0.00  0.00    +0.000 N 
ATOM     13  C   UNL     1       6.336   4.629  17.284  0.00  0.00    +0.000 A 
ATOM     14  C   UNL     1       7.523   4.852  17.921  0.00  0.00    +0.000 A 
ATOM     15  N   UNL     1       7.298   5.297  19.196  0.00  0.00    +0.000 NA
ATOM     16  C   UNL     1       5.995   5.328  19.330  0.00  0.00    +0.000 A 
ENDBRANCH  11  12
BRANCH  11  17
ATOM     17  C   UNL     1       3.109   3.615  18.489  0.00  0.00    +0.000 C 
ATOM     18  C   UNL     1       3.595   2.386  17.663  0.00  0.00    +0.000 C 
ATOM     19  C   UNL     1       1.604   3.815  18.178  0.00  0.00    +0.000 C 
BRANCH  17  21
ATOM     20  C   UNL     1       2.012   2.953  20.663  0.00  0.00    +0.000 C 
ATOM     21  N   UNL     1       3.261   3.305  19.976  0.00  0.00    +0.000 NA
ATOM     22  C   UNL     1       4.213   2.213  20.288  0.00  0.00    +0.000 C 
ENDBRANCH  17  21
ENDBRANCH  11  17
ENDBRANCH   1  11
BRANCH   6  23
ATOM     23  O   UNL     1      -0.534  10.899  20.706  0.00  0.00    +0.000 OA
BRANCH  23  24
ATOM     24  C   UNL     1       0.154  12.150  20.854  0.00  0.00    +0.000 C 
BRANCH  24  25
ATOM     25  C   UNL     1      -0.684  13.122  21.702  0.00  0.00    +0.000 C 
ATOM     26  C   UNL     1      -1.858  13.643  20.860  0.00  0.00    +0.000 C 
ATOM     27  C   UNL     1      -1.192  12.389  22.952  0.00  0.00    +0.000 C 
BRANCH  25  28
ATOM     28  C   UNL     1       0.233  14.276  22.102  0.00  0.00    +0.000 C 
ATOM     29  O   UNL     1       1.456  14.216  22.111  0.00  0.00    +0.000 OA
BRANCH  28  30
ATOM     30  O   UNL     1      -0.412  15.410  22.457  0.00  0.00    +0.000 OA
ATOM     31  H   UNL     1      -0.666  15.991  21.718  0.00  0.00    +0.000 HD
ENDBRANCH  28  30
ENDBRANCH  25  28
ENDBRANCH  24  25
ENDBRANCH  23  24
ENDBRANCH   6  23
TORSDOF 9
ENDMDL
MODEL 8
REMARK VINA RESULT:      -7.9      1.108      1.567
REMARK  Name = 
REMARK  15 active torsions:
REMARK  status: ('A' for Active; 'I' for Inactive)
REMARK    1  A    between atoms: C_1  and  N_2
REMARK    2  A    between atoms: N_2  and  C_3
REMARK    3  A    between atoms: N_2  and  C_4
REMARK    4  A    between atoms: C_4  and  C_5
REMARK    5  A    between atoms: C_4  and  C_6
REMARK    6  A    between atoms: C_4  and  C_7
REMARK    7  A    between atoms: C_7  and  C_8
REMARK    8  A    between atoms: C_7  and  N_26
REMARK    9  A    between atoms: C_13  and  O_14
REMARK   10  A    between atoms: O_14  and  C_15
REMARK   11  A    between atoms: C_15  and  C_16
REMARK   12  A    between atoms: C_16  and  C_17
REMARK   13  A    between atoms: C_16  and  C_18
REMARK   14  A    between atoms: C_16  and  C_19
REMARK   15  A    between atoms: C_19  and  O_21
REMARK                            x       y       z     vdW  Elec       q    Type
REMARK                         _______ _______ _______ _____ _____    ______ ____
ROOT
ATOM      1  C   UNL     1       3.292   6.313  18.224  0.00  0.00    +0.000 A 
ATOM      2  C   UNL     1       3.360   7.383  17.319  0.00  0.00    +0.000 A 
ATOM      3  C   UNL     1       2.689   8.592  17.548  0.00  0.00    +0.000 A 
ATOM      4  C   UNL     1       1.976   8.799  18.735  0.00  0.00    +0.000 A 
ATOM      5  C   UNL     1       1.220   9.955  19.012  0.00  0.00    +0.000 A 
ATOM      6  C   UNL     1       0.548  10.094  20.237  0.00  0.00    +0.000 A 
ATOM      7  C   UNL     1       0.633   9.086  21.191  0.00  0.00    +0.000 A 
ATOM      8  C   UNL     1       1.352   7.934  20.926  0.00  0.00    +0.000 A 
ATOM      9  C   UNL     1       2.004   7.773  19.705  0.00  0.00    +0.000 A 
ATOM     10  C   UNL     1       2.644   6.563  19.438  0.00  0.00    +0.000 A 
ENDROOT
BRANCH   1  11
ATOM     11  C   UNL     1       3.749   4.889  17.882  0.00  0.00    +0.000 C 
BRANCH  11  12
ATOM     12  N   UNL     1       5.233   4.784  18.001  0.00  0.00    +0.000 N 
ATOM     13  C   UNL     1       6.158   4.516  17.023  0.00  0.00    +0.000 A 
ATOM     14  C   UNL     1       7.387   4.617  17.608  0.00  0.00    +0.000 A 
ATOM     15  N   UNL     1       7.254   4.942  18.931  0.00  0.00    +0.000 NA
ATOM     16  C   UNL     1       5.964   5.020  19.144  0.00  0.00    +0.000 A 
ENDBRANCH  11  12
BRANCH  11  17
ATOM     17  C   UNL     1       2.941   3.629  18.516  0.00  0.00    +0.000 C 
ATOM     18  C   UNL     1       3.406   2.309  17.833  0.00  0.00    +0.000 C 
ATOM     19  C   UNL     1       1.449   3.839  18.150  0.00  0.00    +0.000 C 
BRANCH  17  21
ATOM     20  C   UNL     1       1.772   3.280  20.725  0.00  0.00    +0.000 C 
ATOM     21  N   UNL     1       3.052   3.471  20.031  0.00  0.00    +0.000 NA
ATOM     22  C   UNL     1       3.921   2.356  20.475  0.00  0.00    +0.000 C 
ENDBRANCH  17  21
ENDBRANCH  11  17
ENDBRANCH   1  11
BRANCH   6  23
ATOM     23  O   UNL     1      -0.158  11.255  20.404  0.00  0.00    +0.000 OA
BRANCH  23  24
ATOM     24  C   UNL     1      -1.586  11.121  20.356  0.00  0.00    +0.000 C 
BRANCH  24  25
ATOM     25  C   UNL     1      -2.120  11.606  18.997  0.00  0.00    +0.000 C 
ATOM     26  C   UNL     1      -1.150  12.645  18.416  0.00  0.00    +0.000 C 
ATOM     27  C   UNL     1      -2.262  10.403  18.053  0.00  0.00    +0.000 C 
BRANCH  25  28
ATOM     28  C   UNL     1      -3.486  12.242  19.253  0.00  0.00    +0.000 C 
ATOM     29  O   UNL     1      -3.833  12.729  20.321  0.00  0.00    +0.000 OA
BRANCH  28  30
ATOM     30  O   UNL     1      -4.318  12.233  18.187  0.00  0.00    +0.000 OA
ATOM     31  H   UNL     1      -4.703  13.097  17.955  0.00  0.00    +0.000 HD
ENDBRANCH  28  30
ENDBRANCH  25  28
ENDBRANCH  24  25
ENDBRANCH  23  24
ENDBRANCH   6  23
TORSDOF 9
ENDMDL
MODEL 9
REMARK VINA RESULT:      -7.9      1.732      3.676
REMARK  Name = 
REMARK  15 active torsions:
REMARK  status: ('A' for Active; 'I' for Inactive)
REMARK    1  A    between atoms: C_1  and  N_2
REMARK    2  A    between atoms: N_2  and  C_3
REMARK    3  A    between atoms: N_2  and  C_4
REMARK    4  A    between atoms: C_4  and  C_5
REMARK    5  A    between atoms: C_4  and  C_6
REMARK    6  A    between atoms: C_4  and  C_7
REMARK    7  A    between atoms: C_7  and  C_8
REMARK    8  A    between atoms: C_7  and  N_26
REMARK    9  A    between atoms: C_13  and  O_14
REMARK   10  A    between atoms: O_14  and  C_15
REMARK   11  A    between atoms: C_15  and  C_16
REMARK   12  A    between atoms: C_16  and  C_17
REMARK   13  A    between atoms: C_16  and  C_18
REMARK   14  A    between atoms: C_16  and  C_19
REMARK   15  A    between atoms: C_19  and  O_21
REMARK                            x       y       z     vdW  Elec       q    Type
REMARK                         _______ _______ _______ _____ _____    ______ ____
ROOT
ATOM      1  C   UNL     1       2.787   6.948  19.281  0.00  0.00    +0.000 A 
ATOM      2  C   UNL     1       2.842   7.557  18.018  0.00  0.00    +0.000 A 
ATOM      3  C   UNL     1       2.020   8.640  17.680  0.00  0.00    +0.000 A 
ATOM      4  C   UNL     1       1.153   9.201  18.626  0.00  0.00    +0.000 A 
ATOM      5  C   UNL     1       0.247  10.243  18.349  0.00  0.00    +0.000 A 
ATOM      6  C   UNL     1      -0.576  10.765  19.360  0.00  0.00    +0.000 A 
ATOM      7  C   UNL     1      -0.493  10.254  20.650  0.00  0.00    +0.000 A 
ATOM      8  C   UNL     1       0.374   9.215  20.935  0.00  0.00    +0.000 A 
ATOM      9  C   UNL     1       1.180   8.672  19.936  0.00  0.00    +0.000 A 
ATOM     10  C   UNL     1       1.977   7.568  20.238  0.00  0.00    +0.000 A 
ENDROOT
BRANCH   1  11
ATOM     11  C   UNL     1       3.435   5.593  19.593  0.00  0.00    +0.000 C 
BRANCH  11  12
ATOM     12  N   UNL     1       2.385   4.593  19.948  0.00  0.00    +0.000 N 
ATOM     13  C   UNL     1       1.438   4.016  19.139  0.00  0.00    +0.000 A 
ATOM     14  C   UNL     1       0.773   3.102  19.906  0.00  0.00    +0.000 A 
ATOM     15  N   UNL     1       1.281   3.094  21.177  0.00  0.00    +0.000 NA
ATOM     16  C   UNL     1       2.228   3.999  21.181  0.00  0.00    +0.000 A 
ENDBRANCH  11  12
BRANCH  11  17
ATOM     17  C   UNL     1       4.587   5.023  18.600  0.00  0.00    +0.000 C 
ATOM     18  C   UNL     1       3.961   4.663  17.220  0.00  0.00    +0.000 C 
ATOM     19  C   UNL     1       5.098   3.704  19.235  0.00  0.00    +0.000 C 
BRANCH  17  21
ATOM     20  C   UNL     1       7.005   5.556  19.087  0.00  0.00    +0.000 C 
ATOM     21  N   UNL     1       5.781   5.949  18.377  0.00  0.00    +0.000 NA
ATOM     22  C   UNL     1       6.176   6.121  16.959  0.00  0.00    +0.000 C 
ENDBRANCH  17  21
ENDBRANCH  11  17
ENDBRANCH   1  11
BRANCH   6  23
ATOM     23  O   UNL     1      -1.420  11.775  18.984  0.00  0.00    +0.000 OA
BRANCH  23  24
ATOM     24  C   UNL     1      -1.970  11.658  17.663  0.00  0.00    +0.000 C 
BRANCH  24  25
ATOM     25  C   UNL     1      -3.392  11.075  17.728  0.00  0.00    +0.000 C 
ATOM     26  C   UNL     1      -3.305   9.558  17.954  0.00  0.00    +0.000 C 
ATOM     27  C   UNL     1      -4.163  11.753  18.870  0.00  0.00    +0.000 C 
BRANCH  25  28
ATOM     28  C   UNL     1      -4.062  11.373  16.388  0.00  0.00    +0.000 C 
ATOM     29  O   UNL     1      -3.546  11.169  15.296  0.00  0.00    +0.000 OA
BRANCH  28  30
ATOM     30  O   UNL     1      -5.306  11.894  16.484  0.00  0.00    +0.000 OA
ATOM     31  H   UNL     1      -5.879  11.477  17.151  0.00  0.00    +0.000 HD
ENDBRANCH  28  30
ENDBRANCH  25  28
ENDBRANCH  24  25
ENDBRANCH  23  24
ENDBRANCH   6  23
TORSDOF 9
ENDMDL
