MODEL 1
REMARK VINA RESULT:      -8.0      0.000      0.000
REMARK  Name = 
REMARK  6 active torsions:
REMARK  status: ('A' for Active; 'I' for Inactive)
REMARK    1  A    between atoms: N_3  and  C_4
REMARK    2  A    between atoms: C_4  and  C_5
REMARK    3  A    between atoms: N_9  and  C_10
REMARK    4  A    between atoms: N_15  and  C_16
REMARK    5  A    between atoms: C_16  and  C_17
REMARK    6  A    between atoms: N_21  and  C_22
REMARK                            x       y       z     vdW  Elec       q    Type
REMARK                         _______ _______ _______ _____ _____    ______ ____
ROOT
ATOM      1  C   UNL     1       7.532   5.434  18.685  0.00  0.00    +0.000 C 
ATOM      2  C   UNL     1       6.346   5.570  19.654  0.00  0.00    +0.000 C 
ATOM      3  N   UNL     1       4.998   5.214  19.210  0.00  0.00    +0.000 NA
ATOM      4  C   UNL     1       4.701   5.790  17.899  0.00  0.00    +0.000 C 
ATOM      5  C   UNL     1       5.181   5.042  16.647  0.00  0.00    +0.000 C 
ATOM      6  N   UNL     1       6.627   4.945  16.354  0.00  0.00    +0.000 NA
ATOM      7  C   UNL     1       7.439   4.477  17.494  0.00  0.00    +0.000 C 
ENDROOT
BRANCH   3   8
ATOM      8  C   UNL     1       4.701   3.791  19.458  0.00  0.00    +0.000 C 
BRANCH   8   9
ATOM      9  C   UNL     1       3.526   3.182  18.778  0.00  0.00    +0.000 A 
ATOM     10  N   UNL     1       3.624   2.354  17.747  0.00  0.00    +0.000 NA
ATOM     11  N   UNL     1       2.353   2.028  17.375  0.00  0.00    +0.000 NA
ATOM     12  N   UNL     1       1.467   2.633  18.147  0.00  0.00    +0.000 NA
ATOM     13  N   UNL     1       2.186   3.303  19.076  0.00  0.00    +0.000 N 
BRANCH  13  14
ATOM     14  C   UNL     1       1.486   3.921  20.171  0.00  0.00    +0.000 C 
ATOM     15  C   UNL     1       1.869   3.638  21.616  0.00  0.00    +0.000 C 
ATOM     16  C   UNL     1       1.988   5.028  21.073  0.00  0.00    +0.000 C 
ENDBRANCH  13  14
ENDBRANCH   8   9
ENDBRANCH   3   8
BRANCH   6  17
ATOM     17  C   UNL     1       6.728   3.996  15.205  0.00  0.00    +0.000 C 
BRANCH  17  18
ATOM     18  C   UNL     1       7.048   4.577  13.879  0.00  0.00    +0.000 A 
ATOM     19  N   UNL     1       7.906   5.560  13.651  0.00  0.00    +0.000 NA
ATOM     20  N   UNL     1       8.031   5.652  12.289  0.00  0.00    +0.000 NA
ATOM     21  N   UNL     1       7.274   4.754  11.679  0.00  0.00    +0.000 NA
ATOM     22  N   UNL     1       6.635   4.100  12.667  0.00  0.00    +0.000 N 
BRANCH  22  23
ATOM     23  C   UNL     1       5.682   3.041  12.425  0.00  0.00    +0.000 C 
ATOM     24  C   UNL     1       4.539   3.221  11.437  0.00  0.00    +0.000 C 
ATOM     25  C   UNL     1       5.654   2.296  11.102  0.00  0.00    +0.000 C 
ENDBRANCH  22  23
ENDBRANCH  17  18
ENDBRANCH   6  17
TORSDOF 6
ENDMDL
MODEL 2
REMARK VINA RESULT:      -7.8      1.633      2.090
REMARK  Name = 
REMARK  6 active torsions:
REMARK  status: ('A' for Active; 'I' for Inactive)
REMARK    1  A    between atoms: N_3  and  C_4
REMARK    2  A    between atoms: C_4  and  C_5
REMARK    3  A    between atoms: N_9  and  C_10
REMARK    4  A    between atoms: N_15  and  C_16
REMARK    5  A    between atoms: C_16  and  C_17
REMARK    6  A    between atoms: N_21  and  C_22
REMARK                            x       y       z     vdW  Elec       q    Type
REMARK                         _______ _______ _______ _____ _____    ______ ____
ROOT
ATOM      1  C   UNL     1       4.066   7.345  17.158  0.00  0.00    +0.000 C 
ATOM      2  C   UNL     1       3.009   6.991  18.217  0.00  0.00    +0.000 C 
ATOM      3  N   UNL     1       2.785   5.592  18.583  0.00  0.00    +0.000 NA
ATOM      4  C   UNL     1       2.675   4.744  17.397  0.00  0.00    +0.000 C 
ATOM      5  C   UNL     1       3.967   4.239  16.738  0.00  0.00    +0.000 C 
ATOM      6  N   UNL     1       4.870   5.193  16.058  0.00  0.00    +0.000 NA
ATOM      7  C   UNL     1       5.214   6.375  16.871  0.00  0.00    +0.000 C 
ENDROOT
BRANCH   3   8
ATOM      8  C   UNL     1       3.660   5.172  19.693  0.00  0.00    +0.000 C 
BRANCH   8   9
ATOM      9  C   UNL     1       4.021   3.734  19.807  0.00  0.00    +0.000 A 
ATOM     10  N   UNL     1       5.269   3.285  19.770  0.00  0.00    +0.000 NA
ATOM     11  N   UNL     1       5.208   1.927  19.873  0.00  0.00    +0.000 NA
ATOM     12  N   UNL     1       3.955   1.518  19.971  0.00  0.00    +0.000 NA
ATOM     13  N   UNL     1       3.203   2.642  20.003  0.00  0.00    +0.000 N 
BRANCH  13  14
ATOM     14  C   UNL     1       1.798   2.519  20.286  0.00  0.00    +0.000 C 
ATOM     15  C   UNL     1       1.250   2.731  21.690  0.00  0.00    +0.000 C 
ATOM     16  C   UNL     1       0.820   3.637  20.579  0.00  0.00    +0.000 C 
ENDBRANCH  13  14
ENDBRANCH   8   9
ENDBRANCH   3   8
BRANCH   6  17
ATOM     17  C   UNL     1       6.093   4.401  15.727  0.00  0.00    +0.000 C 
BRANCH  17  18
ATOM     18  C   UNL     1       6.803   4.754  14.474  0.00  0.00    +0.000 A 
ATOM     19  N   UNL     1       7.843   5.568  14.377  0.00  0.00    +0.000 NA
ATOM     20  N   UNL     1       8.293   5.463  13.086  0.00  0.00    +0.000 NA
ATOM     21  N   UNL     1       7.557   4.609  12.393  0.00  0.00    +0.000 NA
ATOM     22  N   UNL     1       6.607   4.186  13.247  0.00  0.00    +0.000 N 
BRANCH  22  23
ATOM     23  C   UNL     1       5.571   3.249  12.875  0.00  0.00    +0.000 C 
ATOM     24  C   UNL     1       4.646   3.524  11.698  0.00  0.00    +0.000 C 
ATOM     25  C   UNL     1       5.663   2.445  11.590  0.00  0.00    +0.000 C 
ENDBRANCH  22  23
ENDBRANCH  17  18
ENDBRANCH   6  17
TORSDOF 6
ENDMDL
MODEL 3
REMARK VINA RESULT:      -7.8      1.043      7.540
REMARK  Name = 
REMARK  6 active torsions:
REMARK  status: ('A' for Active; 'I' for Inactive)
REMARK    1  A    between atoms: N_3  and  C_4
REMARK    2  A    between atoms: C_4  and  C_5
REMARK    3  A    between atoms: N_9  and  C_10
REMARK    4  A    between atoms: N_15  and  C_16
REMARK    5  A    between atoms: C_16  and  C_17
REMARK    6  A    between atoms: N_21  and  C_22
REMARK                            x       y       z     vdW  Elec       q    Type
REMARK                         _______ _______ _______ _____ _____    ______ ____
ROOT
ATOM      1  C   UNL     1       4.580   6.475  16.760  0.00  0.00    +0.000 C 
ATOM      2  C   UNL     1       5.959   6.693  16.116  0.00  0.00    +0.000 C 
ATOM      3  N   UNL     1       7.061   5.782  16.429  0.00  0.00    +0.000 NA
ATOM      4  C   UNL     1       7.162   5.546  17.869  0.00  0.00    +0.000 C 
ATOM      5  C   UNL     1       6.259   4.476  18.498  0.00  0.00    +0.000 C 
ATOM      6  N   UNL     1       4.797   4.690  18.565  0.00  0.00    +0.000 NA
ATOM      7  C   UNL     1       4.191   5.089  17.280  0.00  0.00    +0.000 C 
ENDROOT
BRANCH   3   8
ATOM      8  C   UNL     1       7.100   4.635  15.503  0.00  0.00    +0.000 C 
BRANCH   8   9
ATOM      9  C   UNL     1       7.385   4.893  14.067  0.00  0.00    +0.000 A 
ATOM     10  N   UNL     1       8.335   5.716  13.643  0.00  0.00    +0.000 NA
ATOM     11  N   UNL     1       8.282   5.720  12.281  0.00  0.00    +0.000 NA
ATOM     12  N   UNL     1       7.323   4.921  11.845  0.00  0.00    +0.000 NA
ATOM     13  N   UNL     1       6.799   4.340  12.948  0.00  0.00    +0.000 N 
BRANCH  13  14
ATOM     14  C   UNL     1       5.844   3.278  12.775  0.00  0.00    +0.000 C 
ATOM     15  C   UNL     1       4.652   3.429  11.841  0.00  0.00    +0.000 C 
ATOM     16  C   UNL     1       5.682   2.377  11.569  0.00  0.00    +0.000 C 
ENDBRANCH  13  14
ENDBRANCH   8   9
ENDBRANCH   3   8
BRANCH   6  17
ATOM     17  C   UNL     1       4.234   3.389  19.036  0.00  0.00    +0.000 C 
BRANCH  17  18
ATOM     18  C   UNL     1       2.757   3.280  19.102  0.00  0.00    +0.000 A 
ATOM     19  N   UNL     1       2.028   2.308  18.573  0.00  0.00    +0.000 NA
ATOM     20  N   UNL     1       0.748   2.499  19.025  0.00  0.00    +0.000 NA
ATOM     21  N   UNL     1       0.675   3.560  19.815  0.00  0.00    +0.000 NA
ATOM     22  N   UNL     1       1.921   4.068  19.842  0.00  0.00    +0.000 N 
BRANCH  22  23
ATOM     23  C   UNL     1       2.272   5.258  20.581  0.00  0.00    +0.000 C 
ATOM     24  C   UNL     1       2.219   6.633  19.930  0.00  0.00    +0.000 C 
ATOM     25  C   UNL     1       1.218   6.280  20.972  0.00  0.00    +0.000 C 
ENDBRANCH  22  23
ENDBRANCH  17  18
ENDBRANCH   6  17
TORSDOF 6
ENDMDL
MODEL 4
REMARK VINA RESULT:      -7.7      1.121      1.972
REMARK  Name = 
REMARK  6 active torsions:
REMARK  status: ('A' for Active; 'I' for Inactive)
REMARK    1  A    between atoms: N_3  and  C_4
REMARK    2  A    between atoms: C_4  and  C_5
REMARK    3  A    between atoms: N_9  and  C_10
REMARK    4  A    between atoms: N_15  and  C_16
REMARK    5  A    between atoms: C_16  and  C_17
REMARK    6  A    between atoms: N_21  and  C_22
REMARK                            x       y       z     vdW  Elec       q    Type
REMARK                         _______ _______ _______ _____ _____    ______ ____
ROOT
ATOM      1  C   UNL     1       7.629   5.413  18.688  0.00  0.00    +0.000 C 
ATOM      2  C   UNL     1       6.506   5.798  19.664  0.00  0.00    +0.000 C 
ATOM      3  N   UNL     1       5.108   5.689  19.246  0.00  0.00    +0.000 NA
ATOM      4  C   UNL     1       4.903   6.273  17.921  0.00  0.00    +0.000 C 
ATOM      5  C   UNL     1       5.213   5.412  16.688  0.00  0.00    +0.000 C 
ATOM      6  N   UNL     1       6.611   5.036  16.383  0.00  0.00    +0.000 NA
ATOM      7  C   UNL     1       7.338   4.457  17.529  0.00  0.00    +0.000 C 
ENDROOT
BRANCH   3   8
ATOM      8  C   UNL     1       4.553   4.355  19.542  0.00  0.00    +0.000 C 
BRANCH   8   9
ATOM      9  C   UNL     1       3.114   4.250  19.904  0.00  0.00    +0.000 A 
ATOM     10  N   UNL     1       2.442   5.208  20.528  0.00  0.00    +0.000 NA
ATOM     11  N   UNL     1       1.172   4.749  20.715  0.00  0.00    +0.000 NA
ATOM     12  N   UNL     1       1.036   3.529  20.225  0.00  0.00    +0.000 NA
ATOM     13  N   UNL     1       2.222   3.230  19.649  0.00  0.00    +0.000 N 
BRANCH  13  14
ATOM     14  C   UNL     1       2.322   2.024  18.871  0.00  0.00    +0.000 C 
ATOM     15  C   UNL     1       2.645   2.065  17.384  0.00  0.00    +0.000 C 
ATOM     16  C   UNL     1       3.582   1.383  18.330  0.00  0.00    +0.000 C 
ENDBRANCH  13  14
ENDBRANCH   8   9
ENDBRANCH   3   8
BRANCH   6  17
ATOM     17  C   UNL     1       6.513   4.052  15.263  0.00  0.00    +0.000 C 
BRANCH  17  18
ATOM     18  C   UNL     1       6.931   4.519  13.919  0.00  0.00    +0.000 A 
ATOM     19  N   UNL     1       7.863   5.426  13.670  0.00  0.00    +0.000 NA
ATOM     20  N   UNL     1       8.055   5.416  12.313  0.00  0.00    +0.000 NA
ATOM     21  N   UNL     1       7.265   4.530  11.726  0.00  0.00    +0.000 NA
ATOM     22  N   UNL     1       6.541   3.988  12.722  0.00  0.00    +0.000 N 
BRANCH  22  23
ATOM     23  C   UNL     1       5.529   2.979  12.504  0.00  0.00    +0.000 C 
ATOM     24  C   UNL     1       4.460   3.155  11.435  0.00  0.00    +0.000 C 
ATOM     25  C   UNL     1       5.523   2.132  11.243  0.00  0.00    +0.000 C 
ENDBRANCH  22  23
ENDBRANCH  17  18
ENDBRANCH   6  17
TORSDOF 6
ENDMDL
MODEL 5
REMARK VINA RESULT:      -7.7      0.807      7.291
REMARK  Name = 
REMARK  6 active torsions:
REMARK  status: ('A' for Active; 'I' for Inactive)
REMARK    1  A    between atoms: N_3  and  C_4
REMARK    2  A    between atoms: C_4  and  C_5
REMARK    3  A    between atoms: N_9  and  C_10
REMARK    4  A    between atoms: N_15  and  C_16
REMARK    5  A    between atoms: C_16  and  C_17
REMARK    6  A    between atoms: N_21  and  C_22
REMARK                            x       y       z     vdW  Elec       q    Type
REMARK                         _______ _______ _______ _____ _____    ______ ____
ROOT
ATOM      1  C   UNL     1       4.430   6.755  17.414  0.00  0.00    +0.000 C 
ATOM      2  C   UNL     1       5.521   6.989  16.358  0.00  0.00    +0.000 C 
ATOM      3  N   UNL     1       6.672   6.086  16.288  0.00  0.00    +0.000 NA
ATOM      4  C   UNL     1       7.238   5.845  17.614  0.00  0.00    +0.000 C 
ATOM      5  C   UNL     1       6.597   4.763  18.496  0.00  0.00    +0.000 C 
ATOM      6  N   UNL     1       5.235   4.965  19.037  0.00  0.00    +0.000 NA
ATOM      7  C   UNL     1       4.241   5.364  18.023  0.00  0.00    +0.000 C 
ENDROOT
BRANCH   3   8
ATOM      8  C   UNL     1       6.414   4.944  15.392  0.00  0.00    +0.000 C 
BRANCH   8   9
ATOM      9  C   UNL     1       7.003   4.966  14.026  0.00  0.00    +0.000 A 
ATOM     10  N   UNL     1       8.058   5.698  13.694  0.00  0.00    +0.000 NA
ATOM     11  N   UNL     1       8.289   5.487  12.367  0.00  0.00    +0.000 NA
ATOM     12  N   UNL     1       7.404   4.644  11.864  0.00  0.00    +0.000 NA
ATOM     13  N   UNL     1       6.636   4.253  12.905  0.00  0.00    +0.000 N 
BRANCH  13  14
ATOM     14  C   UNL     1       5.687   3.191  12.697  0.00  0.00    +0.000 C 
ATOM     15  C   UNL     1       4.550   3.331  11.695  0.00  0.00    +0.000 C 
ATOM     16  C   UNL     1       5.589   2.271  11.499  0.00  0.00    +0.000 C 
ENDBRANCH  13  14
ENDBRANCH   8   9
ENDBRANCH   3   8
BRANCH   6  17
ATOM     17  C   UNL     1       4.866   3.656  19.657  0.00  0.00    +0.000 C 
BRANCH  17  18
ATOM     18  C   UNL     1       3.694   2.950  19.087  0.00  0.00    +0.000 A 
ATOM     19  N   UNL     1       3.723   2.085  18.085  0.00  0.00    +0.000 NA
ATOM     20  N   UNL     1       2.467   1.542  18.010  0.00  0.00    +0.000 NA
ATOM     21  N   UNL     1       1.671   2.050  18.939  0.00  0.00    +0.000 NA
ATOM     22  N   UNL     1       2.425   2.952  19.594  0.00  0.00    +0.000 N 
BRANCH  22  23
ATOM     23  C   UNL     1       1.923   3.758  20.683  0.00  0.00    +0.000 C 
ATOM     24  C   UNL     1       1.933   5.278  20.608  0.00  0.00    +0.000 C 
ATOM     25  C   UNL     1       0.636   4.554  20.544  0.00  0.00    +0.000 C 
ENDBRANCH  22  23
ENDBRANCH  17  18
ENDBRANCH   6  17
TORSDOF 6
ENDMDL
MODEL 6
REMARK VINA RESULT:      -7.7      1.438      2.312
REMARK  Name = 
REMARK  6 active torsions:
REMARK  status: ('A' for Active; 'I' for Inactive)
REMARK    1  A    between atoms: N_3  and  C_4
REMARK    2  A    between atoms: C_4  and  C_5
REMARK    3  A    between atoms: N_9  and  C_10
REMARK    4  A    between atoms: N_15  and  C_16
REMARK    5  A    between atoms: C_16  and  C_17
REMARK    6  A    between atoms: N_21  and  C_22
REMARK                            x       y       z     vdW  Elec       q    Type
REMARK                         _______ _______ _______ _____ _____    ______ ____
ROOT
ATOM      1  C   UNL     1       5.917   5.105  19.219  0.00  0.00    +0.000 C 
ATOM      2  C   UNL     1       4.673   5.851  19.727  0.00  0.00    +0.000 C 
ATOM      3  N   UNL     1       3.591   6.179  18.797  0.00  0.00    +0.000 NA
ATOM      4  C   UNL     1       4.112   6.763  17.562  0.00  0.00    +0.000 C 
ATOM      5  C   UNL     1       4.609   5.817  16.459  0.00  0.00    +0.000 C 
ATOM      6  N   UNL     1       5.830   5.010  16.675  0.00  0.00    +0.000 NA
ATOM      7  C   UNL     1       5.835   4.260  17.946  0.00  0.00    +0.000 C 
ENDROOT
BRANCH   3   8
ATOM      8  C   UNL     1       2.591   5.098  18.721  0.00  0.00    +0.000 C 
BRANCH   8   9
ATOM      9  C   UNL     1       2.414   4.212  19.902  0.00  0.00    +0.000 A 
ATOM     10  N   UNL     1       2.149   4.659  21.122  0.00  0.00    +0.000 NA
ATOM     11  N   UNL     1       2.085   3.571  21.941  0.00  0.00    +0.000 NA
ATOM     12  N   UNL     1       2.303   2.458  21.263  0.00  0.00    +0.000 NA
ATOM     13  N   UNL     1       2.440   2.835  19.972  0.00  0.00    +0.000 N 
BRANCH  13  14
ATOM     14  C   UNL     1       2.514   1.812  18.962  0.00  0.00    +0.000 C 
ATOM     15  C   UNL     1       2.815   2.153  17.510  0.00  0.00    +0.000 C 
ATOM     16  C   UNL     1       3.759   1.284  18.281  0.00  0.00    +0.000 C 
ENDBRANCH  13  14
ENDBRANCH   8   9
ENDBRANCH   3   8
BRANCH   6  17
ATOM     17  C   UNL     1       5.891   4.078  15.508  0.00  0.00    +0.000 C 
BRANCH  17  18
ATOM     18  C   UNL     1       6.600   4.562  14.299  0.00  0.00    +0.000 A 
ATOM     19  N   UNL     1       7.545   5.490  14.275  0.00  0.00    +0.000 NA
ATOM     20  N   UNL     1       8.048   5.491  13.000  0.00  0.00    +0.000 NA
ATOM     21  N   UNL     1       7.437   4.591  12.245  0.00  0.00    +0.000 NA
ATOM     22  N   UNL     1       6.512   4.029  13.044  0.00  0.00    +0.000 N 
BRANCH  22  23
ATOM     23  C   UNL     1       5.602   2.999  12.596  0.00  0.00    +0.000 C 
ATOM     24  C   UNL     1       4.487   3.310  11.607  0.00  0.00    +0.000 C 
ATOM     25  C   UNL     1       5.642   2.482  11.168  0.00  0.00    +0.000 C 
ENDBRANCH  22  23
ENDBRANCH  17  18
ENDBRANCH   6  17
TORSDOF 6
ENDMDL
MODEL 7
REMARK VINA RESULT:      -7.4      4.293      8.633
REMARK  Name = 
REMARK  6 active torsions:
REMARK  status: ('A' for Active; 'I' for Inactive)
REMARK    1  A    between atoms: N_3  and  C_4
REMARK    2  A    between atoms: C_4  and  C_5
REMARK    3  A    between atoms: N_9  and  C_10
REMARK    4  A    between atoms: N_15  and  C_16
REMARK    5  A    between atoms: C_16  and  C_17
REMARK    6  A    between atoms: N_21  and  C_22
REMARK                            x       y       z     vdW  Elec       q    Type
REMARK                         _______ _______ _______ _____ _____    ______ ____
ROOT
ATOM      1  C   UNL     1       1.478   5.033  20.287  0.00  0.00    +0.000 C 
ATOM      2  C   UNL     1       2.563   4.277  19.504  0.00  0.00    +0.000 C 
ATOM      3  N   UNL     1       3.547   5.023  18.717  0.00  0.00    +0.000 NA
ATOM      4  C   UNL     1       2.905   6.054  17.903  0.00  0.00    +0.000 C 
ATOM      5  C   UNL     1       2.583   7.405  18.558  0.00  0.00    +0.000 C 
ATOM      6  N   UNL     1       1.544   7.487  19.608  0.00  0.00    +0.000 NA
ATOM      7  C   UNL     1       1.702   6.493  20.686  0.00  0.00    +0.000 C 
ENDROOT
BRANCH   3   8
ATOM      8  C   UNL     1       4.735   5.370  19.519  0.00  0.00    +0.000 C 
BRANCH   8   9
ATOM      9  C   UNL     1       6.081   5.074  18.958  0.00  0.00    +0.000 A 
ATOM     10  N   UNL     1       7.200   5.128  19.667  0.00  0.00    +0.000 NA
ATOM     11  N   UNL     1       8.225   4.826  18.820  0.00  0.00    +0.000 NA
ATOM     12  N   UNL     1       7.773   4.586  17.602  0.00  0.00    +0.000 NA
ATOM     13  N   UNL     1       6.425   4.666  17.687  0.00  0.00    +0.000 N 
BRANCH  13  14
ATOM     14  C   UNL     1       5.641   4.275  16.545  0.00  0.00    +0.000 C 
ATOM     15  C   UNL     1       5.494   5.188  15.337  0.00  0.00    +0.000 C 
ATOM     16  C   UNL     1       6.152   3.852  15.184  0.00  0.00    +0.000 C 
ENDBRANCH  13  14
ENDBRANCH   8   9
ENDBRANCH   3   8
BRANCH   6  17
ATOM     17  C   UNL     1       1.645   8.877  20.146  0.00  0.00    +0.000 C 
BRANCH  17  18
ATOM     18  C   UNL     1       0.546   9.812  19.805  0.00  0.00    +0.000 A 
ATOM     19  N   UNL     1       0.013   9.976  18.604  0.00  0.00    +0.000 NA
ATOM     20  N   UNL     1      -1.080  10.785  18.776  0.00  0.00    +0.000 NA
ATOM     21  N   UNL     1      -1.229  11.121  20.048  0.00  0.00    +0.000 NA
ATOM     22  N   UNL     1      -0.199  10.540  20.690  0.00  0.00    +0.000 N 
BRANCH  22  23
ATOM     23  C   UNL     1       0.025  10.678  22.111  0.00  0.00    +0.000 C 
ATOM     24  C   UNL     1      -1.139  10.705  23.092  0.00  0.00    +0.000 C 
ATOM     25  C   UNL     1      -0.235   9.524  23.064  0.00  0.00    +0.000 C 
ENDBRANCH  22  23
ENDBRANCH  17  18
ENDBRANCH   6  17
TORSDOF 6
ENDMDL
MODEL 8
REMARK VINA RESULT:      -7.4      3.487      7.774
REMARK  Name = 
REMARK  6 active torsions:
REMARK  status: ('A' for Active; 'I' for Inactive)
REMARK    1  A    between atoms: N_3  and  C_4
REMARK    2  A    between atoms: C_4  and  C_5
REMARK    3  A    between atoms: N_9  and  C_10
REMARK    4  A    between atoms: N_15  and  C_16
REMARK    5  A    between atoms: C_16  and  C_17
REMARK    6  A    between atoms: N_21  and  C_22
REMARK                            x       y       z     vdW  Elec       q    Type
REMARK                         _______ _______ _______ _____ _____    ______ ____
ROOT
ATOM      1  C   UNL     1       2.508   4.145  20.335  0.00  0.00    +0.000 C 
ATOM      2  C   UNL     1       3.161   3.116  19.400  0.00  0.00    +0.000 C 
ATOM      3  N   UNL     1       3.744   3.552  18.130  0.00  0.00    +0.000 NA
ATOM      4  C   UNL     1       2.840   4.448  17.410  0.00  0.00    +0.000 C 
ATOM      5  C   UNL     1       2.838   5.938  17.783  0.00  0.00    +0.000 C 
ATOM      6  N   UNL     1       2.326   6.367  19.103  0.00  0.00    +0.000 NA
ATOM      7  C   UNL     1       2.901   5.622  20.239  0.00  0.00    +0.000 C 
ENDROOT
BRANCH   3   8
ATOM      8  C   UNL     1       5.163   3.926  18.282  0.00  0.00    +0.000 C 
BRANCH   8   9
ATOM      9  C   UNL     1       5.906   4.392  17.081  0.00  0.00    +0.000 A 
ATOM     10  N   UNL     1       5.945   3.723  15.937  0.00  0.00    +0.000 NA
ATOM     11  N   UNL     1       6.737   4.434  15.085  0.00  0.00    +0.000 NA
ATOM     12  N   UNL     1       7.194   5.527  15.669  0.00  0.00    +0.000 NA
ATOM     13  N   UNL     1       6.626   5.553  16.896  0.00  0.00    +0.000 N 
BRANCH  13  14
ATOM     14  C   UNL     1       6.798   6.729  17.707  0.00  0.00    +0.000 C 
ATOM     15  C   UNL     1       8.025   6.908  18.590  0.00  0.00    +0.000 C 
ATOM     16  C   UNL     1       7.765   7.870  17.474  0.00  0.00    +0.000 C 
ENDBRANCH  13  14
ENDBRANCH   8   9
ENDBRANCH   3   8
BRANCH   6  17
ATOM     17  C   UNL     1       2.664   7.820  19.196  0.00  0.00    +0.000 C 
BRANCH  17  18
ATOM     18  C   UNL     1       1.544   8.781  19.043  0.00  0.00    +0.000 A 
ATOM     19  N   UNL     1       1.120   9.299  17.900  0.00  0.00    +0.000 NA
ATOM     20  N   UNL     1      -0.034   9.978  18.193  0.00  0.00    +0.000 NA
ATOM     21  N   UNL     1      -0.325   9.890  19.482  0.00  0.00    +0.000 NA
ATOM     22  N   UNL     1       0.673   9.168  20.022  0.00  0.00    +0.000 N 
BRANCH  22  23
ATOM     23  C   UNL     1       0.751   8.857  21.431  0.00  0.00    +0.000 C 
ATOM     24  C   UNL     1       0.362   9.883  22.486  0.00  0.00    +0.000 C 
ATOM     25  C   UNL     1      -0.506   8.694  22.270  0.00  0.00    +0.000 C 
ENDBRANCH  22  23
ENDBRANCH  17  18
ENDBRANCH   6  17
TORSDOF 6
ENDMDL
MODEL 9
REMARK VINA RESULT:      -7.3      2.870      7.512
REMARK  Name = 
REMARK  6 active torsions:
REMARK  status: ('A' for Active; 'I' for Inactive)
REMARK    1  A    between atoms: N_3  and  C_4
REMARK    2  A    between atoms: C_4  and  C_5
REMARK    3  A    between atoms: N_9  and  C_10
REMARK    4  A    between atoms: N_15  and  C_16
REMARK    5  A    between atoms: C_16  and  C_17
REMARK    6  A    between atoms: N_21  and  C_22
REMARK                            x       y       z     vdW  Elec       q    Type
REMARK                         _______ _______ _______ _____ _____    ______ ____
ROOT
ATOM      1  C   UNL     1       2.722   2.421  19.711  0.00  0.00    +0.000 C 
ATOM      2  C   UNL     1       3.462   2.122  18.398  0.00  0.00    +0.000 C 
ATOM      3  N   UNL     1       3.821   3.219  17.498  0.00  0.00    +0.000 NA
ATOM      4  C   UNL     1       2.695   4.129  17.294  0.00  0.00    +0.000 C 
ATOM      5  C   UNL     1       2.445   5.227  18.338  0.00  0.00    +0.000 C 
ATOM      6  N   UNL     1       1.996   4.863  19.699  0.00  0.00    +0.000 NA
ATOM      7  C   UNL     1       2.813   3.814  20.339  0.00  0.00    +0.000 C 
ENDROOT
BRANCH   3   8
ATOM      8  C   UNL     1       5.150   3.773  17.817  0.00  0.00    +0.000 C 
BRANCH   8   9
ATOM      9  C   UNL     1       5.968   4.337  16.710  0.00  0.00    +0.000 A 
ATOM     10  N   UNL     1       6.101   3.755  15.526  0.00  0.00    +0.000 NA
ATOM     11  N   UNL     1       6.938   4.538  14.788  0.00  0.00    +0.000 NA
ATOM     12  N   UNL     1       7.331   5.592  15.483  0.00  0.00    +0.000 NA
ATOM     13  N   UNL     1       6.676   5.519  16.664  0.00  0.00    +0.000 N 
BRANCH  13  14
ATOM     14  C   UNL     1       6.768   6.633  17.569  0.00  0.00    +0.000 C 
ATOM     15  C   UNL     1       7.890   6.731  18.592  0.00  0.00    +0.000 C 
ATOM     16  C   UNL     1       7.765   7.772  17.524  0.00  0.00    +0.000 C 
ENDBRANCH  13  14
ENDBRANCH   8   9
ENDBRANCH   3   8
BRANCH   6  17
ATOM     17  C   UNL     1       2.056   6.135  20.481  0.00  0.00    +0.000 C 
BRANCH  17  18
ATOM     18  C   UNL     1       2.034   7.400  19.708  0.00  0.00    +0.000 A 
ATOM     19  N   UNL     1       2.643   7.612  18.552  0.00  0.00    +0.000 NA
ATOM     20  N   UNL     1       2.210   8.835  18.109  0.00  0.00    +0.000 NA
ATOM     21  N   UNL     1       1.354   9.376  18.962  0.00  0.00    +0.000 NA
ATOM     22  N   UNL     1       1.264   8.497  19.977  0.00  0.00    +0.000 N 
BRANCH  22  23
ATOM     23  C   UNL     1       0.439   8.719  21.143  0.00  0.00    +0.000 C 
ATOM     24  C   UNL     1       1.044   9.193  22.456  0.00  0.00    +0.000 C 
ATOM     25  C   UNL     1       0.187  10.121  21.671  0.00  0.00    +0.000 C 
ENDBRANCH  22  23
ENDBRANCH  17  18
ENDBRANCH   6  17
TORSDOF 6
ENDMDL
