MODEL 1
REMARK VINA RESULT:      -8.2      0.000      0.000
REMARK  Name = 
REMARK  5 active torsions:
REMARK  status: ('A' for Active; 'I' for Inactive)
REMARK    1  A    between atoms: C_4  and  C_5
REMARK    2  A    between atoms: C_14  and  C_15
REMARK    3  A    between atoms: C_15  and  C_16
REMARK    4  A    between atoms: C_16  and  N_17
REMARK    5  A    between atoms: N_17  and  C_18
REMARK                            x       y       z     vdW  Elec       q    Type
REMARK                         _______ _______ _______ _____ _____    ______ ____
ROOT
ATOM      1  O   UNL     1       4.087   2.229  19.997  0.00  0.00    +0.000 OA
ATOM      2  C   UNL     1       4.072   3.298  19.401  0.00  0.00    +0.000 C 
ATOM      3  C   UNL     1       4.881   3.498  18.178  0.00  0.00    +0.000 C 
ATOM      4  C   UNL     1       4.919   4.685  17.530  0.00  0.00    +0.000 C 
ATOM      5  C   UNL     1       4.186   5.909  18.021  0.00  0.00    +0.000 C 
ATOM      6  O   UNL     1       4.325   7.014  17.496  0.00  0.00    +0.000 OA
ATOM      7  C   UNL     1       3.302   5.651  19.148  0.00  0.00    +0.000 A 
ATOM      8  C   UNL     1       2.337   6.474  19.801  0.00  0.00    +0.000 A 
ATOM      9  C   UNL     1       1.758   5.703  20.797  0.00  0.00    +0.000 A 
ATOM     10  N   UNL     1       2.349   4.468  20.788  0.00  0.00    +0.000 N 
ATOM     11  C   UNL     1       3.271   4.423  19.783  0.00  0.00    +0.000 A 
ATOM     12  H   UNL     1       2.124   3.692  21.403  0.00  0.00    +0.000 HD
ENDROOT
BRANCH   4  13
ATOM     13  C   UNL     1       5.672   4.751  16.272  0.00  0.00    +0.000 A 
ATOM     14  C   UNL     1       5.180   4.147  15.111  0.00  0.00    +0.000 A 
ATOM     15  C   UNL     1       5.922   4.210  13.934  0.00  0.00    +0.000 A 
ATOM     16  C   UNL     1       7.139   4.871  13.959  0.00  0.00    +0.000 A 
ATOM     17  N   UNL     1       7.648   5.462  15.062  0.00  0.00    +0.000 NA
ATOM     18  C   UNL     1       6.900   5.400  16.190  0.00  0.00    +0.000 A 
ENDBRANCH   4  13
BRANCH   8  19
ATOM     19  C   UNL     1       1.994   7.889  19.461  0.00  0.00    +0.000 C 
BRANCH  19  20
ATOM     20  C   UNL     1       1.329   8.631  20.634  0.00  0.00    +0.000 C 
BRANCH  20  21
ATOM     21  N   UNL     1       0.384   9.593  20.087  0.00  0.00    +0.000 NA
ATOM     22  H   UNL     1       0.433  10.450  20.641  0.00  0.00    +0.000 HD
BRANCH  21  23
ATOM     23  C   UNL     1       0.540   9.943  18.672  0.00  0.00    +0.000 C 
ATOM     24  C   UNL     1      -0.735   9.938  17.802  0.00  0.00    +0.000 C 
ATOM     25  C   UNL     1      -1.765  11.003  18.180  0.00  0.00    +0.000 C 
ATOM     26  C   UNL     1      -1.141  12.391  18.311  0.00  0.00    +0.000 C 
ATOM     27  C   UNL     1       0.086  12.376  19.215  0.00  0.00    +0.000 C 
ATOM     28  C   UNL     1       1.122  11.368  18.706  0.00  0.00    +0.000 C 
ENDBRANCH  21  23
ENDBRANCH  20  21
ENDBRANCH  19  20
ENDBRANCH   8  19
TORSDOF 5
ENDMDL
MODEL 2
REMARK VINA RESULT:      -8.0      1.004      1.049
REMARK  Name = 
REMARK  5 active torsions:
REMARK  status: ('A' for Active; 'I' for Inactive)
REMARK    1  A    between atoms: C_4  and  C_5
REMARK    2  A    between atoms: C_14  and  C_15
REMARK    3  A    between atoms: C_15  and  C_16
REMARK    4  A    between atoms: C_16  and  N_17
REMARK    5  A    between atoms: N_17  and  C_18
REMARK                            x       y       z     vdW  Elec       q    Type
REMARK                         _______ _______ _______ _____ _____    ______ ____
ROOT
ATOM      1  O   UNL     1       2.612   1.472  18.904  0.00  0.00    +0.000 OA
ATOM      2  C   UNL     1       2.975   2.621  18.682  0.00  0.00    +0.000 C 
ATOM      3  C   UNL     1       4.008   2.908  17.662  0.00  0.00    +0.000 C 
ATOM      4  C   UNL     1       4.460   4.162  17.434  0.00  0.00    +0.000 C 
ATOM      5  C   UNL     1       3.992   5.357  18.227  0.00  0.00    +0.000 C 
ATOM      6  O   UNL     1       4.498   6.473  18.098  0.00  0.00    +0.000 OA
ATOM      7  C   UNL     1       2.889   5.067  19.132  0.00  0.00    +0.000 A 
ATOM      8  C   UNL     1       2.069   5.919  19.929  0.00  0.00    +0.000 A 
ATOM      9  C   UNL     1       1.148   5.107  20.571  0.00  0.00    +0.000 A 
ATOM     10  N   UNL     1       1.396   3.808  20.219  0.00  0.00    +0.000 N 
ATOM     11  C   UNL     1       2.436   3.777  19.334  0.00  0.00    +0.000 A 
ATOM     12  H   UNL     1       0.877   2.993  20.530  0.00  0.00    +0.000 HD
ENDROOT
BRANCH   4  13
ATOM     13  C   UNL     1       5.411   4.355  16.333  0.00  0.00    +0.000 A 
ATOM     14  C   UNL     1       4.985   4.305  15.002  0.00  0.00    +0.000 A 
ATOM     15  C   UNL     1       5.911   4.473  13.975  0.00  0.00    +0.000 A 
ATOM     16  C   UNL     1       7.237   4.681  14.314  0.00  0.00    +0.000 A 
ATOM     17  N   UNL     1       7.686   4.730  15.588  0.00  0.00    +0.000 NA
ATOM     18  C   UNL     1       6.764   4.578  16.569  0.00  0.00    +0.000 A 
ENDBRANCH   4  13
BRANCH   8  19
ATOM     19  C   UNL     1       2.164   7.408  20.032  0.00  0.00    +0.000 C 
BRANCH  19  20
ATOM     20  C   UNL     1       1.279   7.978  21.154  0.00  0.00    +0.000 C 
BRANCH  20  21
ATOM     21  N   UNL     1       0.323   8.898  20.557  0.00  0.00    +0.000 NA
ATOM     22  H   UNL     1      -0.190   9.367  21.306  0.00  0.00    +0.000 HD
BRANCH  21  23
ATOM     23  C   UNL     1       0.862   9.917  19.653  0.00  0.00    +0.000 C 
ATOM     24  C   UNL     1       0.337   9.918  18.202  0.00  0.00    +0.000 C 
ATOM     25  C   UNL     1      -1.147  10.263  18.064  0.00  0.00    +0.000 C 
ATOM     26  C   UNL     1      -1.520  11.530  18.830  0.00  0.00    +0.000 C 
ATOM     27  C   UNL     1      -1.033  11.482  20.274  0.00  0.00    +0.000 C 
ATOM     28  C   UNL     1       0.481  11.249  20.327  0.00  0.00    +0.000 C 
ENDBRANCH  21  23
ENDBRANCH  20  21
ENDBRANCH  19  20
ENDBRANCH   8  19
TORSDOF 5
ENDMDL
MODEL 3
REMARK VINA RESULT:      -7.9      1.377      1.779
REMARK  Name = 
REMARK  5 active torsions:
REMARK  status: ('A' for Active; 'I' for Inactive)
REMARK    1  A    between atoms: C_4  and  C_5
REMARK    2  A    between atoms: C_14  and  C_15
REMARK    3  A    between atoms: C_15  and  C_16
REMARK    4  A    between atoms: C_16  and  N_17
REMARK    5  A    between atoms: N_17  and  C_18
REMARK                            x       y       z     vdW  Elec       q    Type
REMARK                         _______ _______ _______ _____ _____    ______ ____
ROOT
ATOM      1  O   UNL     1       5.278   3.814  19.783  0.00  0.00    +0.000 OA
ATOM      2  C   UNL     1       5.001   4.565  18.856  0.00  0.00    +0.000 C 
ATOM      3  C   UNL     1       5.659   4.421  17.538  0.00  0.00    +0.000 C 
ATOM      4  C   UNL     1       5.406   5.270  16.516  0.00  0.00    +0.000 C 
ATOM      5  C   UNL     1       4.480   6.453  16.644  0.00  0.00    +0.000 C 
ATOM      6  O   UNL     1       4.353   7.290  15.748  0.00  0.00    +0.000 OA
ATOM      7  C   UNL     1       3.753   6.497  17.904  0.00  0.00    +0.000 A 
ATOM      8  C   UNL     1       2.694   7.337  18.357  0.00  0.00    +0.000 A 
ATOM      9  C   UNL     1       2.359   6.911  19.633  0.00  0.00    +0.000 A 
ATOM     10  N   UNL     1       3.186   5.876  19.975  0.00  0.00    +0.000 N 
ATOM     11  C   UNL     1       4.020   5.607  18.928  0.00  0.00    +0.000 A 
ATOM     12  H   UNL     1       3.170   5.359  20.849  0.00  0.00    +0.000 HD
ENDROOT
BRANCH   4  13
ATOM     13  C   UNL     1       6.034   4.982  15.221  0.00  0.00    +0.000 A 
ATOM     14  C   UNL     1       5.448   4.080  14.326  0.00  0.00    +0.000 A 
ATOM     15  C   UNL     1       6.073   3.811  13.110  0.00  0.00    +0.000 A 
ATOM     16  C   UNL     1       7.269   4.450  12.831  0.00  0.00    +0.000 A 
ATOM     17  N   UNL     1       7.867   5.323  13.672  0.00  0.00    +0.000 NA
ATOM     18  C   UNL     1       7.232   5.579  14.841  0.00  0.00    +0.000 A 
ENDBRANCH   4  13
BRANCH   8  19
ATOM     19  C   UNL     1       2.047   8.448  17.594  0.00  0.00    +0.000 C 
BRANCH  19  20
ATOM     20  C   UNL     1       2.305   9.826  18.227  0.00  0.00    +0.000 C 
BRANCH  20  21
ATOM     21  N   UNL     1       1.061  10.580  18.200  0.00  0.00    +0.000 NA
ATOM     22  H   UNL     1       0.863  10.848  17.234  0.00  0.00    +0.000 HD
BRANCH  21  23
ATOM     23  C   UNL     1      -0.125   9.920  18.752  0.00  0.00    +0.000 C 
ATOM     24  C   UNL     1      -0.485  10.236  20.220  0.00  0.00    +0.000 C 
ATOM     25  C   UNL     1      -0.900  11.685  20.475  0.00  0.00    +0.000 C 
ATOM     26  C   UNL     1      -1.961  12.165  19.489  0.00  0.00    +0.000 C 
ATOM     27  C   UNL     1      -1.559  11.887  18.045  0.00  0.00    +0.000 C 
ATOM     28  C   UNL     1      -1.272  10.395  17.840  0.00  0.00    +0.000 C 
ENDBRANCH  21  23
ENDBRANCH  20  21
ENDBRANCH  19  20
ENDBRANCH   8  19
TORSDOF 5
ENDMDL
MODEL 4
REMARK VINA RESULT:      -7.9      0.945      1.352
REMARK  Name = 
REMARK  5 active torsions:
REMARK  status: ('A' for Active; 'I' for Inactive)
REMARK    1  A    between atoms: C_4  and  C_5
REMARK    2  A    between atoms: C_14  and  C_15
REMARK    3  A    between atoms: C_15  and  C_16
REMARK    4  A    between atoms: C_16  and  N_17
REMARK    5  A    between atoms: N_17  and  C_18
REMARK                            x       y       z     vdW  Elec       q    Type
REMARK                         _______ _______ _______ _____ _____    ______ ____
ROOT
ATOM      1  O   UNL     1       3.560   2.880  20.170  0.00  0.00    +0.000 OA
ATOM      2  C   UNL     1       3.684   3.892  19.492  0.00  0.00    +0.000 C 
ATOM      3  C   UNL     1       4.547   3.899  18.289  0.00  0.00    +0.000 C 
ATOM      4  C   UNL     1       4.738   5.017  17.552  0.00  0.00    +0.000 C 
ATOM      5  C   UNL     1       4.134   6.351  17.916  0.00  0.00    +0.000 C 
ATOM      6  O   UNL     1       4.413   7.387  17.311  0.00  0.00    +0.000 OA
ATOM      7  C   UNL     1       3.192   6.287  19.024  0.00  0.00    +0.000 A 
ATOM      8  C   UNL     1       2.307   7.261  19.571  0.00  0.00    +0.000 A 
ATOM      9  C   UNL     1       1.614   6.644  20.601  0.00  0.00    +0.000 A 
ATOM     10  N   UNL     1       2.063   5.355  20.713  0.00  0.00    +0.000 N 
ATOM     11  C   UNL     1       3.004   5.126  19.751  0.00  0.00    +0.000 A 
ATOM     12  H   UNL     1       1.733   4.662  21.377  0.00  0.00    +0.000 HD
ENDROOT
BRANCH   4  13
ATOM     13  C   UNL     1       5.532   4.896  16.324  0.00  0.00    +0.000 A 
ATOM     14  C   UNL     1       5.008   4.264  15.192  0.00  0.00    +0.000 A 
ATOM     15  C   UNL     1       5.788   4.146  14.044  0.00  0.00    +0.000 A 
ATOM     16  C   UNL     1       7.073   4.661  14.068  0.00  0.00    +0.000 A 
ATOM     17  N   UNL     1       7.615   5.275  15.143  0.00  0.00    +0.000 NA
ATOM     18  C   UNL     1       6.831   5.389  16.242  0.00  0.00    +0.000 A 
ENDBRANCH   4  13
BRANCH   8  19
ATOM     19  C   UNL     1       2.136   8.672  19.107  0.00  0.00    +0.000 C 
BRANCH  19  20
ATOM     20  C   UNL     1       1.210   8.782  17.883  0.00  0.00    +0.000 C 
BRANCH  20  21
ATOM     21  N   UNL     1       0.533  10.068  17.938  0.00  0.00    +0.000 NA
ATOM     22  H   UNL     1       0.348  10.381  16.983  0.00  0.00    +0.000 HD
BRANCH  21  23
ATOM     23  C   UNL     1      -0.719  10.125  18.698  0.00  0.00    +0.000 C 
ATOM     24  C   UNL     1      -0.613  10.443  20.205  0.00  0.00    +0.000 C 
ATOM     25  C   UNL     1      -0.098  11.847  20.523  0.00  0.00    +0.000 C 
ATOM     26  C   UNL     1      -0.842  12.927  19.740  0.00  0.00    +0.000 C 
ATOM     27  C   UNL     1      -0.889  12.614  18.249  0.00  0.00    +0.000 C 
ATOM     28  C   UNL     1      -1.523  11.241  18.004  0.00  0.00    +0.000 C 
ENDBRANCH  21  23
ENDBRANCH  20  21
ENDBRANCH  19  20
ENDBRANCH   8  19
TORSDOF 5
ENDMDL
MODEL 5
REMARK VINA RESULT:      -7.8      0.852      1.339
REMARK  Name = 
REMARK  5 active torsions:
REMARK  status: ('A' for Active; 'I' for Inactive)
REMARK    1  A    between atoms: C_4  and  C_5
REMARK    2  A    between atoms: C_14  and  C_15
REMARK    3  A    between atoms: C_15  and  C_16
REMARK    4  A    between atoms: C_16  and  N_17
REMARK    5  A    between atoms: N_17  and  C_18
REMARK                            x       y       z     vdW  Elec       q    Type
REMARK                         _______ _______ _______ _____ _____    ______ ____
ROOT
ATOM      1  O   UNL     1       3.223   2.243  19.280  0.00  0.00    +0.000 OA
ATOM      2  C   UNL     1       3.470   3.342  18.798  0.00  0.00    +0.000 C 
ATOM      3  C   UNL     1       4.405   3.479  17.659  0.00  0.00    +0.000 C 
ATOM      4  C   UNL     1       4.731   4.686  17.142  0.00  0.00    +0.000 C 
ATOM      5  C   UNL     1       4.215   5.985  17.709  0.00  0.00    +0.000 C 
ATOM      6  O   UNL     1       4.614   7.081  17.312  0.00  0.00    +0.000 OA
ATOM      7  C   UNL     1       3.203   5.816  18.742  0.00  0.00    +0.000 A 
ATOM      8  C   UNL     1       2.367   6.757  19.412  0.00  0.00    +0.000 A 
ATOM      9  C   UNL     1       1.564   6.036  20.281  0.00  0.00    +0.000 A 
ATOM     10  N   UNL     1       1.899   4.712  20.183  0.00  0.00    +0.000 N 
ATOM     11  C   UNL     1       2.877   4.569  19.241  0.00  0.00    +0.000 A 
ATOM     12  H   UNL     1       1.474   3.946  20.697  0.00  0.00    +0.000 HD
ENDROOT
BRANCH   4  13
ATOM     13  C   UNL     1       5.588   4.708  15.951  0.00  0.00    +0.000 A 
ATOM     14  C   UNL     1       5.181   4.088  14.765  0.00  0.00    +0.000 A 
ATOM     15  C   UNL     1       6.020   4.108  13.653  0.00  0.00    +0.000 A 
ATOM     16  C   UNL     1       7.244   4.745  13.766  0.00  0.00    +0.000 A 
ATOM     17  N   UNL     1       7.672   5.351  14.896  0.00  0.00    +0.000 NA
ATOM     18  C   UNL     1       6.832   5.330  15.958  0.00  0.00    +0.000 A 
ENDBRANCH   4  13
BRANCH   8  19
ATOM     19  C   UNL     1       2.341   8.236  19.199  0.00  0.00    +0.000 C 
BRANCH  19  20
ATOM     20  C   UNL     1       1.542   8.637  17.946  0.00  0.00    +0.000 C 
BRANCH  20  21
ATOM     21  N   UNL     1       1.347  10.078  17.971  0.00  0.00    +0.000 NA
ATOM     22  H   UNL     1       0.761  10.342  17.177  0.00  0.00    +0.000 HD
BRANCH  21  23
ATOM     23  C   UNL     1       0.764  10.646  19.190  0.00  0.00    +0.000 C 
ATOM     24  C   UNL     1       0.718  12.185  19.296  0.00  0.00    +0.000 C 
ATOM     25  C   UNL     1      -0.197  12.865  18.277  0.00  0.00    +0.000 C 
ATOM     26  C   UNL     1      -1.585  12.232  18.234  0.00  0.00    +0.000 C 
ATOM     27  C   UNL     1      -1.512  10.717  18.078  0.00  0.00    +0.000 C 
ATOM     28  C   UNL     1      -0.675  10.097  19.202  0.00  0.00    +0.000 C 
ENDBRANCH  21  23
ENDBRANCH  20  21
ENDBRANCH  19  20
ENDBRANCH   8  19
TORSDOF 5
ENDMDL
MODEL 6
REMARK VINA RESULT:      -7.7      1.405      1.879
REMARK  Name = 
REMARK  5 active torsions:
REMARK  status: ('A' for Active; 'I' for Inactive)
REMARK    1  A    between atoms: C_4  and  C_5
REMARK    2  A    between atoms: C_14  and  C_15
REMARK    3  A    between atoms: C_15  and  C_16
REMARK    4  A    between atoms: C_16  and  N_17
REMARK    5  A    between atoms: N_17  and  C_18
REMARK                            x       y       z     vdW  Elec       q    Type
REMARK                         _______ _______ _______ _____ _____    ______ ____
ROOT
ATOM      1  O   UNL     1       4.055   1.976  19.584  0.00  0.00    +0.000 OA
ATOM      2  C   UNL     1       4.079   3.069  19.033  0.00  0.00    +0.000 C 
ATOM      3  C   UNL     1       4.891   3.288  17.815  0.00  0.00    +0.000 C 
ATOM      4  C   UNL     1       4.971   4.498  17.216  0.00  0.00    +0.000 C 
ATOM      5  C   UNL     1       4.288   5.728  17.761  0.00  0.00    +0.000 C 
ATOM      6  O   UNL     1       4.468   6.848  17.281  0.00  0.00    +0.000 OA
ATOM      7  C   UNL     1       3.398   5.458  18.881  0.00  0.00    +0.000 A 
ATOM      8  C   UNL     1       2.468   6.289  19.572  0.00  0.00    +0.000 A 
ATOM      9  C   UNL     1       1.863   5.500  20.538  0.00  0.00    +0.000 A 
ATOM     10  N   UNL     1       2.407   4.246  20.476  0.00  0.00    +0.000 N 
ATOM     11  C   UNL     1       3.323   4.207  19.464  0.00  0.00    +0.000 A 
ATOM     12  H   UNL     1       2.155   3.453  21.058  0.00  0.00    +0.000 HD
ENDROOT
BRANCH   4  13
ATOM     13  C   UNL     1       5.722   4.588  15.958  0.00  0.00    +0.000 A 
ATOM     14  C   UNL     1       5.243   3.979  14.794  0.00  0.00    +0.000 A 
ATOM     15  C   UNL     1       5.983   4.064  13.617  0.00  0.00    +0.000 A 
ATOM     16  C   UNL     1       7.185   4.752  13.645  0.00  0.00    +0.000 A 
ATOM     17  N   UNL     1       7.681   5.349  14.751  0.00  0.00    +0.000 NA
ATOM     18  C   UNL     1       6.935   5.265  15.879  0.00  0.00    +0.000 A 
ENDBRANCH   4  13
BRANCH   8  19
ATOM     19  C   UNL     1       2.178   7.729  19.292  0.00  0.00    +0.000 C 
BRANCH  19  20
ATOM     20  C   UNL     1       1.822   8.516  20.566  0.00  0.00    +0.000 C 
BRANCH  20  21
ATOM     21  N   UNL     1       0.938   9.610  20.194  0.00  0.00    +0.000 NA
ATOM     22  H   UNL     1       1.006   9.754  19.184  0.00  0.00    +0.000 HD
BRANCH  21  23
ATOM     23  C   UNL     1      -0.476   9.469  20.551  0.00  0.00    +0.000 C 
ATOM     24  C   UNL     1      -0.795   8.868  21.936  0.00  0.00    +0.000 C 
ATOM     25  C   UNL     1      -0.353   9.730  23.119  0.00  0.00    +0.000 C 
ATOM     26  C   UNL     1      -0.813  11.179  22.982  0.00  0.00    +0.000 C 
ATOM     27  C   UNL     1      -0.443  11.765  21.624  0.00  0.00    +0.000 C 
ATOM     28  C   UNL     1      -1.018  10.909  20.490  0.00  0.00    +0.000 C 
ENDBRANCH  21  23
ENDBRANCH  20  21
ENDBRANCH  19  20
ENDBRANCH   8  19
TORSDOF 5
ENDMDL
MODEL 7
REMARK VINA RESULT:      -7.7      1.073      1.582
REMARK  Name = 
REMARK  5 active torsions:
REMARK  status: ('A' for Active; 'I' for Inactive)
REMARK    1  A    between atoms: C_4  and  C_5
REMARK    2  A    between atoms: C_14  and  C_15
REMARK    3  A    between atoms: C_15  and  C_16
REMARK    4  A    between atoms: C_16  and  N_17
REMARK    5  A    between atoms: N_17  and  C_18
REMARK                            x       y       z     vdW  Elec       q    Type
REMARK                         _______ _______ _______ _____ _____    ______ ____
ROOT
ATOM      1  O   UNL     1       3.046   1.444  18.893  0.00  0.00    +0.000 OA
ATOM      2  C   UNL     1       3.309   2.616  18.653  0.00  0.00    +0.000 C 
ATOM      3  C   UNL     1       4.273   2.976  17.589  0.00  0.00    +0.000 C 
ATOM      4  C   UNL     1       4.616   4.260  17.339  0.00  0.00    +0.000 C 
ATOM      5  C   UNL     1       4.090   5.420  18.147  0.00  0.00    +0.000 C 
ATOM      6  O   UNL     1       4.503   6.570  17.992  0.00  0.00    +0.000 OA
ATOM      7  C   UNL     1       3.052   5.051  19.098  0.00  0.00    +0.000 A 
ATOM      8  C   UNL     1       2.202   5.843  19.925  0.00  0.00    +0.000 A 
ATOM      9  C   UNL     1       1.374   4.965  20.609  0.00  0.00    +0.000 A 
ATOM     10  N   UNL     1       1.707   3.687  20.250  0.00  0.00    +0.000 N 
ATOM     11  C   UNL     1       2.709   3.731  19.323  0.00  0.00    +0.000 A 
ATOM     12  H   UNL     1       1.267   2.836  20.586  0.00  0.00    +0.000 HD
ENDROOT
BRANCH   4  13
ATOM     13  C   UNL     1       5.503   4.518  16.198  0.00  0.00    +0.000 A 
ATOM     14  C   UNL     1       5.160   4.088  14.913  0.00  0.00    +0.000 A 
ATOM     15  C   UNL     1       6.027   4.330  13.850  0.00  0.00    +0.000 A 
ATOM     16  C   UNL     1       7.215   4.991  14.110  0.00  0.00    +0.000 A 
ATOM     17  N   UNL     1       7.582   5.418  15.339  0.00  0.00    +0.000 NA
ATOM     18  C   UNL     1       6.715   5.183  16.352  0.00  0.00    +0.000 A 
ENDBRANCH   4  13
BRANCH   8  19
ATOM     19  C   UNL     1       2.186   7.334  20.020  0.00  0.00    +0.000 C 
BRANCH  19  20
ATOM     20  C   UNL     1       1.071   7.853  20.945  0.00  0.00    +0.000 C 
BRANCH  20  21
ATOM     21  N   UNL     1       1.265   9.283  21.135  0.00  0.00    +0.000 NA
ATOM     22  H   UNL     1       2.029   9.591  20.531  0.00  0.00    +0.000 HD
BRANCH  21  23
ATOM     23  C   UNL     1       0.105  10.145  20.895  0.00  0.00    +0.000 C 
ATOM     24  C   UNL     1       0.237  11.629  21.300  0.00  0.00    +0.000 C 
ATOM     25  C   UNL     1       1.268  12.418  20.493  0.00  0.00    +0.000 C 
ATOM     26  C   UNL     1       1.094  12.227  18.988  0.00  0.00    +0.000 C 
ATOM     27  C   UNL     1       1.017  10.753  18.610  0.00  0.00    +0.000 C 
ATOM     28  C   UNL     1      -0.115  10.056  19.374  0.00  0.00    +0.000 C 
ENDBRANCH  21  23
ENDBRANCH  20  21
ENDBRANCH  19  20
ENDBRANCH   8  19
TORSDOF 5
ENDMDL
MODEL 8
REMARK VINA RESULT:      -7.6      1.074      1.330
REMARK  Name = 
REMARK  5 active torsions:
REMARK  status: ('A' for Active; 'I' for Inactive)
REMARK    1  A    between atoms: C_4  and  C_5
REMARK    2  A    between atoms: C_14  and  C_15
REMARK    3  A    between atoms: C_15  and  C_16
REMARK    4  A    between atoms: C_16  and  N_17
REMARK    5  A    between atoms: N_17  and  C_18
REMARK                            x       y       z     vdW  Elec       q    Type
REMARK                         _______ _______ _______ _____ _____    ______ ____
ROOT
ATOM      1  O   UNL     1       2.926   1.789  18.979  0.00  0.00    +0.000 OA
ATOM      2  C   UNL     1       3.234   2.930  18.658  0.00  0.00    +0.000 C 
ATOM      3  C   UNL     1       4.218   3.177  17.580  0.00  0.00    +0.000 C 
ATOM      4  C   UNL     1       4.611   4.426  17.241  0.00  0.00    +0.000 C 
ATOM      5  C   UNL     1       4.122   5.660  17.958  0.00  0.00    +0.000 C 
ATOM      6  O   UNL     1       4.578   6.780  17.726  0.00  0.00    +0.000 OA
ATOM      7  C   UNL     1       3.064   5.399  18.923  0.00  0.00    +0.000 A 
ATOM      8  C   UNL     1       2.238   6.278  19.683  0.00  0.00    +0.000 A 
ATOM      9  C   UNL     1       1.374   5.483  20.420  0.00  0.00    +0.000 A 
ATOM     10  N   UNL     1       1.662   4.171  20.158  0.00  0.00    +0.000 N 
ATOM     11  C   UNL     1       2.671   4.112  19.240  0.00  0.00    +0.000 A 
ATOM     12  H   UNL     1       1.188   3.363  20.549  0.00  0.00    +0.000 HD
ENDROOT
BRANCH   4  13
ATOM     13  C   UNL     1       5.515   4.569  16.094  0.00  0.00    +0.000 A 
ATOM     14  C   UNL     1       5.182   4.027  14.848  0.00  0.00    +0.000 A 
ATOM     15  C   UNL     1       6.065   4.161  13.780  0.00  0.00    +0.000 A 
ATOM     16  C   UNL     1       7.259   4.830  13.994  0.00  0.00    +0.000 A 
ATOM     17  N   UNL     1       7.616   5.362  15.184  0.00  0.00    +0.000 NA
ATOM     18  C   UNL     1       6.734   5.231  16.203  0.00  0.00    +0.000 A 
ENDBRANCH   4  13
BRANCH   8  19
ATOM     19  C   UNL     1       2.276   7.772  19.670  0.00  0.00    +0.000 C 
BRANCH  19  20
ATOM     20  C   UNL     1       1.610   8.367  18.416  0.00  0.00    +0.000 C 
BRANCH  20  21
ATOM     21  N   UNL     1       1.679   9.817  18.508  0.00  0.00    +0.000 NA
ATOM     22  H   UNL     1       2.242  10.167  17.730  0.00  0.00    +0.000 HD
BRANCH  21  23
ATOM     23  C   UNL     1       0.405  10.541  18.523  0.00  0.00    +0.000 C 
ATOM     24  C   UNL     1      -0.679  10.035  19.499  0.00  0.00    +0.000 C 
ATOM     25  C   UNL     1      -0.322  10.185  20.978  0.00  0.00    +0.000 C 
ATOM     26  C   UNL     1       0.169  11.590  21.315  0.00  0.00    +0.000 C 
ATOM     27  C   UNL     1       1.273  12.047  20.369  0.00  0.00    +0.000 C 
ATOM     28  C   UNL     1       0.801  11.978  18.912  0.00  0.00    +0.000 C 
ENDBRANCH  21  23
ENDBRANCH  20  21
ENDBRANCH  19  20
ENDBRANCH   8  19
TORSDOF 5
ENDMDL
MODEL 9
REMARK VINA RESULT:      -7.5      1.221      1.688
REMARK  Name = 
REMARK  5 active torsions:
REMARK  status: ('A' for Active; 'I' for Inactive)
REMARK    1  A    between atoms: C_4  and  C_5
REMARK    2  A    between atoms: C_14  and  C_15
REMARK    3  A    between atoms: C_15  and  C_16
REMARK    4  A    between atoms: C_16  and  N_17
REMARK    5  A    between atoms: N_17  and  C_18
REMARK                            x       y       z     vdW  Elec       q    Type
REMARK                         _______ _______ _______ _____ _____    ______ ____
ROOT
ATOM      1  O   UNL     1       4.886   3.382  19.759  0.00  0.00    +0.000 OA
ATOM      2  C   UNL     1       4.720   4.231  18.893  0.00  0.00    +0.000 C 
ATOM      3  C   UNL     1       5.415   4.134  17.590  0.00  0.00    +0.000 C 
ATOM      4  C   UNL     1       5.284   5.084  16.637  0.00  0.00    +0.000 C 
ATOM      5  C   UNL     1       4.467   6.337  16.835  0.00  0.00    +0.000 C 
ATOM      6  O   UNL     1       4.455   7.252  16.011  0.00  0.00    +0.000 OA
ATOM      7  C   UNL     1       3.696   6.345  18.070  0.00  0.00    +0.000 A 
ATOM      8  C   UNL     1       2.701   7.243  18.558  0.00  0.00    +0.000 A 
ATOM      9  C   UNL     1       2.276   6.747  19.780  0.00  0.00    +0.000 A 
ATOM     10  N   UNL     1       2.989   5.612  20.059  0.00  0.00    +0.000 N 
ATOM     11  C   UNL     1       3.837   5.353  19.021  0.00  0.00    +0.000 A 
ATOM     12  H   UNL     1       2.889   5.029  20.885  0.00  0.00    +0.000 HD
ENDROOT
BRANCH   4  13
ATOM     13  C   UNL     1       5.936   4.846  15.343  0.00  0.00    +0.000 A 
ATOM     14  C   UNL     1       5.356   3.995  14.396  0.00  0.00    +0.000 A 
ATOM     15  C   UNL     1       6.002   3.771  13.183  0.00  0.00    +0.000 A 
ATOM     16  C   UNL     1       7.214   4.403  12.958  0.00  0.00    +0.000 A 
ATOM     17  N   UNL     1       7.806   5.228  13.850  0.00  0.00    +0.000 NA
ATOM     18  C   UNL     1       7.150   5.440  15.016  0.00  0.00    +0.000 A 
ENDBRANCH   4  13
BRANCH   8  19
ATOM     19  C   UNL     1       2.192   8.469  17.872  0.00  0.00    +0.000 C 
BRANCH  19  20
ATOM     20  C   UNL     1       1.588   9.486  18.856  0.00  0.00    +0.000 C 
BRANCH  20  21
ATOM     21  N   UNL     1       0.773  10.425  18.099  0.00  0.00    +0.000 NA
ATOM     22  H   UNL     1       0.232   9.903  17.407  0.00  0.00    +0.000 HD
BRANCH  21  23
ATOM     23  C   UNL     1      -0.145  11.272  18.865  0.00  0.00    +0.000 C 
ATOM     24  C   UNL     1      -0.884  12.385  18.092  0.00  0.00    +0.000 C 
ATOM     25  C   UNL     1      -1.875  11.879  17.042  0.00  0.00    +0.000 C 
ATOM     26  C   UNL     1      -2.819  10.818  17.603  0.00  0.00    +0.000 C 
ATOM     27  C   UNL     1      -2.061   9.706  18.317  0.00  0.00    +0.000 C 
ATOM     28  C   UNL     1      -1.178  10.280  19.431  0.00  0.00    +0.000 C 
ENDBRANCH  21  23
ENDBRANCH  20  21
ENDBRANCH  19  20
ENDBRANCH   8  19
TORSDOF 5
ENDMDL
