MODEL 1
REMARK VINA RESULT:      -7.3      0.000      0.000
REMARK  Name = 
REMARK  1 active torsions:
REMARK  status: ('A' for Active; 'I' for Inactive)
REMARK    1  A    between atoms: C_2  and  C_3
REMARK                            x       y       z     vdW  Elec       q    Type
REMARK                         _______ _______ _______ _____ _____    ______ ____
ROOT
ATOM      1  O   UNL     1       2.174  10.036  17.696  0.00  0.00    +0.000 OA
ATOM      2  C   UNL     1       1.588   9.380  18.559  0.00  0.00    +0.000 C 
ATOM      3  N   UNL     1       0.555   9.963  19.310  0.00  0.00    +0.000 N 
ATOM      4  C   UNL     1      -0.205   9.313  20.389  0.00  0.00    +0.000 C 
ATOM      5  C   UNL     1      -0.390  10.219  21.620  0.00  0.00    +0.000 C 
ATOM      6  N   UNL     1      -0.860  11.542  21.225  0.00  0.00    +0.000 N 
ATOM      7  C   UNL     1      -2.006  12.096  21.741  0.00  0.00    +0.000 A 
ATOM      8  C   UNL     1      -2.412  11.873  23.063  0.00  0.00    +0.000 A 
ATOM      9  N   UNL     1      -3.536  12.386  23.630  0.00  0.00    +0.000 NA
ATOM     10  C   UNL     1      -4.272  13.155  22.809  0.00  0.00    +0.000 A 
ATOM     11  C   UNL     1      -3.898  13.397  21.500  0.00  0.00    +0.000 A 
ATOM     12  N   UNL     1      -2.766  12.890  20.953  0.00  0.00    +0.000 NA
ATOM     13  C   UNL     1      -0.107  12.214  20.163  0.00  0.00    +0.000 C 
ATOM     14  C   UNL     1       0.062  11.299  18.938  0.00  0.00    +0.000 C 
ENDROOT
BRANCH   2  15
ATOM     15  C   UNL     1       1.974   7.995  18.870  0.00  0.00    +0.000 A 
ATOM     16  N   UNL     1       2.298   7.088  17.972  0.00  0.00    +0.000 NA
ATOM     17  C   UNL     1       2.424   5.853  18.573  0.00  0.00    +0.000 A 
ATOM     18  C   UNL     1       2.659   4.637  17.901  0.00  0.00    +0.000 A 
ATOM     19  C   UNL     1       2.733   3.456  18.641  0.00  0.00    +0.000 A 
ATOM     20 CL   UNL     1       3.006   1.966  17.823  0.00  0.00    +0.000 Cl
ATOM     21  C   UNL     1       2.586   3.466  20.024  0.00  0.00    +0.000 A 
ATOM     22  C   UNL     1       2.355   4.663  20.712  0.00  0.00    +0.000 A 
ATOM     23  C   UNL     1       2.274   5.848  19.961  0.00  0.00    +0.000 A 
ATOM     24  S   UNL     1       1.980   7.458  20.499  0.00  0.00    +0.000 S 
ENDBRANCH   2  15
TORSDOF 1
ENDMDL
MODEL 2
REMARK VINA RESULT:      -7.3      2.936      4.607
REMARK  Name = 
REMARK  1 active torsions:
REMARK  status: ('A' for Active; 'I' for Inactive)
REMARK    1  A    between atoms: C_2  and  C_3
REMARK                            x       y       z     vdW  Elec       q    Type
REMARK                         _______ _______ _______ _____ _____    ______ ____
ROOT
ATOM      1  O   UNL     1       1.089  13.891  21.961  0.00  0.00    +0.000 OA
ATOM      2  C   UNL     1       0.200  13.115  21.607  0.00  0.00    +0.000 C 
ATOM      3  N   UNL     1      -1.135  13.358  21.968  0.00  0.00    +0.000 N 
ATOM      4  C   UNL     1      -2.289  12.504  21.646  0.00  0.00    +0.000 C 
ATOM      5  C   UNL     1      -3.234  12.298  22.843  0.00  0.00    +0.000 C 
ATOM      6  N   UNL     1      -3.550  13.572  23.481  0.00  0.00    +0.000 N 
ATOM      7  C   UNL     1      -4.843  14.000  23.661  0.00  0.00    +0.000 A 
ATOM      8  C   UNL     1      -5.891  13.112  23.933  0.00  0.00    +0.000 A 
ATOM      9  N   UNL     1      -7.189  13.471  24.114  0.00  0.00    +0.000 NA
ATOM     10  C   UNL     1      -7.421  14.791  24.011  0.00  0.00    +0.000 A 
ATOM     11  C   UNL     1      -6.408  15.694  23.744  0.00  0.00    +0.000 A 
ATOM     12  N   UNL     1      -5.115  15.322  23.581  0.00  0.00    +0.000 NA
ATOM     13  C   UNL     1      -2.414  14.430  23.825  0.00  0.00    +0.000 C 
ATOM     14  C   UNL     1      -1.484  14.632  22.615  0.00  0.00    +0.000 C 
ENDROOT
BRANCH   2  15
ATOM     15  C   UNL     1       0.501  11.893  20.847  0.00  0.00    +0.000 A 
ATOM     16  N   UNL     1       0.701  10.706  21.382  0.00  0.00    +0.000 NA
ATOM     17  C   UNL     1       1.142   9.822  20.420  0.00  0.00    +0.000 A 
ATOM     18  C   UNL     1       1.554   8.496  20.656  0.00  0.00    +0.000 A 
ATOM     19  C   UNL     1       2.006   7.724  19.585  0.00  0.00    +0.000 A 
ATOM     20 CL   UNL     1       2.523   6.107  19.871  0.00  0.00    +0.000 Cl
ATOM     21  C   UNL     1       2.049   8.243  18.296  0.00  0.00    +0.000 A 
ATOM     22  C   UNL     1       1.642   9.558  18.038  0.00  0.00    +0.000 A 
ATOM     23  C   UNL     1       1.194  10.332  19.122  0.00  0.00    +0.000 A 
ATOM     24  S   UNL     1       0.655  11.968  19.139  0.00  0.00    +0.000 S 
ENDBRANCH   2  15
TORSDOF 1
ENDMDL
MODEL 3
REMARK VINA RESULT:      -7.2      2.893      4.248
REMARK  Name = 
REMARK  1 active torsions:
REMARK  status: ('A' for Active; 'I' for Inactive)
REMARK    1  A    between atoms: C_2  and  C_3
REMARK                            x       y       z     vdW  Elec       q    Type
REMARK                         _______ _______ _______ _____ _____    ______ ____
ROOT
ATOM      1  O   UNL     1       2.426   5.250  20.544  0.00  0.00    +0.000 OA
ATOM      2  C   UNL     1       2.826   6.099  19.745  0.00  0.00    +0.000 C 
ATOM      3  N   UNL     1       2.294   7.398  19.770  0.00  0.00    +0.000 N 
ATOM      4  C   UNL     1       2.651   8.497  18.860  0.00  0.00    +0.000 C 
ATOM      5  C   UNL     1       1.423   9.270  18.343  0.00  0.00    +0.000 C 
ATOM      6  N   UNL     1       0.533   9.624  19.443  0.00  0.00    +0.000 N 
ATOM      7  C   UNL     1       0.147  10.920  19.685  0.00  0.00    +0.000 A 
ATOM      8  C   UNL     1      -0.060  11.841  18.650  0.00  0.00    +0.000 A 
ATOM      9  N   UNL     1      -0.435  13.136  18.823  0.00  0.00    +0.000 NA
ATOM     10  C   UNL     1      -0.601  13.501  20.107  0.00  0.00    +0.000 A 
ATOM     11  C   UNL     1      -0.406  12.615  21.151  0.00  0.00    +0.000 A 
ATOM     12  N   UNL     1      -0.047  11.321  20.962  0.00  0.00    +0.000 NA
ATOM     13  C   UNL     1       0.151   8.539  20.351  0.00  0.00    +0.000 C 
ATOM     14  C   UNL     1       1.390   7.784  20.865  0.00  0.00    +0.000 C 
ENDROOT
BRANCH   2  15
ATOM     15  C   UNL     1       3.826   5.779  18.716  0.00  0.00    +0.000 A 
ATOM     16  N   UNL     1       3.553   5.561  17.446  0.00  0.00    +0.000 NA
ATOM     17  C   UNL     1       4.678   5.106  16.792  0.00  0.00    +0.000 A 
ATOM     18  C   UNL     1       4.725   4.674  15.451  0.00  0.00    +0.000 A 
ATOM     19  C   UNL     1       5.933   4.209  14.930  0.00  0.00    +0.000 A 
ATOM     20 CL   UNL     1       5.993   3.668  13.297  0.00  0.00    +0.000 Cl
ATOM     21  C   UNL     1       7.084   4.173  15.710  0.00  0.00    +0.000 A 
ATOM     22  C   UNL     1       7.060   4.599  17.043  0.00  0.00    +0.000 A 
ATOM     23  C   UNL     1       5.839   5.060  17.565  0.00  0.00    +0.000 A 
ATOM     24  S   UNL     1       5.478   5.624  19.152  0.00  0.00    +0.000 S 
ENDBRANCH   2  15
TORSDOF 1
ENDMDL
MODEL 4
REMARK VINA RESULT:      -7.2      3.557      8.513
REMARK  Name = 
REMARK  1 active torsions:
REMARK  status: ('A' for Active; 'I' for Inactive)
REMARK    1  A    between atoms: C_2  and  C_3
REMARK                            x       y       z     vdW  Elec       q    Type
REMARK                         _______ _______ _______ _____ _____    ______ ____
ROOT
ATOM      1  O   UNL     1       1.322  10.168  17.762  0.00  0.00    +0.000 OA
ATOM      2  C   UNL     1       1.321   9.786  18.934  0.00  0.00    +0.000 C 
ATOM      3  N   UNL     1       1.828   8.519  19.264  0.00  0.00    +0.000 N 
ATOM      4  C   UNL     1       1.860   7.922  20.608  0.00  0.00    +0.000 C 
ATOM      5  C   UNL     1       1.413   6.449  20.620  0.00  0.00    +0.000 C 
ATOM      6  N   UNL     1       2.096   5.691  19.576  0.00  0.00    +0.000 N 
ATOM      7  C   UNL     1       2.821   4.557  19.849  0.00  0.00    +0.000 A 
ATOM      8  C   UNL     1       2.449   3.660  20.858  0.00  0.00    +0.000 A 
ATOM      9  N   UNL     1       3.127   2.527  21.181  0.00  0.00    +0.000 NA
ATOM     10  C   UNL     1       4.229   2.307  20.442  0.00  0.00    +0.000 A 
ATOM     11  C   UNL     1       4.622   3.172  19.438  0.00  0.00    +0.000 A 
ATOM     12  N   UNL     1       3.926   4.291  19.117  0.00  0.00    +0.000 NA
ATOM     13  C   UNL     1       2.060   6.260  18.226  0.00  0.00    +0.000 C 
ATOM     14  C   UNL     1       2.518   7.729  18.231  0.00  0.00    +0.000 C 
ENDROOT
BRANCH   2  15
ATOM     15  C   UNL     1       0.752  10.607  20.013  0.00  0.00    +0.000 A 
ATOM     16  N   UNL     1      -0.268  10.253  20.767  0.00  0.00    +0.000 NA
ATOM     17  C   UNL     1      -0.668  11.316  21.549  0.00  0.00    +0.000 A 
ATOM     18  C   UNL     1      -1.793  11.328  22.398  0.00  0.00    +0.000 A 
ATOM     19  C   UNL     1      -2.094  12.489  23.110  0.00  0.00    +0.000 A 
ATOM     20 CL   UNL     1      -3.474  12.513  24.138  0.00  0.00    +0.000 Cl
ATOM     21  C   UNL     1      -1.300  13.626  22.996  0.00  0.00    +0.000 A 
ATOM     22  C   UNL     1      -0.177  13.635  22.161  0.00  0.00    +0.000 A 
ATOM     23  C   UNL     1       0.118  12.464  21.441  0.00  0.00    +0.000 A 
ATOM     24  S   UNL     1       1.398  12.165  20.327  0.00  0.00    +0.000 S 
ENDBRANCH   2  15
TORSDOF 1
ENDMDL
MODEL 5
REMARK VINA RESULT:      -7.1      3.493      4.471
REMARK  Name = 
REMARK  1 active torsions:
REMARK  status: ('A' for Active; 'I' for Inactive)
REMARK    1  A    between atoms: C_2  and  C_3
REMARK                            x       y       z     vdW  Elec       q    Type
REMARK                         _______ _______ _______ _____ _____    ______ ____
ROOT
ATOM      1  O   UNL     1      -1.226  10.418  18.664  0.00  0.00    +0.000 OA
ATOM      2  C   UNL     1      -0.049  10.637  18.955  0.00  0.00    +0.000 C 
ATOM      3  N   UNL     1       0.377  11.945  19.238  0.00  0.00    +0.000 N 
ATOM      4  C   UNL     1       1.752  12.356  19.566  0.00  0.00    +0.000 C 
ATOM      5  C   UNL     1       2.188  13.631  18.822  0.00  0.00    +0.000 C 
ATOM      6  N   UNL     1       1.172  14.673  18.938  0.00  0.00    +0.000 N 
ATOM      7  C   UNL     1       1.458  15.922  19.433  0.00  0.00    +0.000 A 
ATOM      8  C   UNL     1       2.691  16.547  19.213  0.00  0.00    +0.000 A 
ATOM      9  N   UNL     1       3.036  17.776  19.681  0.00  0.00    +0.000 NA
ATOM     10  C   UNL     1       2.080  18.385  20.403  0.00  0.00    +0.000 A 
ATOM     11  C   UNL     1       0.851  17.795  20.637  0.00  0.00    +0.000 A 
ATOM     12  N   UNL     1       0.516  16.575  20.151  0.00  0.00    +0.000 NA
ATOM     13  C   UNL     1      -0.200  14.288  18.599  0.00  0.00    +0.000 C 
ATOM     14  C   UNL     1      -0.623  13.017  19.357  0.00  0.00    +0.000 C 
ENDROOT
BRANCH   2  15
ATOM     15  C   UNL     1       0.955   9.562  18.969  0.00  0.00    +0.000 A 
ATOM     16  N   UNL     1       1.759   9.274  17.967  0.00  0.00    +0.000 NA
ATOM     17  C   UNL     1       2.441   8.104  18.230  0.00  0.00    +0.000 A 
ATOM     18  C   UNL     1       3.306   7.443  17.335  0.00  0.00    +0.000 A 
ATOM     19  C   UNL     1       3.906   6.247  17.729  0.00  0.00    +0.000 A 
ATOM     20 CL   UNL     1       4.953   5.429  16.635  0.00  0.00    +0.000 Cl
ATOM     21  C   UNL     1       3.667   5.706  18.988  0.00  0.00    +0.000 A 
ATOM     22  C   UNL     1       2.813   6.347  19.894  0.00  0.00    +0.000 A 
ATOM     23  C   UNL     1       2.207   7.548  19.488  0.00  0.00    +0.000 A 
ATOM     24  S   UNL     1       1.103   8.554  20.349  0.00  0.00    +0.000 S 
ENDBRANCH   2  15
TORSDOF 1
ENDMDL
MODEL 6
REMARK VINA RESULT:      -7.1      1.243      1.521
REMARK  Name = 
REMARK  1 active torsions:
REMARK  status: ('A' for Active; 'I' for Inactive)
REMARK    1  A    between atoms: C_2  and  C_3
REMARK                            x       y       z     vdW  Elec       q    Type
REMARK                         _______ _______ _______ _____ _____    ______ ____
ROOT
ATOM      1  O   UNL     1       2.475  10.191  17.563  0.00  0.00    +0.000 OA
ATOM      2  C   UNL     1       1.871   9.493  18.378  0.00  0.00    +0.000 C 
ATOM      3  N   UNL     1       0.854  10.051  19.170  0.00  0.00    +0.000 N 
ATOM      4  C   UNL     1       0.075   9.349  20.201  0.00  0.00    +0.000 C 
ATOM      5  C   UNL     1      -0.085  10.170  21.494  0.00  0.00    +0.000 C 
ATOM      6  N   UNL     1      -0.517  11.531  21.193  0.00  0.00    +0.000 N 
ATOM      7  C   UNL     1      -1.647  12.080  21.748  0.00  0.00    +0.000 A 
ATOM      8  C   UNL     1      -2.061  11.776  23.052  0.00  0.00    +0.000 A 
ATOM      9  N   UNL     1      -3.169  12.279  23.655  0.00  0.00    +0.000 NA
ATOM     10  C   UNL     1      -3.883  13.126  22.891  0.00  0.00    +0.000 A 
ATOM     11  C   UNL     1      -3.501  13.448  21.601  0.00  0.00    +0.000 A 
ATOM     12  N   UNL     1      -2.383  12.949  21.019  0.00  0.00    +0.000 NA
ATOM     13  C   UNL     1       0.256  12.254  20.180  0.00  0.00    +0.000 C 
ATOM     14  C   UNL     1       0.399  11.423  18.893  0.00  0.00    +0.000 C 
ENDROOT
BRANCH   2  15
ATOM     15  C   UNL     1       2.217   8.079  18.590  0.00  0.00    +0.000 A 
ATOM     16  N   UNL     1       1.702   7.313  19.529  0.00  0.00    +0.000 NA
ATOM     17  C   UNL     1       2.370   6.108  19.575  0.00  0.00    +0.000 A 
ATOM     18  C   UNL     1       2.156   5.090  20.526  0.00  0.00    +0.000 A 
ATOM     19  C   UNL     1       2.931   3.932  20.467  0.00  0.00    +0.000 A 
ATOM     20 CL   UNL     1       2.681   2.691  21.634  0.00  0.00    +0.000 Cl
ATOM     21  C   UNL     1       3.901   3.768  19.484  0.00  0.00    +0.000 A 
ATOM     22  C   UNL     1       4.129   4.765  18.529  0.00  0.00    +0.000 A 
ATOM     23  C   UNL     1       3.350   5.933  18.598  0.00  0.00    +0.000 A 
ATOM     24  S   UNL     1       3.402   7.335  17.597  0.00  0.00    +0.000 S 
ENDBRANCH   2  15
TORSDOF 1
ENDMDL
MODEL 7
REMARK VINA RESULT:      -7.0      4.064      9.414
REMARK  Name = 
REMARK  1 active torsions:
REMARK  status: ('A' for Active; 'I' for Inactive)
REMARK    1  A    between atoms: C_2  and  C_3
REMARK                            x       y       z     vdW  Elec       q    Type
REMARK                         _______ _______ _______ _____ _____    ______ ____
ROOT
ATOM      1  O   UNL     1       1.512   5.538  20.833  0.00  0.00    +0.000 OA
ATOM      2  C   UNL     1       1.893   6.434  20.078  0.00  0.00    +0.000 C 
ATOM      3  N   UNL     1       2.762   6.140  19.014  0.00  0.00    +0.000 N 
ATOM      4  C   UNL     1       3.320   7.109  18.059  0.00  0.00    +0.000 C 
ATOM      5  C   UNL     1       4.823   6.894  17.799  0.00  0.00    +0.000 C 
ATOM      6  N   UNL     1       5.105   5.491  17.514  0.00  0.00    +0.000 N 
ATOM      7  C   UNL     1       5.748   5.092  16.368  0.00  0.00    +0.000 A 
ATOM      8  C   UNL     1       6.753   5.863  15.770  0.00  0.00    +0.000 A 
ATOM      9  N   UNL     1       7.421   5.527  14.635  0.00  0.00    +0.000 NA
ATOM     10  C   UNL     1       7.042   4.356  14.091  0.00  0.00    +0.000 A 
ATOM     11  C   UNL     1       6.055   3.571  14.658  0.00  0.00    +0.000 A 
ATOM     12  N   UNL     1       5.408   3.913  15.800  0.00  0.00    +0.000 NA
ATOM     13  C   UNL     1       4.572   4.511  18.463  0.00  0.00    +0.000 C 
ATOM     14  C   UNL     1       3.068   4.734  18.705  0.00  0.00    +0.000 C 
ENDROOT
BRANCH   2  15
ATOM     15  C   UNL     1       1.501   7.836  20.285  0.00  0.00    +0.000 A 
ATOM     16  N   UNL     1       1.111   8.344  21.435  0.00  0.00    +0.000 NA
ATOM     17  C   UNL     1       0.639   9.627  21.250  0.00  0.00    +0.000 A 
ATOM     18  C   UNL     1       0.045  10.431  22.243  0.00  0.00    +0.000 A 
ATOM     19  C   UNL     1      -0.414  11.703  21.901  0.00  0.00    +0.000 A 
ATOM     20 CL   UNL     1      -1.153  12.684  23.108  0.00  0.00    +0.000 Cl
ATOM     21  C   UNL     1      -0.289  12.186  20.603  0.00  0.00    +0.000 A 
ATOM     22  C   UNL     1       0.300  11.405  19.602  0.00  0.00    +0.000 A 
ATOM     23  C   UNL     1       0.755  10.122  19.950  0.00  0.00    +0.000 A 
ATOM     24  S   UNL     1       1.494   8.923  18.957  0.00  0.00    +0.000 S 
ENDBRANCH   2  15
TORSDOF 1
ENDMDL
MODEL 8
REMARK VINA RESULT:      -6.9      4.342      8.710
REMARK  Name = 
REMARK  1 active torsions:
REMARK  status: ('A' for Active; 'I' for Inactive)
REMARK    1  A    between atoms: C_2  and  C_3
REMARK                            x       y       z     vdW  Elec       q    Type
REMARK                         _______ _______ _______ _____ _____    ______ ____
ROOT
ATOM      1  O   UNL     1       0.465  10.414  22.341  0.00  0.00    +0.000 OA
ATOM      2  C   UNL     1       0.695  10.428  21.131  0.00  0.00    +0.000 C 
ATOM      3  N   UNL     1       0.977   9.231  20.452  0.00  0.00    +0.000 N 
ATOM      4  C   UNL     1       1.301   9.102  19.023  0.00  0.00    +0.000 C 
ATOM      5  C   UNL     1       2.487   8.156  18.761  0.00  0.00    +0.000 C 
ATOM      6  N   UNL     1       2.320   6.901  19.487  0.00  0.00    +0.000 N 
ATOM      7  C   UNL     1       2.345   5.681  18.856  0.00  0.00    +0.000 A 
ATOM      8  C   UNL     1       3.166   5.431  17.749  0.00  0.00    +0.000 A 
ATOM      9  N   UNL     1       3.232   4.251  17.078  0.00  0.00    +0.000 NA
ATOM     10  C   UNL     1       2.423   3.291  17.560  0.00  0.00    +0.000 A 
ATOM     11  C   UNL     1       1.602   3.505  18.653  0.00  0.00    +0.000 A 
ATOM     12  N   UNL     1       1.559   4.684  19.321  0.00  0.00    +0.000 NA
ATOM     13  C   UNL     1       2.014   7.008  20.916  0.00  0.00    +0.000 C 
ATOM     14  C   UNL     1       0.821   7.950  21.159  0.00  0.00    +0.000 C 
ENDROOT
BRANCH   2  15
ATOM     15  C   UNL     1       0.733  11.684  20.367  0.00  0.00    +0.000 A 
ATOM     16  N   UNL     1       1.829  12.243  19.898  0.00  0.00    +0.000 NA
ATOM     17  C   UNL     1       1.542  13.496  19.397  0.00  0.00    +0.000 A 
ATOM     18  C   UNL     1       2.490  14.419  18.912  0.00  0.00    +0.000 A 
ATOM     19  C   UNL     1       2.055  15.665  18.462  0.00  0.00    +0.000 A 
ATOM     20 CL   UNL     1       3.210  16.801  17.881  0.00  0.00    +0.000 Cl
ATOM     21  C   UNL     1       0.706  16.004  18.481  0.00  0.00    +0.000 A 
ATOM     22  C   UNL     1      -0.253  15.101  18.956  0.00  0.00    +0.000 A 
ATOM     23  C   UNL     1       0.192  13.850  19.414  0.00  0.00    +0.000 A 
ATOM     24  S   UNL     1      -0.721  12.545  20.072  0.00  0.00    +0.000 S 
ENDBRANCH   2  15
TORSDOF 1
ENDMDL
MODEL 9
REMARK VINA RESULT:      -6.9      4.205      6.207
REMARK  Name = 
REMARK  1 active torsions:
REMARK  status: ('A' for Active; 'I' for Inactive)
REMARK    1  A    between atoms: C_2  and  C_3
REMARK                            x       y       z     vdW  Elec       q    Type
REMARK                         _______ _______ _______ _____ _____    ______ ____
ROOT
ATOM      1  O   UNL     1       4.578   3.402  18.816  0.00  0.00    +0.000 OA
ATOM      2  C   UNL     1       4.564   4.474  18.208  0.00  0.00    +0.000 C 
ATOM      3  N   UNL     1       3.886   5.581  18.745  0.00  0.00    +0.000 N 
ATOM      4  C   UNL     1       3.759   6.905  18.117  0.00  0.00    +0.000 C 
ATOM      5  C   UNL     1       2.331   7.474  18.206  0.00  0.00    +0.000 C 
ATOM      6  N   UNL     1       1.813   7.367  19.566  0.00  0.00    +0.000 N 
ATOM      7  C   UNL     1       1.345   8.456  20.259  0.00  0.00    +0.000 A 
ATOM      8  C   UNL     1       0.675   9.511  19.626  0.00  0.00    +0.000 A 
ATOM      9  N   UNL     1       0.195  10.617  20.253  0.00  0.00    +0.000 NA
ATOM     10  C   UNL     1       0.412  10.643  21.580  0.00  0.00    +0.000 A 
ATOM     11  C   UNL     1       1.068   9.616  22.235  0.00  0.00    +0.000 A 
ATOM     12  N   UNL     1       1.528   8.512  21.598  0.00  0.00    +0.000 NA
ATOM     13  C   UNL     1       1.915   6.051  20.202  0.00  0.00    +0.000 C 
ATOM     14  C   UNL     1       3.350   5.502  20.113  0.00  0.00    +0.000 C 
ENDROOT
BRANCH   2  15
ATOM     15  C   UNL     1       5.202   4.622  16.892  0.00  0.00    +0.000 A 
ATOM     16  N   UNL     1       4.862   3.948  15.813  0.00  0.00    +0.000 NA
ATOM     17  C   UNL     1       5.771   4.184  14.803  0.00  0.00    +0.000 A 
ATOM     18  C   UNL     1       5.778   3.548  13.545  0.00  0.00    +0.000 A 
ATOM     19  C   UNL     1       6.781   3.867  12.630  0.00  0.00    +0.000 A 
ATOM     20 CL   UNL     1       6.802   3.084  11.097  0.00  0.00    +0.000 Cl
ATOM     21  C   UNL     1       7.763   4.802  12.938  0.00  0.00    +0.000 A 
ATOM     22  C   UNL     1       7.773   5.447  14.181  0.00  0.00    +0.000 A 
ATOM     23  C   UNL     1       6.764   5.117  15.102  0.00  0.00    +0.000 A 
ATOM     24  S   UNL     1       6.516   5.709  16.701  0.00  0.00    +0.000 S 
ENDBRANCH   2  15
TORSDOF 1
ENDMDL
