MODEL 1
REMARK VINA RESULT:      -8.8      0.000      0.000
REMARK  Name = 
REMARK  9 active torsions:
REMARK  status: ('A' for Active; 'I' for Inactive)
REMARK    1  A    between atoms: C_1  and  O_2
REMARK    2  A    between atoms: O_2  and  C_3
REMARK    3  A    between atoms: C_6  and  N_7
REMARK    4  A    between atoms: C_10  and  C_11
REMARK    5  A    between atoms: C_16  and  N_17
REMARK    6  A    between atoms: C_18  and  C_20
REMARK    7  A    between atoms: C_23  and  C_24
REMARK    8  A    between atoms: C_32  and  O_33
REMARK    9  A    between atoms: O_33  and  C_34
REMARK                            x       y       z     vdW  Elec       q    Type
REMARK                         _______ _______ _______ _____ _____    ______ ____
ROOT
ATOM      1  C   UNL     1       6.699   6.027  16.514  0.00  0.00    +0.000 A 
ATOM      2  C   UNL     1       7.526   5.115  15.834  0.00  0.00    +0.000 A 
ATOM      3  C   UNL     1       6.991   4.181  14.945  0.00  0.00    +0.000 A 
ATOM      4  C   UNL     1       5.618   4.142  14.724  0.00  0.00    +0.000 A 
ATOM      5  C   UNL     1       4.777   5.008  15.422  0.00  0.00    +0.000 A 
ATOM      6  C   UNL     1       5.302   5.943  16.327  0.00  0.00    +0.000 A 
ENDROOT
BRANCH   1  10
ATOM      7  N   UNL     1       8.128   8.763  18.180  0.00  0.00    +0.000 N 
ATOM      8  N   UNL     1       8.515   7.788  19.032  0.00  0.00    +0.000 NA
ATOM      9  N   UNL     1       8.007   6.668  18.537  0.00  0.00    +0.000 NA
ATOM     10  C   UNL     1       7.319   7.008  17.399  0.00  0.00    +0.000 A 
ATOM     11  N   UNL     1       7.337   8.332  17.166  0.00  0.00    +0.000 NA
BRANCH   7  15
ATOM     12  C   UNL     1       9.380  12.757  18.617  0.00  0.00    +0.000 A 
ATOM     13  C   UNL     1       8.452  12.410  17.617  0.00  0.00    +0.000 A 
ATOM     14  C   UNL     1       8.055  11.084  17.429  0.00  0.00    +0.000 A 
ATOM     15  C   UNL     1       8.601  10.091  18.241  0.00  0.00    +0.000 A 
ATOM     16  C   UNL     1       9.596  10.419  19.170  0.00  0.00    +0.000 A 
ATOM     17  C   UNL     1      10.002  11.744  19.361  0.00  0.00    +0.000 A 
BRANCH  12  19
ATOM     18  C   UNL     1      10.743  14.604  18.053  0.00  0.00    +0.000 C 
ATOM     19  O   UNL     1       9.697  14.066  18.863  0.00  0.00    +0.000 OA
ENDBRANCH  12  19
BRANCH  17  20
ATOM     20  O   UNL     1      10.970  11.839  20.321  0.00  0.00    +0.000 OA
ATOM     21  C   UNL     1      12.333  11.832  19.932  0.00  0.00    +0.000 C 
ENDBRANCH  17  20
ENDBRANCH   7  15
ENDBRANCH   1  10
BRANCH   6  22
ATOM     22  N   UNL     1       4.419   6.816  17.009  0.00  0.00    +0.000 N 
ATOM     23  C   UNL     1       3.504   6.375  17.948  0.00  0.00    +0.000 C 
ATOM     24  O   UNL     1       3.415   5.228  18.372  0.00  0.00    +0.000 OA
ATOM     25  H   UNL     1       4.748   7.775  17.122  0.00  0.00    +0.000 HD
BRANCH  23  26
ATOM     26  C   UNL     1       2.599   7.413  18.501  0.00  0.00    +0.000 A 
ATOM     27  C   UNL     1       2.169   7.348  19.830  0.00  0.00    +0.000 A 
ATOM     28  C   UNL     1       1.470   8.418  20.390  0.00  0.00    +0.000 A 
ATOM     29  C   UNL     1       1.190   9.567  19.632  0.00  0.00    +0.000 A 
ATOM     30  C   UNL     1       1.581   9.601  18.283  0.00  0.00    +0.000 A 
ATOM     31  C   UNL     1       2.289   8.535  17.723  0.00  0.00    +0.000 A 
BRANCH  29  32
ATOM     32  C   UNL     1       0.523  10.768  20.257  0.00  0.00    +0.000 C 
ATOM     33  F   UNL     1      -0.837  10.676  20.295  0.00  0.00    +0.000 F 
ATOM     34  F   UNL     1       0.915  10.967  21.547  0.00  0.00    +0.000 F 
ATOM     35  F   UNL     1       0.802  11.925  19.600  0.00  0.00    +0.000 F 
ENDBRANCH  29  32
ENDBRANCH  23  26
ENDBRANCH   6  22
TORSDOF 7
ENDMDL
MODEL 2
REMARK VINA RESULT:      -8.7      0.809      1.674
REMARK  Name = 
REMARK  9 active torsions:
REMARK  status: ('A' for Active; 'I' for Inactive)
REMARK    1  A    between atoms: C_1  and  O_2
REMARK    2  A    between atoms: O_2  and  C_3
REMARK    3  A    between atoms: C_6  and  N_7
REMARK    4  A    between atoms: C_10  and  C_11
REMARK    5  A    between atoms: C_16  and  N_17
REMARK    6  A    between atoms: C_18  and  C_20
REMARK    7  A    between atoms: C_23  and  C_24
REMARK    8  A    between atoms: C_32  and  O_33
REMARK    9  A    between atoms: O_33  and  C_34
REMARK                            x       y       z     vdW  Elec       q    Type
REMARK                         _______ _______ _______ _____ _____    ______ ____
ROOT
ATOM      1  C   UNL     1       6.684   5.944  16.355  0.00  0.00    +0.000 A 
ATOM      2  C   UNL     1       7.512   5.098  15.596  0.00  0.00    +0.000 A 
ATOM      3  C   UNL     1       6.978   4.246  14.627  0.00  0.00    +0.000 A 
ATOM      4  C   UNL     1       5.605   4.223  14.406  0.00  0.00    +0.000 A 
ATOM      5  C   UNL     1       4.762   5.021  15.180  0.00  0.00    +0.000 A 
ATOM      6  C   UNL     1       5.287   5.873  16.164  0.00  0.00    +0.000 A 
ENDROOT
BRANCH   1  10
ATOM      7  N   UNL     1       8.122   8.520  18.252  0.00  0.00    +0.000 N 
ATOM      8  N   UNL     1       8.484   7.476  19.030  0.00  0.00    +0.000 NA
ATOM      9  N   UNL     1       7.970   6.405  18.440  0.00  0.00    +0.000 NA
ATOM     10  C   UNL     1       7.303   6.843  17.324  0.00  0.00    +0.000 A 
ATOM     11  N   UNL     1       7.341   8.181  17.196  0.00  0.00    +0.000 NA
BRANCH   7  15
ATOM     12  C   UNL     1       9.712  12.409  18.493  0.00  0.00    +0.000 A 
ATOM     13  C   UNL     1      10.250  11.373  19.279  0.00  0.00    +0.000 A 
ATOM     14  C   UNL     1       9.711  10.085  19.244  0.00  0.00    +0.000 A 
ATOM     15  C   UNL     1       8.611   9.832  18.424  0.00  0.00    +0.000 A 
ATOM     16  C   UNL     1       8.014  10.882  17.716  0.00  0.00    +0.000 A 
ATOM     17  C   UNL     1       8.545  12.175  17.750  0.00  0.00    +0.000 A 
BRANCH  12  19
ATOM     18  C   UNL     1      11.683  13.675  18.802  0.00  0.00    +0.000 C 
ATOM     19  O   UNL     1      10.298  13.645  18.456  0.00  0.00    +0.000 OA
ENDBRANCH  12  19
BRANCH  17  20
ATOM     20  O   UNL     1       7.816  13.038  16.980  0.00  0.00    +0.000 OA
ATOM     21  C   UNL     1       7.076  14.070  17.610  0.00  0.00    +0.000 C 
ENDBRANCH  17  20
ENDBRANCH   7  15
ENDBRANCH   1  10
BRANCH   6  22
ATOM     22  N   UNL     1       4.403   6.679  16.923  0.00  0.00    +0.000 N 
ATOM     23  C   UNL     1       3.549   6.160  17.879  0.00  0.00    +0.000 C 
ATOM     24  O   UNL     1       3.522   4.993  18.254  0.00  0.00    +0.000 OA
ATOM     25  H   UNL     1       4.699   7.644  17.065  0.00  0.00    +0.000 HD
BRANCH  23  26
ATOM     26  C   UNL     1       2.630   7.136  18.517  0.00  0.00    +0.000 A 
ATOM     27  C   UNL     1       2.297   7.020  19.871  0.00  0.00    +0.000 A 
ATOM     28  C   UNL     1       1.583   8.038  20.503  0.00  0.00    +0.000 A 
ATOM     29  C   UNL     1       1.191   9.186  19.794  0.00  0.00    +0.000 A 
ATOM     30  C   UNL     1       1.485   9.270  18.423  0.00  0.00    +0.000 A 
ATOM     31  C   UNL     1       2.208   8.256  17.790  0.00  0.00    +0.000 A 
BRANCH  29  32
ATOM     32  C   UNL     1       0.506  10.336  20.493  0.00  0.00    +0.000 C 
ATOM     33  F   UNL     1      -0.374  11.008  19.698  0.00  0.00    +0.000 F 
ATOM     34  F   UNL     1      -0.211   9.931  21.578  0.00  0.00    +0.000 F 
ATOM     35  F   UNL     1       1.384  11.269  20.952  0.00  0.00    +0.000 F 
ENDBRANCH  29  32
ENDBRANCH  23  26
ENDBRANCH   6  22
TORSDOF 7
ENDMDL
MODEL 3
REMARK VINA RESULT:      -8.6      6.049      8.466
REMARK  Name = 
REMARK  9 active torsions:
REMARK  status: ('A' for Active; 'I' for Inactive)
REMARK    1  A    between atoms: C_1  and  O_2
REMARK    2  A    between atoms: O_2  and  C_3
REMARK    3  A    between atoms: C_6  and  N_7
REMARK    4  A    between atoms: C_10  and  C_11
REMARK    5  A    between atoms: C_16  and  N_17
REMARK    6  A    between atoms: C_18  and  C_20
REMARK    7  A    between atoms: C_23  and  C_24
REMARK    8  A    between atoms: C_32  and  O_33
REMARK    9  A    between atoms: O_33  and  C_34
REMARK                            x       y       z     vdW  Elec       q    Type
REMARK                         _______ _______ _______ _____ _____    ______ ____
ROOT
ATOM      1  C   UNL     1       2.499   4.743  19.985  0.00  0.00    +0.000 A 
ATOM      2  C   UNL     1       1.818   4.405  21.169  0.00  0.00    +0.000 A 
ATOM      3  C   UNL     1       1.944   3.135  21.735  0.00  0.00    +0.000 A 
ATOM      4  C   UNL     1       2.748   2.180  21.123  0.00  0.00    +0.000 A 
ATOM      5  C   UNL     1       3.395   2.480  19.925  0.00  0.00    +0.000 A 
ATOM      6  C   UNL     1       3.268   3.750  19.340  0.00  0.00    +0.000 A 
ENDROOT
BRANCH   1  10
ATOM      7  N   UNL     1       1.892   8.117  19.246  0.00  0.00    +0.000 N 
ATOM      8  N   UNL     1       2.235   7.702  18.007  0.00  0.00    +0.000 NA
ATOM      9  N   UNL     1       2.531   6.416  18.137  0.00  0.00    +0.000 NA
ATOM     10  C   UNL     1       2.363   6.099  19.462  0.00  0.00    +0.000 A 
ATOM     11  N   UNL     1       2.001   7.161  20.202  0.00  0.00    +0.000 NA
BRANCH   7  15
ATOM     12  C   UNL     1      -0.033  11.764  20.088  0.00  0.00    +0.000 A 
ATOM     13  C   UNL     1       0.449  11.499  18.793  0.00  0.00    +0.000 A 
ATOM     14  C   UNL     1       1.126  10.312  18.502  0.00  0.00    +0.000 A 
ATOM     15  C   UNL     1       1.337   9.385  19.522  0.00  0.00    +0.000 A 
ATOM     16  C   UNL     1       0.946   9.689  20.832  0.00  0.00    +0.000 A 
ATOM     17  C   UNL     1       0.271  10.876  21.131  0.00  0.00    +0.000 A 
BRANCH  12  19
ATOM     18  C   UNL     1      -2.178  12.756  20.099  0.00  0.00    +0.000 C 
ATOM     19  O   UNL     1      -0.778  12.882  20.350  0.00  0.00    +0.000 OA
ENDBRANCH  12  19
BRANCH  17  20
ATOM     20  O   UNL     1      -0.027  10.963  22.462  0.00  0.00    +0.000 OA
ATOM     21  C   UNL     1      -0.313   9.778  23.186  0.00  0.00    +0.000 C 
ENDBRANCH  17  20
ENDBRANCH   7  15
ENDBRANCH   1  10
BRANCH   6  22
ATOM     22  N   UNL     1       3.951   4.024  18.129  0.00  0.00    +0.000 N 
ATOM     23  C   UNL     1       5.305   4.300  18.077  0.00  0.00    +0.000 C 
ATOM     24  O   UNL     1       6.082   4.240  19.024  0.00  0.00    +0.000 OA
ATOM     25  H   UNL     1       3.548   3.605  17.292  0.00  0.00    +0.000 HD
BRANCH  23  26
ATOM     26  C   UNL     1       5.839   4.650  16.737  0.00  0.00    +0.000 A 
ATOM     27  C   UNL     1       7.033   5.368  16.613  0.00  0.00    +0.000 A 
ATOM     28  C   UNL     1       7.619   5.534  15.357  0.00  0.00    +0.000 A 
ATOM     29  C   UNL     1       7.021   4.988  14.209  0.00  0.00    +0.000 A 
ATOM     30  C   UNL     1       5.796   4.313  14.338  0.00  0.00    +0.000 A 
ATOM     31  C   UNL     1       5.212   4.137  15.595  0.00  0.00    +0.000 A 
BRANCH  29  32
ATOM     32  C   UNL     1       7.698   5.077  12.863  0.00  0.00    +0.000 C 
ATOM     33  F   UNL     1       7.416   4.025  12.042  0.00  0.00    +0.000 F 
ATOM     34  F   UNL     1       7.333   6.193  12.171  0.00  0.00    +0.000 F 
ATOM     35  F   UNL     1       9.054   5.124  12.959  0.00  0.00    +0.000 F 
ENDBRANCH  29  32
ENDBRANCH  23  26
ENDBRANCH   6  22
TORSDOF 7
ENDMDL
MODEL 4
REMARK VINA RESULT:      -8.5      0.805      1.166
REMARK  Name = 
REMARK  9 active torsions:
REMARK  status: ('A' for Active; 'I' for Inactive)
REMARK    1  A    between atoms: C_1  and  O_2
REMARK    2  A    between atoms: O_2  and  C_3
REMARK    3  A    between atoms: C_6  and  N_7
REMARK    4  A    between atoms: C_10  and  C_11
REMARK    5  A    between atoms: C_16  and  N_17
REMARK    6  A    between atoms: C_18  and  C_20
REMARK    7  A    between atoms: C_23  and  C_24
REMARK    8  A    between atoms: C_32  and  O_33
REMARK    9  A    between atoms: O_33  and  C_34
REMARK                            x       y       z     vdW  Elec       q    Type
REMARK                         _______ _______ _______ _____ _____    ______ ____
ROOT
ATOM      1  C   UNL     1       6.693   6.117  16.843  0.00  0.00    +0.000 A 
ATOM      2  C   UNL     1       7.479   5.118  16.242  0.00  0.00    +0.000 A 
ATOM      3  C   UNL     1       6.893   4.072  15.527  0.00  0.00    +0.000 A 
ATOM      4  C   UNL     1       5.509   4.006  15.406  0.00  0.00    +0.000 A 
ATOM      5  C   UNL     1       4.709   4.961  16.033  0.00  0.00    +0.000 A 
ATOM      6  C   UNL     1       5.287   6.011  16.763  0.00  0.00    +0.000 A 
ENDROOT
BRANCH   1  10
ATOM      7  N   UNL     1       8.198   9.057  18.023  0.00  0.00    +0.000 N 
ATOM      8  N   UNL     1       8.673   8.203  18.956  0.00  0.00    +0.000 NA
ATOM      9  N   UNL     1       8.149   7.024  18.651  0.00  0.00    +0.000 NA
ATOM     10  C   UNL     1       7.363   7.209  17.542  0.00  0.00    +0.000 A 
ATOM     11  N   UNL     1       7.335   8.492  17.142  0.00  0.00    +0.000 NA
BRANCH   7  15
ATOM     12  C   UNL     1       9.534  13.045  17.885  0.00  0.00    +0.000 A 
ATOM     13  C   UNL     1       8.219  12.724  17.497  0.00  0.00    +0.000 A 
ATOM     14  C   UNL     1       7.769  11.402  17.497  0.00  0.00    +0.000 A 
ATOM     15  C   UNL     1       8.647  10.386  17.876  0.00  0.00    +0.000 A 
ATOM     16  C   UNL     1       9.982  10.692  18.167  0.00  0.00    +0.000 A 
ATOM     17  C   UNL     1      10.441  12.013  18.165  0.00  0.00    +0.000 A 
BRANCH  12  19
ATOM     18  C   UNL     1       9.272  15.134  18.960  0.00  0.00    +0.000 C 
ATOM     19  O   UNL     1       9.944  14.348  17.975  0.00  0.00    +0.000 OA
ENDBRANCH  12  19
BRANCH  17  20
ATOM     20  O   UNL     1      11.767  12.084  18.489  0.00  0.00    +0.000 OA
ATOM     21  C   UNL     1      12.169  11.826  19.823  0.00  0.00    +0.000 C 
ENDBRANCH  17  20
ENDBRANCH   7  15
ENDBRANCH   1  10
BRANCH   6  22
ATOM     22  N   UNL     1       4.445   6.972  17.376  0.00  0.00    +0.000 N 
ATOM     23  C   UNL     1       3.368   6.626  18.172  0.00  0.00    +0.000 C 
ATOM     24  O   UNL     1       3.077   5.488  18.524  0.00  0.00    +0.000 OA
ATOM     25  H   UNL     1       4.878   7.873  17.577  0.00  0.00    +0.000 HD
BRANCH  23  26
ATOM     26  C   UNL     1       2.542   7.758  18.662  0.00  0.00    +0.000 A 
ATOM     27  C   UNL     1       2.153   8.784  17.794  0.00  0.00    +0.000 A 
ATOM     28  C   UNL     1       1.231   9.742  18.216  0.00  0.00    +0.000 A 
ATOM     29  C   UNL     1       0.684   9.690  19.509  0.00  0.00    +0.000 A 
ATOM     30  C   UNL     1       1.120   8.686  20.391  0.00  0.00    +0.000 A 
ATOM     31  C   UNL     1       2.036   7.720  19.967  0.00  0.00    +0.000 A 
BRANCH  29  32
ATOM     32  C   UNL     1      -0.387  10.663  19.940  0.00  0.00    +0.000 C 
ATOM     33  F   UNL     1      -1.521  10.590  19.188  0.00  0.00    +0.000 F 
ATOM     34  F   UNL     1      -0.785  10.460  21.228  0.00  0.00    +0.000 F 
ATOM     35  F   UNL     1       0.023  11.958  19.876  0.00  0.00    +0.000 F 
ENDBRANCH  29  32
ENDBRANCH  23  26
ENDBRANCH   6  22
TORSDOF 7
ENDMDL
MODEL 5
REMARK VINA RESULT:      -8.5      0.715      1.052
REMARK  Name = 
REMARK  9 active torsions:
REMARK  status: ('A' for Active; 'I' for Inactive)
REMARK    1  A    between atoms: C_1  and  O_2
REMARK    2  A    between atoms: O_2  and  C_3
REMARK    3  A    between atoms: C_6  and  N_7
REMARK    4  A    between atoms: C_10  and  C_11
REMARK    5  A    between atoms: C_16  and  N_17
REMARK    6  A    between atoms: C_18  and  C_20
REMARK    7  A    between atoms: C_23  and  C_24
REMARK    8  A    between atoms: C_32  and  O_33
REMARK    9  A    between atoms: O_33  and  C_34
REMARK                            x       y       z     vdW  Elec       q    Type
REMARK                         _______ _______ _______ _____ _____    ______ ____
ROOT
ATOM      1  C   UNL     1       6.748   5.968  16.358  0.00  0.00    +0.000 A 
ATOM      2  C   UNL     1       7.580   5.118  15.607  0.00  0.00    +0.000 A 
ATOM      3  C   UNL     1       7.052   4.273  14.629  0.00  0.00    +0.000 A 
ATOM      4  C   UNL     1       5.682   4.261  14.389  0.00  0.00    +0.000 A 
ATOM      5  C   UNL     1       4.835   5.063  15.154  0.00  0.00    +0.000 A 
ATOM      6  C   UNL     1       5.353   5.908  16.147  0.00  0.00    +0.000 A 
ENDROOT
BRANCH   1  10
ATOM      7  N   UNL     1       8.171   8.531  18.284  0.00  0.00    +0.000 N 
ATOM      8  N   UNL     1       8.532   7.480  19.054  0.00  0.00    +0.000 NA
ATOM      9  N   UNL     1       8.023   6.414  18.453  0.00  0.00    +0.000 NA
ATOM     10  C   UNL     1       7.360   6.860  17.337  0.00  0.00    +0.000 A 
ATOM     11  N   UNL     1       7.396   8.199  17.221  0.00  0.00    +0.000 NA
BRANCH   7  15
ATOM     12  C   UNL     1       9.361  12.505  18.987  0.00  0.00    +0.000 A 
ATOM     13  C   UNL     1       8.979  12.098  17.696  0.00  0.00    +0.000 A 
ATOM     14  C   UNL     1       8.619  10.774  17.433  0.00  0.00    +0.000 A 
ATOM     15  C   UNL     1       8.657   9.843  18.470  0.00  0.00    +0.000 A 
ATOM     16  C   UNL     1       9.130  10.223  19.732  0.00  0.00    +0.000 A 
ATOM     17  C   UNL     1       9.495  11.546  20.001  0.00  0.00    +0.000 A 
BRANCH  12  19
ATOM     18  C   UNL     1       9.844  14.653  18.126  0.00  0.00    +0.000 C 
ATOM     19  O   UNL     1       9.621  13.821  19.265  0.00  0.00    +0.000 OA
ENDBRANCH  12  19
BRANCH  17  20
ATOM     20  O   UNL     1       9.914  11.697  21.293  0.00  0.00    +0.000 OA
ATOM     21  C   UNL     1       8.976  12.078  22.285  0.00  0.00    +0.000 C 
ENDBRANCH  17  20
ENDBRANCH   7  15
ENDBRANCH   1  10
BRANCH   6  22
ATOM     22  N   UNL     1       4.464   6.719  16.896  0.00  0.00    +0.000 N 
ATOM     23  C   UNL     1       3.574   6.202  17.819  0.00  0.00    +0.000 C 
ATOM     24  O   UNL     1       3.513   5.029  18.172  0.00  0.00    +0.000 OA
ATOM     25  H   UNL     1       4.777   7.676  17.064  0.00  0.00    +0.000 HD
BRANCH  23  26
ATOM     26  C   UNL     1       2.658   7.185  18.449  0.00  0.00    +0.000 A 
ATOM     27  C   UNL     1       2.325   7.081  19.804  0.00  0.00    +0.000 A 
ATOM     28  C   UNL     1       1.613   8.106  20.428  0.00  0.00    +0.000 A 
ATOM     29  C   UNL     1       1.224   9.249  19.710  0.00  0.00    +0.000 A 
ATOM     30  C   UNL     1       1.519   9.322  18.338  0.00  0.00    +0.000 A 
ATOM     31  C   UNL     1       2.240   8.300  17.714  0.00  0.00    +0.000 A 
BRANCH  29  32
ATOM     32  C   UNL     1       0.543  10.406  20.400  0.00  0.00    +0.000 C 
ATOM     33  F   UNL     1       0.827  10.490  21.730  0.00  0.00    +0.000 F 
ATOM     34  F   UNL     1       0.900  11.609  19.870  0.00  0.00    +0.000 F 
ATOM     35  F   UNL     1      -0.813  10.346  20.309  0.00  0.00    +0.000 F 
ENDBRANCH  29  32
ENDBRANCH  23  26
ENDBRANCH   6  22
TORSDOF 7
ENDMDL
MODEL 6
REMARK VINA RESULT:      -8.3      6.232      8.408
REMARK  Name = 
REMARK  9 active torsions:
REMARK  status: ('A' for Active; 'I' for Inactive)
REMARK    1  A    between atoms: C_1  and  O_2
REMARK    2  A    between atoms: O_2  and  C_3
REMARK    3  A    between atoms: C_6  and  N_7
REMARK    4  A    between atoms: C_10  and  C_11
REMARK    5  A    between atoms: C_16  and  N_17
REMARK    6  A    between atoms: C_18  and  C_20
REMARK    7  A    between atoms: C_23  and  C_24
REMARK    8  A    between atoms: C_32  and  O_33
REMARK    9  A    between atoms: O_33  and  C_34
REMARK                            x       y       z     vdW  Elec       q    Type
REMARK                         _______ _______ _______ _____ _____    ______ ____
ROOT
ATOM      1  C   UNL     1       2.591   4.832  19.952  0.00  0.00    +0.000 A 
ATOM      2  C   UNL     1       1.997   4.627  21.211  0.00  0.00    +0.000 A 
ATOM      3  C   UNL     1       2.150   3.417  21.891  0.00  0.00    +0.000 A 
ATOM      4  C   UNL     1       2.895   2.390  21.320  0.00  0.00    +0.000 A 
ATOM      5  C   UNL     1       3.453   2.557  20.053  0.00  0.00    +0.000 A 
ATOM      6  C   UNL     1       3.297   3.765  19.355  0.00  0.00    +0.000 A 
ENDROOT
BRANCH   1  10
ATOM      7  N   UNL     1       1.990   8.134  18.932  0.00  0.00    +0.000 N 
ATOM      8  N   UNL     1       2.185   7.582  17.714  0.00  0.00    +0.000 NA
ATOM      9  N   UNL     1       2.461   6.307  17.947  0.00  0.00    +0.000 NA
ATOM     10  C   UNL     1       2.432   6.132  19.308  0.00  0.00    +0.000 A 
ATOM     11  N   UNL     1       2.180   7.276  19.966  0.00  0.00    +0.000 NA
BRANCH   7  15
ATOM     12  C   UNL     1       0.279  11.952  19.381  0.00  0.00    +0.000 A 
ATOM     13  C   UNL     1       1.341  11.752  18.479  0.00  0.00    +0.000 A 
ATOM     14  C   UNL     1       1.949  10.502  18.345  0.00  0.00    +0.000 A 
ATOM     15  C   UNL     1       1.501   9.442  19.132  0.00  0.00    +0.000 A 
ATOM     16  C   UNL     1       0.512   9.662  20.099  0.00  0.00    +0.000 A 
ATOM     17  C   UNL     1      -0.098  10.911  20.242  0.00  0.00    +0.000 A 
BRANCH  12  19
ATOM     18  C   UNL     1       0.296  14.181  20.168  0.00  0.00    +0.000 C 
ATOM     19  O   UNL     1      -0.378  13.152  19.443  0.00  0.00    +0.000 OA
ENDBRANCH  12  19
BRANCH  17  20
ATOM     20  O   UNL     1      -1.040  10.900  21.232  0.00  0.00    +0.000 OA
ATOM     21  C   UNL     1      -0.665  11.267  22.549  0.00  0.00    +0.000 C 
ENDBRANCH  17  20
ENDBRANCH   7  15
ENDBRANCH   1  10
BRANCH   6  22
ATOM     22  N   UNL     1       3.889   3.905  18.075  0.00  0.00    +0.000 N 
ATOM     23  C   UNL     1       5.226   4.206  17.897  0.00  0.00    +0.000 C 
ATOM     24  O   UNL     1       6.065   4.284  18.787  0.00  0.00    +0.000 OA
ATOM     25  H   UNL     1       3.446   3.375  17.325  0.00  0.00    +0.000 HD
BRANCH  23  26
ATOM     26  C   UNL     1       5.659   4.402  16.490  0.00  0.00    +0.000 A 
ATOM     27  C   UNL     1       6.981   4.754  16.195  0.00  0.00    +0.000 A 
ATOM     28  C   UNL     1       7.422   4.758  14.871  0.00  0.00    +0.000 A 
ATOM     29  C   UNL     1       6.552   4.410  13.824  0.00  0.00    +0.000 A 
ATOM     30  C   UNL     1       5.213   4.107  14.127  0.00  0.00    +0.000 A 
ATOM     31  C   UNL     1       4.772   4.093  15.452  0.00  0.00    +0.000 A 
BRANCH  29  32
ATOM     32  C   UNL     1       7.046   4.314  12.401  0.00  0.00    +0.000 C 
ATOM     33  F   UNL     1       6.059   4.461  11.472  0.00  0.00    +0.000 F 
ATOM     34  F   UNL     1       7.974   5.268  12.109  0.00  0.00    +0.000 F 
ATOM     35  F   UNL     1       7.640   3.121  12.131  0.00  0.00    +0.000 F 
ENDBRANCH  29  32
ENDBRANCH  23  26
ENDBRANCH   6  22
TORSDOF 7
ENDMDL
MODEL 7
REMARK VINA RESULT:      -8.3      5.864      8.117
REMARK  Name = 
REMARK  9 active torsions:
REMARK  status: ('A' for Active; 'I' for Inactive)
REMARK    1  A    between atoms: C_1  and  O_2
REMARK    2  A    between atoms: O_2  and  C_3
REMARK    3  A    between atoms: C_6  and  N_7
REMARK    4  A    between atoms: C_10  and  C_11
REMARK    5  A    between atoms: C_16  and  N_17
REMARK    6  A    between atoms: C_18  and  C_20
REMARK    7  A    between atoms: C_23  and  C_24
REMARK    8  A    between atoms: C_32  and  O_33
REMARK    9  A    between atoms: O_33  and  C_34
REMARK                            x       y       z     vdW  Elec       q    Type
REMARK                         _______ _______ _______ _____ _____    ______ ____
ROOT
ATOM      1  C   UNL     1       2.619   4.878  19.941  0.00  0.00    +0.000 A 
ATOM      2  C   UNL     1       2.027   4.671  21.200  0.00  0.00    +0.000 A 
ATOM      3  C   UNL     1       2.171   3.457  21.873  0.00  0.00    +0.000 A 
ATOM      4  C   UNL     1       2.907   2.427  21.295  0.00  0.00    +0.000 A 
ATOM      5  C   UNL     1       3.464   2.597  20.028  0.00  0.00    +0.000 A 
ATOM      6  C   UNL     1       3.316   3.809  19.337  0.00  0.00    +0.000 A 
ENDROOT
BRANCH   1  10
ATOM      7  N   UNL     1       2.007   8.180  18.927  0.00  0.00    +0.000 N 
ATOM      8  N   UNL     1       2.281   7.648  17.715  0.00  0.00    +0.000 NA
ATOM      9  N   UNL     1       2.570   6.375  17.948  0.00  0.00    +0.000 NA
ATOM     10  C   UNL     1       2.470   6.183  19.303  0.00  0.00    +0.000 A 
ATOM     11  N   UNL     1       2.157   7.313  19.960  0.00  0.00    +0.000 NA
BRANCH   7  15
ATOM     12  C   UNL     1       0.685  12.110  19.646  0.00  0.00    +0.000 A 
ATOM     13  C   UNL     1       0.071  11.025  20.299  0.00  0.00    +0.000 A 
ATOM     14  C   UNL     1       0.468   9.710  20.044  0.00  0.00    +0.000 A 
ATOM     15  C   UNL     1       1.480   9.476  19.114  0.00  0.00    +0.000 A 
ATOM     16  C   UNL     1       2.024  10.545  18.391  0.00  0.00    +0.000 A 
ATOM     17  C   UNL     1       1.629  11.863  18.639  0.00  0.00    +0.000 A 
BRANCH  12  19
ATOM     18  C   UNL     1      -0.604  14.018  19.113  0.00  0.00    +0.000 C 
ATOM     19  O   UNL     1       0.361  13.401  19.966  0.00  0.00    +0.000 OA
ENDBRANCH  12  19
BRANCH  17  20
ATOM     20  O   UNL     1       2.293  12.745  17.833  0.00  0.00    +0.000 OA
ATOM     21  C   UNL     1       3.210  13.657  18.413  0.00  0.00    +0.000 C 
ENDBRANCH  17  20
ENDBRANCH   7  15
ENDBRANCH   1  10
BRANCH   6  22
ATOM     22  N   UNL     1       3.907   3.951  18.057  0.00  0.00    +0.000 N 
ATOM     23  C   UNL     1       5.254   4.210  17.877  0.00  0.00    +0.000 C 
ATOM     24  O   UNL     1       6.098   4.244  18.765  0.00  0.00    +0.000 OA
ATOM     25  H   UNL     1       3.444   3.450  17.300  0.00  0.00    +0.000 HD
BRANCH  23  26
ATOM     26  C   UNL     1       5.687   4.415  16.472  0.00  0.00    +0.000 A 
ATOM     27  C   UNL     1       7.009   4.765  16.179  0.00  0.00    +0.000 A 
ATOM     28  C   UNL     1       7.450   4.777  14.855  0.00  0.00    +0.000 A 
ATOM     29  C   UNL     1       6.578   4.442  13.806  0.00  0.00    +0.000 A 
ATOM     30  C   UNL     1       5.239   4.142  14.106  0.00  0.00    +0.000 A 
ATOM     31  C   UNL     1       4.798   4.120  15.432  0.00  0.00    +0.000 A 
BRANCH  29  32
ATOM     32  C   UNL     1       7.072   4.356  12.382  0.00  0.00    +0.000 C 
ATOM     33  F   UNL     1       6.074   4.428  11.456  0.00  0.00    +0.000 F 
ATOM     34  F   UNL     1       7.938   5.361  12.071  0.00  0.00    +0.000 F 
ATOM     35  F   UNL     1       7.738   3.198  12.126  0.00  0.00    +0.000 F 
ENDBRANCH  29  32
ENDBRANCH  23  26
ENDBRANCH   6  22
TORSDOF 7
ENDMDL
MODEL 8
REMARK VINA RESULT:      -8.1      5.881      8.367
REMARK  Name = 
REMARK  9 active torsions:
REMARK  status: ('A' for Active; 'I' for Inactive)
REMARK    1  A    between atoms: C_1  and  O_2
REMARK    2  A    between atoms: O_2  and  C_3
REMARK    3  A    between atoms: C_6  and  N_7
REMARK    4  A    between atoms: C_10  and  C_11
REMARK    5  A    between atoms: C_16  and  N_17
REMARK    6  A    between atoms: C_18  and  C_20
REMARK    7  A    between atoms: C_23  and  C_24
REMARK    8  A    between atoms: C_32  and  O_33
REMARK    9  A    between atoms: O_33  and  C_34
REMARK                            x       y       z     vdW  Elec       q    Type
REMARK                         _______ _______ _______ _____ _____    ______ ____
ROOT
ATOM      1  C   UNL     1       2.603   5.110  19.886  0.00  0.00    +0.000 A 
ATOM      2  C   UNL     1       1.935   4.821  21.089  0.00  0.00    +0.000 A 
ATOM      3  C   UNL     1       2.053   3.569  21.697  0.00  0.00    +0.000 A 
ATOM      4  C   UNL     1       2.838   2.584  21.106  0.00  0.00    +0.000 A 
ATOM      5  C   UNL     1       3.472   2.836  19.890  0.00  0.00    +0.000 A 
ATOM      6  C   UNL     1       3.352   4.086  19.265  0.00  0.00    +0.000 A 
ENDROOT
BRANCH   1  10
ATOM      7  N   UNL     1       1.864   8.403  18.931  0.00  0.00    +0.000 N 
ATOM      8  N   UNL     1       2.607   8.048  17.860  0.00  0.00    +0.000 NA
ATOM      9  N   UNL     1       2.995   6.803  18.099  0.00  0.00    +0.000 NA
ATOM     10  C   UNL     1       2.476   6.449  19.319  0.00  0.00    +0.000 A 
ATOM     11  N   UNL     1       1.791   7.451  19.895  0.00  0.00    +0.000 NA
BRANCH   7  15
ATOM     12  C   UNL     1      -0.511  11.845  19.398  0.00  0.00    +0.000 A 
ATOM     13  C   UNL     1      -0.795  10.922  18.375  0.00  0.00    +0.000 A 
ATOM     14  C   UNL     1       0.005   9.794  18.178  0.00  0.00    +0.000 A 
ATOM     15  C   UNL     1       1.111   9.594  19.004  0.00  0.00    +0.000 A 
ATOM     16  C   UNL     1       1.452  10.561  19.958  0.00  0.00    +0.000 A 
ATOM     17  C   UNL     1       0.658  11.694  20.158  0.00  0.00    +0.000 A 
BRANCH  12  19
ATOM     18  C   UNL     1      -2.321  12.674  20.673  0.00  0.00    +0.000 C 
ATOM     19  O   UNL     1      -1.349  12.898  19.651  0.00  0.00    +0.000 OA
ENDBRANCH  12  19
BRANCH  17  20
ATOM     20  O   UNL     1       1.166  12.495  21.142  0.00  0.00    +0.000 OA
ATOM     21  C   UNL     1       2.176  13.435  20.817  0.00  0.00    +0.000 C 
ENDBRANCH  17  20
ENDBRANCH   7  15
ENDBRANCH   1  10
BRANCH   6  22
ATOM     22  N   UNL     1       4.020   4.311  18.036  0.00  0.00    +0.000 N 
ATOM     23  C   UNL     1       5.396   4.412  17.938  0.00  0.00    +0.000 C 
ATOM     24  O   UNL     1       6.192   4.222  18.851  0.00  0.00    +0.000 OA
ATOM     25  H   UNL     1       3.537   3.975  17.203  0.00  0.00    +0.000 HD
BRANCH  23  26
ATOM     26  C   UNL     1       5.923   4.736  16.589  0.00  0.00    +0.000 A 
ATOM     27  C   UNL     1       7.025   5.585  16.440  0.00  0.00    +0.000 A 
ATOM     28  C   UNL     1       7.623   5.738  15.189  0.00  0.00    +0.000 A 
ATOM     29  C   UNL     1       7.130   5.047  14.069  0.00  0.00    +0.000 A 
ATOM     30  C   UNL     1       5.991   4.238  14.218  0.00  0.00    +0.000 A 
ATOM     31  C   UNL     1       5.397   4.076  15.472  0.00  0.00    +0.000 A 
BRANCH  29  32
ATOM     32  C   UNL     1       7.830   5.129  12.734  0.00  0.00    +0.000 C 
ATOM     33  F   UNL     1       7.474   6.221  12.000  0.00  0.00    +0.000 F 
ATOM     34  F   UNL     1       9.184   5.195  12.861  0.00  0.00    +0.000 F 
ATOM     35  F   UNL     1       7.582   4.049  11.944  0.00  0.00    +0.000 F 
ENDBRANCH  29  32
ENDBRANCH  23  26
ENDBRANCH   6  22
TORSDOF 7
ENDMDL
MODEL 9
REMARK VINA RESULT:      -8.1      1.009      1.394
REMARK  Name = 
REMARK  9 active torsions:
REMARK  status: ('A' for Active; 'I' for Inactive)
REMARK    1  A    between atoms: C_1  and  O_2
REMARK    2  A    between atoms: O_2  and  C_3
REMARK    3  A    between atoms: C_6  and  N_7
REMARK    4  A    between atoms: C_10  and  C_11
REMARK    5  A    between atoms: C_16  and  N_17
REMARK    6  A    between atoms: C_18  and  C_20
REMARK    7  A    between atoms: C_23  and  C_24
REMARK    8  A    between atoms: C_32  and  O_33
REMARK    9  A    between atoms: O_33  and  C_34
REMARK                            x       y       z     vdW  Elec       q    Type
REMARK                         _______ _______ _______ _____ _____    ______ ____
ROOT
ATOM      1  C   UNL     1       6.668   5.765  16.522  0.00  0.00    +0.000 A 
ATOM      2  C   UNL     1       7.494   5.108  15.593  0.00  0.00    +0.000 A 
ATOM      3  C   UNL     1       6.970   4.169  14.702  0.00  0.00    +0.000 A 
ATOM      4  C   UNL     1       5.613   3.868  14.730  0.00  0.00    +0.000 A 
ATOM      5  C   UNL     1       4.785   4.475  15.674  0.00  0.00    +0.000 A 
ATOM      6  C   UNL     1       5.302   5.412  16.582  0.00  0.00    +0.000 A 
ENDROOT
BRANCH   1  10
ATOM      7  N   UNL     1       8.035   8.546  18.166  0.00  0.00    +0.000 N 
ATOM      8  N   UNL     1       8.430   7.588  19.034  0.00  0.00    +0.000 NA
ATOM      9  N   UNL     1       7.946   6.453  18.549  0.00  0.00    +0.000 NA
ATOM     10  C   UNL     1       7.263   6.767  17.401  0.00  0.00    +0.000 A 
ATOM     11  N   UNL     1       7.260   8.088  17.150  0.00  0.00    +0.000 NA
BRANCH   7  15
ATOM     12  C   UNL     1       9.233  12.559  18.574  0.00  0.00    +0.000 A 
ATOM     13  C   UNL     1       8.252  12.204  17.629  0.00  0.00    +0.000 A 
ATOM     14  C   UNL     1       7.870  10.873  17.449  0.00  0.00    +0.000 A 
ATOM     15  C   UNL     1       8.485   9.882  18.214  0.00  0.00    +0.000 A 
ATOM     16  C   UNL     1       9.529  10.220  19.084  0.00  0.00    +0.000 A 
ATOM     17  C   UNL     1       9.920  11.551  19.265  0.00  0.00    +0.000 A 
BRANCH  12  19
ATOM     18  C   UNL     1      10.541  14.431  17.967  0.00  0.00    +0.000 C 
ATOM     19  O   UNL     1       9.539  13.871  18.815  0.00  0.00    +0.000 OA
ENDBRANCH  12  19
BRANCH  17  20
ATOM     20  O   UNL     1      10.944  11.654  20.164  0.00  0.00    +0.000 OA
ATOM     21  C   UNL     1      12.280  11.672  19.692  0.00  0.00    +0.000 C 
ENDBRANCH  17  20
ENDBRANCH   7  15
ENDBRANCH   1  10
BRANCH   6  22
ATOM     22  N   UNL     1       4.430   6.019  17.519  0.00  0.00    +0.000 N 
ATOM     23  C   UNL     1       3.707   7.165  17.239  0.00  0.00    +0.000 C 
ATOM     24  O   UNL     1       3.649   7.722  16.148  0.00  0.00    +0.000 OA
ATOM     25  H   UNL     1       4.021   5.392  18.211  0.00  0.00    +0.000 HD
BRANCH  23  26
ATOM     26  C   UNL     1       2.911   7.714  18.364  0.00  0.00    +0.000 A 
ATOM     27  C   UNL     1       2.248   8.940  18.236  0.00  0.00    +0.000 A 
ATOM     28  C   UNL     1       1.359   9.358  19.226  0.00  0.00    +0.000 A 
ATOM     29  C   UNL     1       1.118   8.562  20.358  0.00  0.00    +0.000 A 
ATOM     30  C   UNL     1       1.827   7.357  20.502  0.00  0.00    +0.000 A 
ATOM     31  C   UNL     1       2.711   6.931  19.507  0.00  0.00    +0.000 A 
BRANCH  29  32
ATOM     32  C   UNL     1       0.085   8.959  21.384  0.00  0.00    +0.000 C 
ATOM     33  F   UNL     1      -0.748   7.940  21.739  0.00  0.00    +0.000 F 
ATOM     34  F   UNL     1       0.648   9.398  22.544  0.00  0.00    +0.000 F 
ATOM     35  F   UNL     1      -0.720   9.969  20.955  0.00  0.00    +0.000 F 
ENDBRANCH  29  32
ENDBRANCH  23  26
ENDBRANCH   6  22
TORSDOF 7
ENDMDL
