MODEL 1
REMARK VINA RESULT:      -5.8      0.000      0.000
REMARK  Name = 
REMARK  5 active torsions:
REMARK  status: ('A' for Active; 'I' for Inactive)
REMARK    1  A    between atoms: C_1  and  C_2
REMARK    2  A    between atoms: C_2  and  N_3
REMARK    3  A    between atoms: C_4  and  S_5
REMARK    4  A    between atoms: C_8  and  C_9
REMARK    5  A    between atoms: C_11  and  C_12
REMARK                            x       y       z     vdW  Elec       q    Type
REMARK                         _______ _______ _______ _____ _____    ______ ____
ROOT
ATOM      1  N   UNL     1       3.684   3.613  17.198  0.00  0.00    +0.000 NA
ATOM      2  C   UNL     1       3.901   4.853  17.479  0.00  0.00    +0.000 C 
ATOM      3  N   UNL     1       4.817   5.598  16.755  0.00  0.00    +0.000 N 
ATOM      4  C   UNL     1       5.514   6.798  17.244  0.00  0.00    +0.000 C 
ATOM      5  C   UNL     1       7.033   6.544  17.230  0.00  0.00    +0.000 C 
ATOM      6  C   UNL     1       7.794   7.775  17.701  0.00  0.00    +0.000 C 
ATOM      7  O   UNL     1       7.475   6.230  15.898  0.00  0.00    +0.000 OA
ATOM      8  C   UNL     1       6.834   5.029  15.421  0.00  0.00    +0.000 C 
ATOM      9  C   UNL     1       7.353   4.787  14.008  0.00  0.00    +0.000 C 
ATOM     10  C   UNL     1       5.296   5.167  15.430  0.00  0.00    +0.000 C 
ENDROOT
BRANCH   1  12
ATOM     11  C   UNL     1       3.479   1.541  18.439  0.00  0.00    +0.000 C 
ATOM     12  C   UNL     1       2.755   2.784  17.953  0.00  0.00    +0.000 C 
ENDBRANCH   1  12
BRANCH   2  13
ATOM     13  S   UNL     1       3.043   5.712  18.771  0.00  0.00    +0.000 S 
ATOM     14  H   UNL     1       4.027   5.758  19.671  0.00  0.00    +0.000 HD
ENDBRANCH   2  13
TORSDOF 2
ENDMDL
MODEL 2
REMARK VINA RESULT:      -5.6      1.896      3.039
REMARK  Name = 
REMARK  5 active torsions:
REMARK  status: ('A' for Active; 'I' for Inactive)
REMARK    1  A    between atoms: C_1  and  C_2
REMARK    2  A    between atoms: C_2  and  N_3
REMARK    3  A    between atoms: C_4  and  S_5
REMARK    4  A    between atoms: C_8  and  C_9
REMARK    5  A    between atoms: C_11  and  C_12
REMARK                            x       y       z     vdW  Elec       q    Type
REMARK                         _______ _______ _______ _____ _____    ______ ____
ROOT
ATOM      1  N   UNL     1       3.350   5.159  18.973  0.00  0.00    +0.000 NA
ATOM      2  C   UNL     1       3.875   4.295  18.171  0.00  0.00    +0.000 C 
ATOM      3  N   UNL     1       5.121   4.510  17.608  0.00  0.00    +0.000 N 
ATOM      4  C   UNL     1       5.604   3.910  16.355  0.00  0.00    +0.000 C 
ATOM      5  C   UNL     1       5.928   5.029  15.346  0.00  0.00    +0.000 C 
ATOM      6  C   UNL     1       6.461   4.449  14.044  0.00  0.00    +0.000 C 
ATOM      7  O   UNL     1       6.928   5.911  15.884  0.00  0.00    +0.000 OA
ATOM      8  C   UNL     1       6.452   6.543  17.090  0.00  0.00    +0.000 C 
ATOM      9  C   UNL     1       7.578   7.443  17.587  0.00  0.00    +0.000 C 
ATOM     10  C   UNL     1       6.063   5.500  18.159  0.00  0.00    +0.000 C 
ENDROOT
BRANCH   1  12
ATOM     11  C   UNL     1       2.181   4.613  21.025  0.00  0.00    +0.000 C 
ATOM     12  C   UNL     1       2.029   4.988  19.561  0.00  0.00    +0.000 C 
ENDBRANCH   1  12
BRANCH   2  13
ATOM     13  S   UNL     1       3.081   2.767  17.748  0.00  0.00    +0.000 S 
ATOM     14  H   UNL     1       2.304   2.638  18.824  0.00  0.00    +0.000 HD
ENDBRANCH   2  13
TORSDOF 2
ENDMDL
MODEL 3
REMARK VINA RESULT:      -5.4      2.236      3.263
REMARK  Name = 
REMARK  5 active torsions:
REMARK  status: ('A' for Active; 'I' for Inactive)
REMARK    1  A    between atoms: C_1  and  C_2
REMARK    2  A    between atoms: C_2  and  N_3
REMARK    3  A    between atoms: C_4  and  S_5
REMARK    4  A    between atoms: C_8  and  C_9
REMARK    5  A    between atoms: C_11  and  C_12
REMARK                            x       y       z     vdW  Elec       q    Type
REMARK                         _______ _______ _______ _____ _____    ______ ____
ROOT
ATOM      1  N   UNL     1       3.113   4.362  19.957  0.00  0.00    +0.000 NA
ATOM      2  C   UNL     1       3.358   3.799  18.822  0.00  0.00    +0.000 C 
ATOM      3  N   UNL     1       4.586   3.948  18.201  0.00  0.00    +0.000 N 
ATOM      4  C   UNL     1       4.834   3.810  16.758  0.00  0.00    +0.000 C 
ATOM      5  C   UNL     1       5.380   5.140  16.206  0.00  0.00    +0.000 C 
ATOM      6  C   UNL     1       5.678   5.029  14.718  0.00  0.00    +0.000 C 
ATOM      7  O   UNL     1       6.600   5.497  16.879  0.00  0.00    +0.000 OA
ATOM      8  C   UNL     1       6.365   5.681  18.291  0.00  0.00    +0.000 C 
ATOM      9  C   UNL     1       7.707   6.042  18.915  0.00  0.00    +0.000 C 
ATOM     10  C   UNL     1       5.778   4.408  18.936  0.00  0.00    +0.000 C 
ENDROOT
BRANCH   1  12
ATOM     11  C   UNL     1       1.884   3.135  21.647  0.00  0.00    +0.000 C 
ATOM     12  C   UNL     1       1.825   4.259  20.627  0.00  0.00    +0.000 C 
ENDBRANCH   1  12
BRANCH   2  13
ATOM     13  S   UNL     1       2.178   2.778  17.980  0.00  0.00    +0.000 S 
ATOM     14  H   UNL     1       2.354   3.242  16.742  0.00  0.00    +0.000 HD
ENDBRANCH   2  13
TORSDOF 2
ENDMDL
MODEL 4
REMARK VINA RESULT:      -5.4      1.427      1.519
REMARK  Name = 
REMARK  5 active torsions:
REMARK  status: ('A' for Active; 'I' for Inactive)
REMARK    1  A    between atoms: C_1  and  C_2
REMARK    2  A    between atoms: C_2  and  N_3
REMARK    3  A    between atoms: C_4  and  S_5
REMARK    4  A    between atoms: C_8  and  C_9
REMARK    5  A    between atoms: C_11  and  C_12
REMARK                            x       y       z     vdW  Elec       q    Type
REMARK                         _______ _______ _______ _____ _____    ______ ____
ROOT
ATOM      1  N   UNL     1       3.149   2.855  18.225  0.00  0.00    +0.000 NA
ATOM      2  C   UNL     1       3.542   4.045  18.533  0.00  0.00    +0.000 C 
ATOM      3  N   UNL     1       4.390   4.755  17.701  0.00  0.00    +0.000 N 
ATOM      4  C   UNL     1       5.284   5.843  18.124  0.00  0.00    +0.000 C 
ATOM      5  C   UNL     1       6.742   5.451  17.819  0.00  0.00    +0.000 C 
ATOM      6  C   UNL     1       7.699   6.566  18.216  0.00  0.00    +0.000 C 
ATOM      7  O   UNL     1       6.909   5.200  16.413  0.00  0.00    +0.000 OA
ATOM      8  C   UNL     1       6.071   4.104  15.991  0.00  0.00    +0.000 C 
ATOM      9  C   UNL     1       6.306   3.924  14.496  0.00  0.00    +0.000 C 
ATOM     10  C   UNL     1       4.582   4.384  16.288  0.00  0.00    +0.000 C 
ENDROOT
BRANCH   1  12
ATOM     11  C   UNL     1       0.836   2.329  18.719  0.00  0.00    +0.000 C 
ATOM     12  C   UNL     1       2.285   2.061  19.086  0.00  0.00    +0.000 C 
ENDBRANCH   1  12
BRANCH   2  13
ATOM     13  S   UNL     1       3.018   4.878  20.008  0.00  0.00    +0.000 S 
ATOM     14  H   UNL     1       1.734   4.518  19.999  0.00  0.00    +0.000 HD
ENDBRANCH   2  13
TORSDOF 2
ENDMDL
MODEL 5
REMARK VINA RESULT:      -5.3      2.836      5.618
REMARK  Name = 
REMARK  5 active torsions:
REMARK  status: ('A' for Active; 'I' for Inactive)
REMARK    1  A    between atoms: C_1  and  C_2
REMARK    2  A    between atoms: C_2  and  N_3
REMARK    3  A    between atoms: C_4  and  S_5
REMARK    4  A    between atoms: C_8  and  C_9
REMARK    5  A    between atoms: C_11  and  C_12
REMARK                            x       y       z     vdW  Elec       q    Type
REMARK                         _______ _______ _______ _____ _____    ______ ____
ROOT
ATOM      1  N   UNL     1       6.524   6.329  18.435  0.00  0.00    +0.000 NA
ATOM      2  C   UNL     1       6.049   5.387  17.692  0.00  0.00    +0.000 C 
ATOM      3  N   UNL     1       4.763   4.911  17.880  0.00  0.00    +0.000 N 
ATOM      4  C   UNL     1       4.283   3.578  17.486  0.00  0.00    +0.000 C 
ATOM      5  C   UNL     1       3.804   2.819  18.738  0.00  0.00    +0.000 C 
ATOM      6  C   UNL     1       3.271   1.442  18.368  0.00  0.00    +0.000 C 
ATOM      7  O   UNL     1       2.749   3.546  19.389  0.00  0.00    +0.000 OA
ATOM      8  C   UNL     1       3.216   4.840  19.823  0.00  0.00    +0.000 C 
ATOM      9  C   UNL     1       2.033   5.534  20.486  0.00  0.00    +0.000 C 
ATOM     10  C   UNL     1       3.755   5.671  18.640  0.00  0.00    +0.000 C 
ENDROOT
BRANCH   1  12
ATOM     11  C   UNL     1       7.836   8.200  17.628  0.00  0.00    +0.000 C 
ATOM     12  C   UNL     1       7.882   6.837  18.294  0.00  0.00    +0.000 C 
ENDBRANCH   1  12
BRANCH   2  13
ATOM     13  S   UNL     1       6.969   4.650  16.368  0.00  0.00    +0.000 S 
ATOM     14  H   UNL     1       6.079   3.731  15.990  0.00  0.00    +0.000 HD
ENDBRANCH   2  13
TORSDOF 2
ENDMDL
MODEL 6
REMARK VINA RESULT:      -5.3      2.827      4.823
REMARK  Name = 
REMARK  5 active torsions:
REMARK  status: ('A' for Active; 'I' for Inactive)
REMARK    1  A    between atoms: C_1  and  C_2
REMARK    2  A    between atoms: C_2  and  N_3
REMARK    3  A    between atoms: C_4  and  S_5
REMARK    4  A    between atoms: C_8  and  C_9
REMARK    5  A    between atoms: C_11  and  C_12
REMARK                            x       y       z     vdW  Elec       q    Type
REMARK                         _______ _______ _______ _____ _____    ______ ____
ROOT
ATOM      1  N   UNL     1       5.650   3.991  16.295  0.00  0.00    +0.000 NA
ATOM      2  C   UNL     1       5.619   4.704  17.370  0.00  0.00    +0.000 C 
ATOM      3  N   UNL     1       4.626   4.524  18.317  0.00  0.00    +0.000 N 
ATOM      4  C   UNL     1       4.178   5.537  19.285  0.00  0.00    +0.000 C 
ATOM      5  C   UNL     1       2.684   5.836  19.054  0.00  0.00    +0.000 C 
ATOM      6  C   UNL     1       2.174   6.860  20.058  0.00  0.00    +0.000 C 
ATOM      7  O   UNL     1       1.906   4.637  19.207  0.00  0.00    +0.000 OA
ATOM      8  C   UNL     1       2.302   3.648  18.233  0.00  0.00    +0.000 C 
ATOM      9  C   UNL     1       1.435   2.419  18.480  0.00  0.00    +0.000 C 
ATOM     10  C   UNL     1       3.801   3.303  18.356  0.00  0.00    +0.000 C 
ENDROOT
BRANCH   1  12
ATOM     11  C   UNL     1       6.008   3.992  13.898  0.00  0.00    +0.000 C 
ATOM     12  C   UNL     1       6.657   4.170  15.259  0.00  0.00    +0.000 C 
ENDBRANCH   1  12
BRANCH   2  13
ATOM     13  S   UNL     1       6.839   5.936  17.744  0.00  0.00    +0.000 S 
ATOM     14  H   UNL     1       6.121   6.683  18.584  0.00  0.00    +0.000 HD
ENDBRANCH   2  13
TORSDOF 2
ENDMDL
MODEL 7
REMARK VINA RESULT:      -5.2      1.425      1.439
REMARK  Name = 
REMARK  5 active torsions:
REMARK  status: ('A' for Active; 'I' for Inactive)
REMARK    1  A    between atoms: C_1  and  C_2
REMARK    2  A    between atoms: C_2  and  N_3
REMARK    3  A    between atoms: C_4  and  S_5
REMARK    4  A    between atoms: C_8  and  C_9
REMARK    5  A    between atoms: C_11  and  C_12
REMARK                            x       y       z     vdW  Elec       q    Type
REMARK                         _______ _______ _______ _____ _____    ______ ____
ROOT
ATOM      1  N   UNL     1       2.654   4.087  17.507  0.00  0.00    +0.000 NA
ATOM      2  C   UNL     1       3.358   4.982  18.114  0.00  0.00    +0.000 C 
ATOM      3  N   UNL     1       4.573   5.403  17.600  0.00  0.00    +0.000 N 
ATOM      4  C   UNL     1       5.668   5.997  18.381  0.00  0.00    +0.000 C 
ATOM      5  C   UNL     1       6.921   5.109  18.256  0.00  0.00    +0.000 C 
ATOM      6  C   UNL     1       8.089   5.706  19.028  0.00  0.00    +0.000 C 
ATOM      7  O   UNL     1       7.313   4.990  16.878  0.00  0.00    +0.000 OA
ATOM      8  C   UNL     1       6.266   4.368  16.105  0.00  0.00    +0.000 C 
ATOM      9  C   UNL     1       6.765   4.297  14.667  0.00  0.00    +0.000 C 
ATOM     10  C   UNL     1       4.947   5.165  16.195  0.00  0.00    +0.000 C 
ENDROOT
BRANCH   1  12
ATOM     11  C   UNL     1       1.618   2.247  18.698  0.00  0.00    +0.000 C 
ATOM     12  C   UNL     1       1.389   3.591  18.029  0.00  0.00    +0.000 C 
ENDBRANCH   1  12
BRANCH   2  13
ATOM     13  S   UNL     1       2.834   5.764  19.616  0.00  0.00    +0.000 S 
ATOM     14  H   UNL     1       1.621   5.217  19.716  0.00  0.00    +0.000 HD
ENDBRANCH   2  13
TORSDOF 2
ENDMDL
MODEL 8
REMARK VINA RESULT:      -5.2      2.878      5.687
REMARK  Name = 
REMARK  5 active torsions:
REMARK  status: ('A' for Active; 'I' for Inactive)
REMARK    1  A    between atoms: C_1  and  C_2
REMARK    2  A    between atoms: C_2  and  N_3
REMARK    3  A    between atoms: C_4  and  S_5
REMARK    4  A    between atoms: C_8  and  C_9
REMARK    5  A    between atoms: C_11  and  C_12
REMARK                            x       y       z     vdW  Elec       q    Type
REMARK                         _______ _______ _______ _____ _____    ______ ____
ROOT
ATOM      1  N   UNL     1       5.832   6.230  17.771  0.00  0.00    +0.000 NA
ATOM      2  C   UNL     1       5.014   5.399  17.217  0.00  0.00    +0.000 C 
ATOM      3  N   UNL     1       3.700   5.304  17.639  0.00  0.00    +0.000 N 
ATOM      4  C   UNL     1       2.836   4.125  17.473  0.00  0.00    +0.000 C 
ATOM      5  C   UNL     1       2.396   3.618  18.860  0.00  0.00    +0.000 C 
ATOM      6  C   UNL     1       1.474   2.414  18.731  0.00  0.00    +0.000 C 
ATOM      7  O   UNL     1       1.686   4.649  19.566  0.00  0.00    +0.000 OA
ATOM      8  C   UNL     1       2.534   5.796  19.777  0.00  0.00    +0.000 C 
ATOM      9  C   UNL     1       1.695   6.832  20.517  0.00  0.00    +0.000 C 
ATOM     10  C   UNL     1       3.062   6.362  18.441  0.00  0.00    +0.000 C 
ENDROOT
BRANCH   1  12
ATOM     11  C   UNL     1       7.683   7.779  17.551  0.00  0.00    +0.000 C 
ATOM     12  C   UNL     1       7.230   6.339  17.381  0.00  0.00    +0.000 C 
ENDBRANCH   1  12
BRANCH   2  13
ATOM     13  S   UNL     1       5.480   4.346  15.869  0.00  0.00    +0.000 S 
ATOM     14  H   UNL     1       4.569   3.386  16.038  0.00  0.00    +0.000 HD
ENDBRANCH   2  13
TORSDOF 2
ENDMDL
MODEL 9
REMARK VINA RESULT:      -5.2      2.380      3.549
REMARK  Name = 
REMARK  5 active torsions:
REMARK  status: ('A' for Active; 'I' for Inactive)
REMARK    1  A    between atoms: C_1  and  C_2
REMARK    2  A    between atoms: C_2  and  N_3
REMARK    3  A    between atoms: C_4  and  S_5
REMARK    4  A    between atoms: C_8  and  C_9
REMARK    5  A    between atoms: C_11  and  C_12
REMARK                            x       y       z     vdW  Elec       q    Type
REMARK                         _______ _______ _______ _____ _____    ______ ____
ROOT
ATOM      1  N   UNL     1       3.007   5.136  19.918  0.00  0.00    +0.000 NA
ATOM      2  C   UNL     1       3.158   4.366  18.893  0.00  0.00    +0.000 C 
ATOM      3  N   UNL     1       4.392   4.226  18.282  0.00  0.00    +0.000 N 
ATOM      4  C   UNL     1       4.610   3.820  16.886  0.00  0.00    +0.000 C 
ATOM      5  C   UNL     1       5.350   4.945  16.137  0.00  0.00    +0.000 C 
ATOM      6  C   UNL     1       5.621   4.551  14.693  0.00  0.00    +0.000 C 
ATOM      7  O   UNL     1       6.612   5.218  16.769  0.00  0.00    +0.000 OA
ATOM      8  C   UNL     1       6.414   5.662  18.128  0.00  0.00    +0.000 C 
ATOM      9  C   UNL     1       7.798   5.914  18.713  0.00  0.00    +0.000 C 
ATOM     10  C   UNL     1       5.643   4.614  18.958  0.00  0.00    +0.000 C 
ENDROOT
BRANCH   1  12
ATOM     11  C   UNL     1       1.505   6.824  20.794  0.00  0.00    +0.000 C 
ATOM     12  C   UNL     1       1.721   5.337  20.570  0.00  0.00    +0.000 C 
ENDBRANCH   1  12
BRANCH   2  13
ATOM     13  S   UNL     1       1.833   3.411  18.203  0.00  0.00    +0.000 S 
ATOM     14  H   UNL     1       1.985   3.750  16.922  0.00  0.00    +0.000 HD
ENDBRANCH   2  13
TORSDOF 2
ENDMDL
