MODEL 1
REMARK VINA RESULT:      -7.5      0.000      0.000
REMARK  Name = 
REMARK  7 active torsions:
REMARK  status: ('A' for Active; 'I' for Inactive)
REMARK    1  A    between atoms: C_1  and  C_2
REMARK    2  A    between atoms: C_8  and  N_9
REMARK    3  A    between atoms: C_11  and  O_12
REMARK    4  A    between atoms: C_13  and  C_14
REMARK    5  A    between atoms: N_16  and  C_17
REMARK    6  A    between atoms: C_17  and  C_18
REMARK    7  A    between atoms: C_18  and  O_19
REMARK                            x       y       z     vdW  Elec       q    Type
REMARK                         _______ _______ _______ _____ _____    ______ ____
ROOT
ATOM      1  N   UNL     1       5.172   4.775  17.737  0.00  0.00    +0.000 N 
ATOM      2  C   UNL     1       5.999   5.853  17.983  0.00  0.00    +0.000 A 
ATOM      3  C   UNL     1       6.766   6.012  16.868  0.00  0.00    +0.000 A 
ATOM      4  C   UNL     1       6.358   5.019  15.950  0.00  0.00    +0.000 A 
ATOM      5  N   UNL     1       5.415   4.225  16.508  0.00  0.00    +0.000 NA
ENDROOT
BRANCH   1  13
ATOM      6  C   UNL     1       2.495   6.154  18.057  0.00  0.00    +0.000 C 
ATOM      7  C   UNL     1       2.921   4.920  18.804  0.00  0.00    +0.000 A 
ATOM      8  C   UNL     1       1.987   4.339  19.688  0.00  0.00    +0.000 A 
ATOM      9  C   UNL     1       2.288   3.176  20.386  0.00  0.00    +0.000 A 
ATOM     10  F   UNL     1       1.379   2.647  21.217  0.00  0.00    +0.000 F 
ATOM     11  C   UNL     1       3.514   2.552  20.230  0.00  0.00    +0.000 A 
ATOM     12  C   UNL     1       4.449   3.098  19.350  0.00  0.00    +0.000 A 
ATOM     13  C   UNL     1       4.171   4.283  18.632  0.00  0.00    +0.000 A 
ENDBRANCH   1  13
BRANCH   4  14
ATOM     14  C   UNL     1       6.881   4.833  14.587  0.00  0.00    +0.000 C 
ATOM     15  O   UNL     1       7.797   5.512  14.126  0.00  0.00    +0.000 OA
ATOM     16  N   UNL     1       6.268   3.840  13.845  0.00  0.00    +0.000 N 
ATOM     17  H   UNL     1       5.448   3.401  14.253  0.00  0.00    +0.000 HD
BRANCH  16  18
ATOM     18  C   UNL     1       6.669   3.564  12.473  0.00  0.00    +0.000 C 
BRANCH  18  19
ATOM     19  C   UNL     1       5.497   2.877  11.757  0.00  0.00    +0.000 C 
ATOM     20  C   UNL     1       4.981   3.551  10.447  0.00  0.00    +0.000 C 
ATOM     21  C   UNL     1       3.551   3.231  10.909  0.00  0.00    +0.000 C 
ATOM     22  C   UNL     1       4.092   3.198  12.353  0.00  0.00    +0.000 C 
BRANCH  19  23
ATOM     23  O   UNL     1       5.774   1.457  11.635  0.00  0.00    +0.000 OA
ATOM     24  H   UNL     1       5.184   1.050  12.296  0.00  0.00    +0.000 HD
ENDBRANCH  19  23
ENDBRANCH  18  19
ENDBRANCH  16  18
ENDBRANCH   4  14
BRANCH   3  25
ATOM     25  O   UNL     1       7.715   6.948  16.731  0.00  0.00    +0.000 OA
ATOM     26  H   UNL     1       8.266   6.781  15.948  0.00  0.00    +0.000 HD
ENDBRANCH   3  25
TORSDOF 6
ENDMDL
MODEL 2
REMARK VINA RESULT:      -7.4      5.347      8.254
REMARK  Name = 
REMARK  7 active torsions:
REMARK  status: ('A' for Active; 'I' for Inactive)
REMARK    1  A    between atoms: C_1  and  C_2
REMARK    2  A    between atoms: C_8  and  N_9
REMARK    3  A    between atoms: C_11  and  O_12
REMARK    4  A    between atoms: C_13  and  C_14
REMARK    5  A    between atoms: N_16  and  C_17
REMARK    6  A    between atoms: C_17  and  C_18
REMARK    7  A    between atoms: C_18  and  O_19
REMARK                            x       y       z     vdW  Elec       q    Type
REMARK                         _______ _______ _______ _____ _____    ______ ____
ROOT
ATOM      1  N   UNL     1       2.914   6.972  18.515  0.00  0.00    +0.000 N 
ATOM      2  C   UNL     1       2.527   6.810  19.831  0.00  0.00    +0.000 A 
ATOM      3  C   UNL     1       1.824   7.929  20.165  0.00  0.00    +0.000 A 
ATOM      4  C   UNL     1       1.785   8.744  19.011  0.00  0.00    +0.000 A 
ATOM      5  N   UNL     1       2.503   8.176  18.014  0.00  0.00    +0.000 NA
ENDROOT
BRANCH   1  13
ATOM      6  C   UNL     1       1.829   4.194  17.988  0.00  0.00    +0.000 C 
ATOM      7  C   UNL     1       3.157   4.704  17.501  0.00  0.00    +0.000 A 
ATOM      8  C   UNL     1       3.936   3.838  16.704  0.00  0.00    +0.000 A 
ATOM      9  C   UNL     1       5.157   4.248  16.182  0.00  0.00    +0.000 A 
ATOM     10  F   UNL     1       5.873   3.403  15.427  0.00  0.00    +0.000 F 
ATOM     11  C   UNL     1       5.642   5.521  16.427  0.00  0.00    +0.000 A 
ATOM     12  C   UNL     1       4.884   6.402  17.199  0.00  0.00    +0.000 A 
ATOM     13  C   UNL     1       3.641   6.010  17.747  0.00  0.00    +0.000 A 
ENDBRANCH   1  13
BRANCH   4  14
ATOM     14  C   UNL     1       1.095  10.037  18.887  0.00  0.00    +0.000 C 
ATOM     15  O   UNL     1       1.657  11.057  18.492  0.00  0.00    +0.000 OA
ATOM     16  N   UNL     1      -0.240  10.037  19.249  0.00  0.00    +0.000 N 
ATOM     17  H   UNL     1      -0.601   9.186  19.670  0.00  0.00    +0.000 HD
BRANCH  16  18
ATOM     18  C   UNL     1      -1.038  11.253  19.199  0.00  0.00    +0.000 C 
BRANCH  18  19
ATOM     19  C   UNL     1      -1.845  11.246  17.893  0.00  0.00    +0.000 C 
ATOM     20  C   UNL     1      -3.387  11.035  18.021  0.00  0.00    +0.000 C 
ATOM     21  C   UNL     1      -3.311  10.132  16.781  0.00  0.00    +0.000 C 
ATOM     22  C   UNL     1      -1.827   9.890  17.124  0.00  0.00    +0.000 C 
BRANCH  19  23
ATOM     23  O   UNL     1      -1.459  12.388  17.083  0.00  0.00    +0.000 OA
ATOM     24  H   UNL     1      -2.117  12.392  16.364  0.00  0.00    +0.000 HD
ENDBRANCH  19  23
ENDBRANCH  18  19
ENDBRANCH  16  18
ENDBRANCH   4  14
BRANCH   3  25
ATOM     25  O   UNL     1       1.299   8.159  21.377  0.00  0.00    +0.000 OA
ATOM     26  H   UNL     1       0.475   8.669  21.314  0.00  0.00    +0.000 HD
ENDBRANCH   3  25
TORSDOF 6
ENDMDL
MODEL 3
REMARK VINA RESULT:      -7.3      3.756      5.517
REMARK  Name = 
REMARK  7 active torsions:
REMARK  status: ('A' for Active; 'I' for Inactive)
REMARK    1  A    between atoms: C_1  and  C_2
REMARK    2  A    between atoms: C_8  and  N_9
REMARK    3  A    between atoms: C_11  and  O_12
REMARK    4  A    between atoms: C_13  and  C_14
REMARK    5  A    between atoms: N_16  and  C_17
REMARK    6  A    between atoms: C_17  and  C_18
REMARK    7  A    between atoms: C_18  and  O_19
REMARK                            x       y       z     vdW  Elec       q    Type
REMARK                         _______ _______ _______ _____ _____    ______ ____
ROOT
ATOM      1  N   UNL     1       2.291   6.841  20.003  0.00  0.00    +0.000 N 
ATOM      2  C   UNL     1       1.886   5.616  20.496  0.00  0.00    +0.000 A 
ATOM      3  C   UNL     1       2.841   4.718  20.123  0.00  0.00    +0.000 A 
ATOM      4  C   UNL     1       3.828   5.443  19.419  0.00  0.00    +0.000 A 
ATOM      5  N   UNL     1       3.460   6.740  19.301  0.00  0.00    +0.000 NA
ENDROOT
BRANCH   1  13
ATOM      6  C   UNL     1       1.786   8.774  17.727  0.00  0.00    +0.000 C 
ATOM      7  C   UNL     1       1.365   8.997  19.154  0.00  0.00    +0.000 A 
ATOM      8  C   UNL     1       0.645  10.176  19.444  0.00  0.00    +0.000 A 
ATOM      9  C   UNL     1       0.186  10.438  20.729  0.00  0.00    +0.000 A 
ATOM     10  F   UNL     1      -0.497  11.565  20.972  0.00  0.00    +0.000 F 
ATOM     11  C   UNL     1       0.420   9.546  21.761  0.00  0.00    +0.000 A 
ATOM     12  C   UNL     1       1.116   8.366  21.498  0.00  0.00    +0.000 A 
ATOM     13  C   UNL     1       1.599   8.077  20.201  0.00  0.00    +0.000 A 
ENDBRANCH   1  13
BRANCH   4  14
ATOM     14  C   UNL     1       5.074   4.894  18.863  0.00  0.00    +0.000 C 
ATOM     15  O   UNL     1       5.551   3.820  19.229  0.00  0.00    +0.000 OA
ATOM     16  N   UNL     1       5.688   5.669  17.896  0.00  0.00    +0.000 N 
ATOM     17  H   UNL     1       5.296   6.590  17.730  0.00  0.00    +0.000 HD
BRANCH  16  18
ATOM     18  C   UNL     1       6.940   5.258  17.278  0.00  0.00    +0.000 C 
BRANCH  18  19
ATOM     19  C   UNL     1       6.704   5.100  15.769  0.00  0.00    +0.000 C 
ATOM     20  C   UNL     1       5.334   5.605  15.215  0.00  0.00    +0.000 C 
ATOM     21  C   UNL     1       5.302   4.362  14.314  0.00  0.00    +0.000 C 
ATOM     22  C   UNL     1       6.241   3.678  15.329  0.00  0.00    +0.000 C 
BRANCH  19  23
ATOM     23  O   UNL     1       7.864   5.591  15.047  0.00  0.00    +0.000 OA
ATOM     24  H   UNL     1       7.987   4.934  14.337  0.00  0.00    +0.000 HD
ENDBRANCH  19  23
ENDBRANCH  18  19
ENDBRANCH  16  18
ENDBRANCH   4  14
BRANCH   3  25
ATOM     25  O   UNL     1       2.792   3.406  20.395  0.00  0.00    +0.000 OA
ATOM     26  H   UNL     1       3.202   2.883  19.687  0.00  0.00    +0.000 HD
ENDBRANCH   3  25
TORSDOF 6
ENDMDL
MODEL 4
REMARK VINA RESULT:      -7.2      4.002      6.297
REMARK  Name = 
REMARK  7 active torsions:
REMARK  status: ('A' for Active; 'I' for Inactive)
REMARK    1  A    between atoms: C_1  and  C_2
REMARK    2  A    between atoms: C_8  and  N_9
REMARK    3  A    between atoms: C_11  and  O_12
REMARK    4  A    between atoms: C_13  and  C_14
REMARK    5  A    between atoms: N_16  and  C_17
REMARK    6  A    between atoms: C_17  and  C_18
REMARK    7  A    between atoms: C_18  and  O_19
REMARK                            x       y       z     vdW  Elec       q    Type
REMARK                         _______ _______ _______ _____ _____    ______ ____
ROOT
ATOM      1  N   UNL     1       1.967   6.828  20.254  0.00  0.00    +0.000 N 
ATOM      2  C   UNL     1       1.458   5.723  20.906  0.00  0.00    +0.000 A 
ATOM      3  C   UNL     1       2.227   4.664  20.525  0.00  0.00    +0.000 A 
ATOM      4  C   UNL     1       3.214   5.173  19.651  0.00  0.00    +0.000 A 
ATOM      5  N   UNL     1       3.018   6.495  19.444  0.00  0.00    +0.000 NA
ENDROOT
BRANCH   1  13
ATOM      6  C   UNL     1       1.720   8.707  17.892  0.00  0.00    +0.000 C 
ATOM      7  C   UNL     1       1.372   9.061  19.311  0.00  0.00    +0.000 A 
ATOM      8  C   UNL     1       0.852  10.351  19.553  0.00  0.00    +0.000 A 
ATOM      9  C   UNL     1       0.470  10.743  20.830  0.00  0.00    +0.000 A 
ATOM     10  F   UNL     1      -0.022  11.973  21.027  0.00  0.00    +0.000 F 
ATOM     11  C   UNL     1       0.585   9.875  21.902  0.00  0.00    +0.000 A 
ATOM     12  C   UNL     1       1.081   8.588  21.688  0.00  0.00    +0.000 A 
ATOM     13  C   UNL     1       1.482   8.166  20.399  0.00  0.00    +0.000 A 
ENDBRANCH   1  13
BRANCH   4  14
ATOM     14  C   UNL     1       4.296   4.399  19.023  0.00  0.00    +0.000 C 
ATOM     15  O   UNL     1       4.861   3.463  19.587  0.00  0.00    +0.000 OA
ATOM     16  N   UNL     1       4.648   4.795  17.746  0.00  0.00    +0.000 N 
ATOM     17  H   UNL     1       4.216   5.643  17.393  0.00  0.00    +0.000 HD
BRANCH  16  18
ATOM     18  C   UNL     1       5.719   4.133  17.015  0.00  0.00    +0.000 C 
BRANCH  18  19
ATOM     19  C   UNL     1       6.935   5.070  16.987  0.00  0.00    +0.000 C 
ATOM     20  C   UNL     1       7.651   5.333  18.350  0.00  0.00    +0.000 C 
ATOM     21  C   UNL     1       7.794   6.804  17.929  0.00  0.00    +0.000 C 
ATOM     22  C   UNL     1       6.585   6.590  16.996  0.00  0.00    +0.000 C 
BRANCH  19  23
ATOM     23  O   UNL     1       7.821   4.676  15.907  0.00  0.00    +0.000 OA
ATOM     24  H   UNL     1       7.280   4.806  15.107  0.00  0.00    +0.000 HD
ENDBRANCH  19  23
ENDBRANCH  18  19
ENDBRANCH  16  18
ENDBRANCH   4  14
BRANCH   3  25
ATOM     25  O   UNL     1       2.030   3.402  20.930  0.00  0.00    +0.000 OA
ATOM     26  H   UNL     1       2.696   2.802  20.555  0.00  0.00    +0.000 HD
ENDBRANCH   3  25
TORSDOF 6
ENDMDL
MODEL 5
REMARK VINA RESULT:      -7.1      1.600      2.145
REMARK  Name = 
REMARK  7 active torsions:
REMARK  status: ('A' for Active; 'I' for Inactive)
REMARK    1  A    between atoms: C_1  and  C_2
REMARK    2  A    between atoms: C_8  and  N_9
REMARK    3  A    between atoms: C_11  and  O_12
REMARK    4  A    between atoms: C_13  and  C_14
REMARK    5  A    between atoms: N_16  and  C_17
REMARK    6  A    between atoms: C_17  and  C_18
REMARK    7  A    between atoms: C_18  and  O_19
REMARK                            x       y       z     vdW  Elec       q    Type
REMARK                         _______ _______ _______ _____ _____    ______ ____
ROOT
ATOM      1  N   UNL     1       3.955   4.696  18.150  0.00  0.00    +0.000 N 
ATOM      2  C   UNL     1       3.770   5.949  17.600  0.00  0.00    +0.000 A 
ATOM      3  C   UNL     1       4.749   6.107  16.666  0.00  0.00    +0.000 A 
ATOM      4  C   UNL     1       5.502   4.911  16.661  0.00  0.00    +0.000 A 
ATOM      5  N   UNL     1       5.043   4.066  17.613  0.00  0.00    +0.000 NA
ENDROOT
BRANCH   1  13
ATOM      6  C   UNL     1       2.528   2.066  17.686  0.00  0.00    +0.000 C 
ATOM      7  C   UNL     1       2.435   2.883  18.945  0.00  0.00    +0.000 A 
ATOM      8  C   UNL     1       1.659   2.364  20.003  0.00  0.00    +0.000 A 
ATOM      9  C   UNL     1       1.554   3.038  21.214  0.00  0.00    +0.000 A 
ATOM     10  F   UNL     1       0.811   2.519  22.200  0.00  0.00    +0.000 F 
ATOM     11  C   UNL     1       2.213   4.239  21.416  0.00  0.00    +0.000 A 
ATOM     12  C   UNL     1       3.000   4.766  20.391  0.00  0.00    +0.000 A 
ATOM     13  C   UNL     1       3.119   4.103  19.148  0.00  0.00    +0.000 A 
ENDBRANCH   1  13
BRANCH   4  14
ATOM     14  C   UNL     1       6.639   4.607  15.777  0.00  0.00    +0.000 C 
ATOM     15  O   UNL     1       7.770   4.376  16.202  0.00  0.00    +0.000 OA
ATOM     16  N   UNL     1       6.356   4.602  14.424  0.00  0.00    +0.000 N 
ATOM     17  H   UNL     1       5.430   4.912  14.147  0.00  0.00    +0.000 HD
BRANCH  16  18
ATOM     18  C   UNL     1       7.392   4.341  13.435  0.00  0.00    +0.000 C 
BRANCH  18  19
ATOM     19  C   UNL     1       6.716   3.854  12.145  0.00  0.00    +0.000 C 
ATOM     20  C   UNL     1       5.195   3.512  12.235  0.00  0.00    +0.000 C 
ATOM     21  C   UNL     1       5.471   2.297  11.337  0.00  0.00    +0.000 C 
ATOM     22  C   UNL     1       6.932   2.342  11.829  0.00  0.00    +0.000 C 
BRANCH  19  23
ATOM     23  O   UNL     1       7.071   4.741  11.052  0.00  0.00    +0.000 OA
ATOM     24  H   UNL     1       7.719   4.224  10.538  0.00  0.00    +0.000 HD
ENDBRANCH  19  23
ENDBRANCH  18  19
ENDBRANCH  16  18
ENDBRANCH   4  14
BRANCH   3  25
ATOM     25  O   UNL     1       4.920   7.213  15.928  0.00  0.00    +0.000 OA
ATOM     26  H   UNL     1       5.606   7.085  15.253  0.00  0.00    +0.000 HD
ENDBRANCH   3  25
TORSDOF 6
ENDMDL
MODEL 6
REMARK VINA RESULT:      -7.1      1.022      1.671
REMARK  Name = 
REMARK  7 active torsions:
REMARK  status: ('A' for Active; 'I' for Inactive)
REMARK    1  A    between atoms: C_1  and  C_2
REMARK    2  A    between atoms: C_8  and  N_9
REMARK    3  A    between atoms: C_11  and  O_12
REMARK    4  A    between atoms: C_13  and  C_14
REMARK    5  A    between atoms: N_16  and  C_17
REMARK    6  A    between atoms: C_17  and  C_18
REMARK    7  A    between atoms: C_18  and  O_19
REMARK                            x       y       z     vdW  Elec       q    Type
REMARK                         _______ _______ _______ _____ _____    ______ ____
ROOT
ATOM      1  N   UNL     1       4.831   4.078  17.846  0.00  0.00    +0.000 N 
ATOM      2  C   UNL     1       6.046   4.431  18.399  0.00  0.00    +0.000 A 
ATOM      3  C   UNL     1       6.907   4.601  17.357  0.00  0.00    +0.000 A 
ATOM      4  C   UNL     1       6.168   4.363  16.176  0.00  0.00    +0.000 A 
ATOM      5  N   UNL     1       4.905   3.989  16.483  0.00  0.00    +0.000 NA
ENDROOT
BRANCH   1  13
ATOM      6  C   UNL     1       3.779   1.282  18.343  0.00  0.00    +0.000 C 
ATOM      7  C   UNL     1       3.115   2.546  18.814  0.00  0.00    +0.000 A 
ATOM      8  C   UNL     1       1.937   2.416  19.581  0.00  0.00    +0.000 A 
ATOM      9  C   UNL     1       1.284   3.534  20.087  0.00  0.00    +0.000 A 
ATOM     10  F   UNL     1       0.169   3.379  20.812  0.00  0.00    +0.000 F 
ATOM     11  C   UNL     1       1.775   4.808  19.856  0.00  0.00    +0.000 A 
ATOM     12  C   UNL     1       2.947   4.962  19.114  0.00  0.00    +0.000 A 
ATOM     13  C   UNL     1       3.628   3.842  18.583  0.00  0.00    +0.000 A 
ENDBRANCH   1  13
BRANCH   4  14
ATOM     14  C   UNL     1       6.676   4.475  14.800  0.00  0.00    +0.000 C 
ATOM     15  O   UNL     1       7.521   5.305  14.466  0.00  0.00    +0.000 OA
ATOM     16  N   UNL     1       6.136   3.584  13.892  0.00  0.00    +0.000 N 
ATOM     17  H   UNL     1       5.365   3.008  14.216  0.00  0.00    +0.000 HD
BRANCH  16  18
ATOM     18  C   UNL     1       6.529   3.598  12.490  0.00  0.00    +0.000 C 
BRANCH  18  19
ATOM     19  C   UNL     1       5.423   2.919  11.671  0.00  0.00    +0.000 C 
ATOM     20  C   UNL     1       4.942   3.663  10.385  0.00  0.00    +0.000 C 
ATOM     21  C   UNL     1       3.506   3.257  10.752  0.00  0.00    +0.000 C 
ATOM     22  C   UNL     1       3.979   3.143  12.216  0.00  0.00    +0.000 C 
BRANCH  19  23
ATOM     23  O   UNL     1       5.764   1.522  11.466  0.00  0.00    +0.000 OA
ATOM     24  H   UNL     1       6.724   1.544  11.295  0.00  0.00    +0.000 HD
ENDBRANCH  19  23
ENDBRANCH  18  19
ENDBRANCH  16  18
ENDBRANCH   4  14
BRANCH   3  25
ATOM     25  O   UNL     1       8.201   4.926  17.490  0.00  0.00    +0.000 OA
ATOM     26  H   UNL     1       8.346   5.873  17.333  0.00  0.00    +0.000 HD
ENDBRANCH   3  25
TORSDOF 6
ENDMDL
MODEL 7
REMARK VINA RESULT:      -7.0      5.249      7.917
REMARK  Name = 
REMARK  7 active torsions:
REMARK  status: ('A' for Active; 'I' for Inactive)
REMARK    1  A    between atoms: C_1  and  C_2
REMARK    2  A    between atoms: C_8  and  N_9
REMARK    3  A    between atoms: C_11  and  O_12
REMARK    4  A    between atoms: C_13  and  C_14
REMARK    5  A    between atoms: N_16  and  C_17
REMARK    6  A    between atoms: C_17  and  C_18
REMARK    7  A    between atoms: C_18  and  O_19
REMARK                            x       y       z     vdW  Elec       q    Type
REMARK                         _______ _______ _______ _____ _____    ______ ____
ROOT
ATOM      1  N   UNL     1       2.369   6.127  19.332  0.00  0.00    +0.000 N 
ATOM      2  C   UNL     1       1.943   6.516  20.587  0.00  0.00    +0.000 A 
ATOM      3  C   UNL     1       1.597   7.830  20.485  0.00  0.00    +0.000 A 
ATOM      4  C   UNL     1       1.806   8.202  19.138  0.00  0.00    +0.000 A 
ATOM      5  N   UNL     1       2.331   7.166  18.444  0.00  0.00    +0.000 NA
ENDROOT
BRANCH   1  13
ATOM      6  C   UNL     1       5.293   5.349  19.228  0.00  0.00    +0.000 C 
ATOM      7  C   UNL     1       4.148   4.428  18.911  0.00  0.00    +0.000 A 
ATOM      8  C   UNL     1       4.458   3.091  18.582  0.00  0.00    +0.000 A 
ATOM      9  C   UNL     1       3.455   2.167  18.313  0.00  0.00    +0.000 A 
ATOM     10  F   UNL     1       3.781   0.905  18.005  0.00  0.00    +0.000 F 
ATOM     11  C   UNL     1       2.121   2.533  18.366  0.00  0.00    +0.000 A 
ATOM     12  C   UNL     1       1.787   3.845  18.705  0.00  0.00    +0.000 A 
ATOM     13  C   UNL     1       2.787   4.806  18.977  0.00  0.00    +0.000 A 
ENDBRANCH   1  13
BRANCH   4  14
ATOM     14  C   UNL     1       1.525   9.521  18.550  0.00  0.00    +0.000 C 
ATOM     15  O   UNL     1       2.160   9.976  17.600  0.00  0.00    +0.000 OA
ATOM     16  N   UNL     1       0.495  10.229  19.141  0.00  0.00    +0.000 N 
ATOM     17  H   UNL     1       0.095   9.837  19.988  0.00  0.00    +0.000 HD
BRANCH  16  18
ATOM     18  C   UNL     1       0.125  11.558  18.677  0.00  0.00    +0.000 C 
BRANCH  18  19
ATOM     19  C   UNL     1      -1.235  11.462  17.972  0.00  0.00    +0.000 C 
ATOM     20  C   UNL     1      -2.485  11.247  18.884  0.00  0.00    +0.000 C 
ATOM     21  C   UNL     1      -3.019  10.267  17.828  0.00  0.00    +0.000 C 
ATOM     22  C   UNL     1      -1.560  10.060  17.372  0.00  0.00    +0.000 C 
BRANCH  19  23
ATOM     23  O   UNL     1      -1.363  12.553  17.022  0.00  0.00    +0.000 OA
ATOM     24  H   UNL     1      -0.817  12.265  16.268  0.00  0.00    +0.000 HD
ENDBRANCH  19  23
ENDBRANCH  18  19
ENDBRANCH  16  18
ENDBRANCH   4  14
BRANCH   3  25
ATOM     25  O   UNL     1       1.155   8.577  21.507  0.00  0.00    +0.000 OA
ATOM     26  H   UNL     1       1.083   8.054  22.322  0.00  0.00    +0.000 HD
ENDBRANCH   3  25
TORSDOF 6
ENDMDL
MODEL 8
REMARK VINA RESULT:      -7.0      4.400      6.643
REMARK  Name = 
REMARK  7 active torsions:
REMARK  status: ('A' for Active; 'I' for Inactive)
REMARK    1  A    between atoms: C_1  and  C_2
REMARK    2  A    between atoms: C_8  and  N_9
REMARK    3  A    between atoms: C_11  and  O_12
REMARK    4  A    between atoms: C_13  and  C_14
REMARK    5  A    between atoms: N_16  and  C_17
REMARK    6  A    between atoms: C_17  and  C_18
REMARK    7  A    between atoms: C_18  and  O_19
REMARK                            x       y       z     vdW  Elec       q    Type
REMARK                         _______ _______ _______ _____ _____    ______ ____
ROOT
ATOM      1  N   UNL     1       1.579   7.712  20.252  0.00  0.00    +0.000 N 
ATOM      2  C   UNL     1       1.581   6.420  20.740  0.00  0.00    +0.000 A 
ATOM      3  C   UNL     1       2.418   5.708  19.935  0.00  0.00    +0.000 A 
ATOM      4  C   UNL     1       2.927   6.612  18.976  0.00  0.00    +0.000 A 
ATOM      5  N   UNL     1       2.366   7.832  19.141  0.00  0.00    +0.000 NA
ENDROOT
BRANCH   1  13
ATOM      6  C   UNL     1       0.365   9.902  18.547  0.00  0.00    +0.000 C 
ATOM      7  C   UNL     1       0.299   9.846  20.049  0.00  0.00    +0.000 A 
ATOM      8  C   UNL     1      -0.417  10.867  20.708  0.00  0.00    +0.000 A 
ATOM      9  C   UNL     1      -0.559  10.867  22.091  0.00  0.00    +0.000 A 
ATOM     10  F   UNL     1      -1.246  11.850  22.687  0.00  0.00    +0.000 F 
ATOM     11  C   UNL     1      -0.002   9.860  22.860  0.00  0.00    +0.000 A 
ATOM     12  C   UNL     1       0.698   8.829  22.231  0.00  0.00    +0.000 A 
ATOM     13  C   UNL     1       0.862   8.808  20.827  0.00  0.00    +0.000 A 
ENDBRANCH   1  13
BRANCH   4  14
ATOM     14  C   UNL     1       3.905   6.297  17.923  0.00  0.00    +0.000 C 
ATOM     15  O   UNL     1       4.036   6.981  16.909  0.00  0.00    +0.000 OA
ATOM     16  N   UNL     1       4.675   5.170  18.143  0.00  0.00    +0.000 N 
ATOM     17  H   UNL     1       4.431   4.597  18.945  0.00  0.00    +0.000 HD
BRANCH  16  18
ATOM     18  C   UNL     1       5.666   4.728  17.172  0.00  0.00    +0.000 C 
BRANCH  18  19
ATOM     19  C   UNL     1       7.053   5.161  17.667  0.00  0.00    +0.000 C 
ATOM     20  C   UNL     1       7.161   5.597  19.163  0.00  0.00    +0.000 C 
ATOM     21  C   UNL     1       8.097   6.727  18.710  0.00  0.00    +0.000 C 
ATOM     22  C   UNL     1       7.439   6.631  17.318  0.00  0.00    +0.000 C 
BRANCH  19  23
ATOM     23  O   UNL     1       8.040   4.179  17.254  0.00  0.00    +0.000 OA
ATOM     24  H   UNL     1       7.865   4.066  16.301  0.00  0.00    +0.000 HD
ENDBRANCH  19  23
ENDBRANCH  18  19
ENDBRANCH  16  18
ENDBRANCH   4  14
BRANCH   3  25
ATOM     25  O   UNL     1       2.666   4.397  20.073  0.00  0.00    +0.000 OA
ATOM     26  H   UNL     1       2.468   4.093  20.973  0.00  0.00    +0.000 HD
ENDBRANCH   3  25
TORSDOF 6
ENDMDL
MODEL 9
REMARK VINA RESULT:      -7.0      5.402      7.679
REMARK  Name = 
REMARK  7 active torsions:
REMARK  status: ('A' for Active; 'I' for Inactive)
REMARK    1  A    between atoms: C_1  and  C_2
REMARK    2  A    between atoms: C_8  and  N_9
REMARK    3  A    between atoms: C_11  and  O_12
REMARK    4  A    between atoms: C_13  and  C_14
REMARK    5  A    between atoms: N_16  and  C_17
REMARK    6  A    between atoms: C_17  and  C_18
REMARK    7  A    between atoms: C_18  and  O_19
REMARK                            x       y       z     vdW  Elec       q    Type
REMARK                         _______ _______ _______ _____ _____    ______ ____
ROOT
ATOM      1  N   UNL     1       1.134   8.985  20.075  0.00  0.00    +0.000 N 
ATOM      2  C   UNL     1       1.504   9.360  18.798  0.00  0.00    +0.000 A 
ATOM      3  C   UNL     1       2.242   8.332  18.294  0.00  0.00    +0.000 A 
ATOM      4  C   UNL     1       2.281   7.333  19.292  0.00  0.00    +0.000 A 
ATOM      5  N   UNL     1       1.644   7.761  20.406  0.00  0.00    +0.000 NA
ENDROOT
BRANCH   1  13
ATOM      6  C   UNL     1      -0.414  11.402  19.109  0.00  0.00    +0.000 C 
ATOM      7  C   UNL     1      -0.409  10.895  20.524  0.00  0.00    +0.000 A 
ATOM      8  C   UNL     1      -1.219  11.571  21.462  0.00  0.00    +0.000 A 
ATOM      9  C   UNL     1      -1.301  11.141  22.781  0.00  0.00    +0.000 A 
ATOM     10  F   UNL     1      -2.080  11.803  23.647  0.00  0.00    +0.000 F 
ATOM     11  C   UNL     1      -0.590  10.033  23.211  0.00  0.00    +0.000 A 
ATOM     12  C   UNL     1       0.205   9.338  22.300  0.00  0.00    +0.000 A 
ATOM     13  C   UNL     1       0.311   9.756  20.954  0.00  0.00    +0.000 A 
ENDBRANCH   1  13
BRANCH   4  14
ATOM     14  C   UNL     1       2.932   6.018  19.177  0.00  0.00    +0.000 C 
ATOM     15  O   UNL     1       4.090   5.814  19.537  0.00  0.00    +0.000 OA
ATOM     16  N   UNL     1       2.155   5.016  18.627  0.00  0.00    +0.000 N 
ATOM     17  H   UNL     1       1.252   5.288  18.251  0.00  0.00    +0.000 HD
BRANCH  16  18
ATOM     18  C   UNL     1       2.680   3.672  18.431  0.00  0.00    +0.000 C 
BRANCH  18  19
ATOM     19  C   UNL     1       2.061   2.752  19.492  0.00  0.00    +0.000 C 
ATOM     20  C   UNL     1       0.871   3.335  20.319  0.00  0.00    +0.000 C 
ATOM     21  C   UNL     1       1.474   2.661  21.560  0.00  0.00    +0.000 C 
ATOM     22  C   UNL     1       2.839   2.701  20.843  0.00  0.00    +0.000 C 
BRANCH  19  23
ATOM     23  O   UNL     1       1.807   1.447  18.909  0.00  0.00    +0.000 OA
ATOM     24  H   UNL     1       2.309   1.468  18.073  0.00  0.00    +0.000 HD
ENDBRANCH  19  23
ENDBRANCH  18  19
ENDBRANCH  16  18
ENDBRANCH   4  14
BRANCH   3  25
ATOM     25  O   UNL     1       2.805   8.330  17.078  0.00  0.00    +0.000 OA
ATOM     26  H   UNL     1       2.133   8.319  16.377  0.00  0.00    +0.000 HD
ENDBRANCH   3  25
TORSDOF 6
ENDMDL
