MODEL 1
REMARK VINA RESULT:      -8.7      0.000      0.000
REMARK  Name = 
REMARK  6 active torsions:
REMARK  status: ('A' for Active; 'I' for Inactive)
REMARK    1  A    between atoms: C_1  and  C_2
REMARK    2  A    between atoms: C_5  and  N_6
REMARK    3  A    between atoms: C_8  and  C_9
REMARK    4  A    between atoms: C_16  and  C_17
REMARK    5  A    between atoms: C_20  and  C_21
REMARK    6  A    between atoms: C_21  and  O_23
REMARK                            x       y       z     vdW  Elec       q    Type
REMARK                         _______ _______ _______ _____ _____    ______ ____
ROOT
ATOM      1  N   UNL     1       6.658   5.071  17.506  0.00  0.00    +0.000 N 
ATOM      2  N   UNL     1       6.628   4.632  16.210  0.00  0.00    +0.000 NA
ATOM      3  C   UNL     1       5.334   4.368  15.992  0.00  0.00    +0.000 A 
ATOM      4  C   UNL     1       4.893   3.876  14.668  0.00  0.00    +0.000 C 
ATOM      5  C   UNL     1       4.592   4.422  17.200  0.00  0.00    +0.000 A 
ATOM      6  C   UNL     1       5.589   4.456  18.149  0.00  0.00    +0.000 A 
ATOM      7  N   UNL     1       5.435   3.685  19.291  0.00  0.00    +0.000 N 
ATOM      8  C   UNL     1       4.352   2.709  19.327  0.00  0.00    +0.000 C 
ATOM      9  O   UNL     1       4.345   1.937  20.273  0.00  0.00    +0.000 OA
ATOM     10  C   UNL     1       3.346   2.634  18.176  0.00  0.00    +0.000 C 
ATOM     11  C   UNL     1       3.202   4.009  17.519  0.00  0.00    +0.000 C 
ATOM     12  H   UNL     1       6.144   3.618  20.012  0.00  0.00    +0.000 HD
ENDROOT
BRANCH   1  17
ATOM     13  C   UNL     1       8.948  10.127  18.926  0.00  0.00    +0.000 C 
ATOM     14  C   UNL     1       8.485   8.751  18.535  0.00  0.00    +0.000 A 
ATOM     15  C   UNL     1       8.691   7.623  19.349  0.00  0.00    +0.000 A 
ATOM     16  C   UNL     1       8.169   6.359  18.999  0.00  0.00    +0.000 A 
ATOM     17  C   UNL     1       7.433   6.226  17.818  0.00  0.00    +0.000 A 
ATOM     18  C   UNL     1       7.284   7.346  16.978  0.00  0.00    +0.000 A 
ATOM     19  C   UNL     1       7.790   8.594  17.337  0.00  0.00    +0.000 A 
ENDBRANCH   1  17
BRANCH  11  20
ATOM     20  C   UNL     1       2.622   5.096  18.442  0.00  0.00    +0.000 A 
ATOM     21  C   UNL     1       1.934   4.765  19.624  0.00  0.00    +0.000 A 
ATOM     22  C   UNL     1       1.475   5.741  20.506  0.00  0.00    +0.000 A 
ATOM     23  C   UNL     1       1.649   7.092  20.210  0.00  0.00    +0.000 A 
ATOM     24  C   UNL     1       2.305   7.455  19.025  0.00  0.00    +0.000 A 
ATOM     25  C   UNL     1       2.772   6.467  18.145  0.00  0.00    +0.000 A 
BRANCH  23  26
ATOM     26  C   UNL     1       1.164   8.075  21.200  0.00  0.00    +0.000 C 
ATOM     27  O   UNL     1      -0.013   8.402  21.282  0.00  0.00    +0.000 OA
BRANCH  26  28
ATOM     28  O   UNL     1       2.137   8.611  21.964  0.00  0.00    +0.000 OA
ATOM     29  H   UNL     1       1.823   9.156  22.709  0.00  0.00    +0.000 HD
ENDBRANCH  26  28
ENDBRANCH  23  26
ENDBRANCH  11  20
TORSDOF 4
ENDMDL
MODEL 2
REMARK VINA RESULT:      -8.3      0.204      1.124
REMARK  Name = 
REMARK  6 active torsions:
REMARK  status: ('A' for Active; 'I' for Inactive)
REMARK    1  A    between atoms: C_1  and  C_2
REMARK    2  A    between atoms: C_5  and  N_6
REMARK    3  A    between atoms: C_8  and  C_9
REMARK    4  A    between atoms: C_16  and  C_17
REMARK    5  A    between atoms: C_20  and  C_21
REMARK    6  A    between atoms: C_21  and  O_23
REMARK                            x       y       z     vdW  Elec       q    Type
REMARK                         _______ _______ _______ _____ _____    ______ ____
ROOT
ATOM      1  N   UNL     1       6.632   5.142  17.514  0.00  0.00    +0.000 N 
ATOM      2  N   UNL     1       6.532   4.759  16.203  0.00  0.00    +0.000 NA
ATOM      3  C   UNL     1       5.226   4.517  16.040  0.00  0.00    +0.000 A 
ATOM      4  C   UNL     1       4.714   4.086  14.721  0.00  0.00    +0.000 C 
ATOM      5  C   UNL     1       4.546   4.524  17.285  0.00  0.00    +0.000 A 
ATOM      6  C   UNL     1       5.590   4.508  18.184  0.00  0.00    +0.000 A 
ATOM      7  N   UNL     1       5.485   3.689  19.297  0.00  0.00    +0.000 N 
ATOM      8  C   UNL     1       4.396   2.722  19.346  0.00  0.00    +0.000 C 
ATOM      9  O   UNL     1       4.427   1.909  20.257  0.00  0.00    +0.000 OA
ATOM     10  C   UNL     1       3.332   2.706  18.245  0.00  0.00    +0.000 C 
ATOM     11  C   UNL     1       3.169   4.109  17.657  0.00  0.00    +0.000 C 
ATOM     12  H   UNL     1       6.229   3.585  19.978  0.00  0.00    +0.000 HD
ENDROOT
BRANCH   1  17
ATOM     13  C   UNL     1       9.040  10.133  18.962  0.00  0.00    +0.000 C 
ATOM     14  C   UNL     1       8.545   8.770  18.566  0.00  0.00    +0.000 A 
ATOM     15  C   UNL     1       8.710   7.638  19.382  0.00  0.00    +0.000 A 
ATOM     16  C   UNL     1       8.158   6.389  19.027  0.00  0.00    +0.000 A 
ATOM     17  C   UNL     1       7.434   6.275  17.836  0.00  0.00    +0.000 A 
ATOM     18  C   UNL     1       7.326   7.398  16.994  0.00  0.00    +0.000 A 
ATOM     19  C   UNL     1       7.862   8.632  17.359  0.00  0.00    +0.000 A 
ENDBRANCH   1  17
BRANCH  11  20
ATOM     20  C   UNL     1       2.649   5.160  18.653  0.00  0.00    +0.000 A 
ATOM     21  C   UNL     1       2.780   6.539  18.402  0.00  0.00    +0.000 A 
ATOM     22  C   UNL     1       2.242   7.497  19.258  0.00  0.00    +0.000 A 
ATOM     23  C   UNL     1       1.591   7.108  20.426  0.00  0.00    +0.000 A 
ATOM     24  C   UNL     1       1.468   5.742  20.720  0.00  0.00    +0.000 A 
ATOM     25  C   UNL     1       2.005   4.782  19.851  0.00  0.00    +0.000 A 
BRANCH  23  26
ATOM     26  C   UNL     1       1.019   8.172  21.276  0.00  0.00    +0.000 C 
ATOM     27  O   UNL     1       1.715   8.982  21.876  0.00  0.00    +0.000 OA
BRANCH  26  28
ATOM     28  O   UNL     1      -0.325   8.140  21.368  0.00  0.00    +0.000 OA
ATOM     29  H   UNL     1      -0.715   7.247  21.410  0.00  0.00    +0.000 HD
ENDBRANCH  26  28
ENDBRANCH  23  26
ENDBRANCH  11  20
TORSDOF 4
ENDMDL
MODEL 3
REMARK VINA RESULT:      -8.0      5.064      8.385
REMARK  Name = 
REMARK  6 active torsions:
REMARK  status: ('A' for Active; 'I' for Inactive)
REMARK    1  A    between atoms: C_1  and  C_2
REMARK    2  A    between atoms: C_5  and  N_6
REMARK    3  A    between atoms: C_8  and  C_9
REMARK    4  A    between atoms: C_16  and  C_17
REMARK    5  A    between atoms: C_20  and  C_21
REMARK    6  A    between atoms: C_21  and  O_23
REMARK                            x       y       z     vdW  Elec       q    Type
REMARK                         _______ _______ _______ _____ _____    ______ ____
ROOT
ATOM      1  N   UNL     1       1.460   9.104  20.402  0.00  0.00    +0.000 N 
ATOM      2  N   UNL     1       1.131   9.073  21.730  0.00  0.00    +0.000 NA
ATOM      3  C   UNL     1      -0.022   9.751  21.788  0.00  0.00    +0.000 A 
ATOM      4  C   UNL     1      -0.713   9.923  23.085  0.00  0.00    +0.000 C 
ATOM      5  C   UNL     1      -0.298  10.394  20.554  0.00  0.00    +0.000 A 
ATOM      6  C   UNL     1       0.901  10.270  19.889  0.00  0.00    +0.000 A 
ATOM      7  N   UNL     1       1.373  11.361  19.176  0.00  0.00    +0.000 N 
ATOM      8  C   UNL     1       0.705  12.644  19.351  0.00  0.00    +0.000 C 
ATOM      9  O   UNL     1       1.243  13.614  18.839  0.00  0.00    +0.000 OA
ATOM     10  C   UNL     1      -0.558  12.743  20.210  0.00  0.00    +0.000 C 
ATOM     11  C   UNL     1      -1.313  11.413  20.181  0.00  0.00    +0.000 C 
ATOM     12  H   UNL     1       2.268  11.364  18.700  0.00  0.00    +0.000 HD
ENDROOT
BRANCH   1  17
ATOM     13  C   UNL     1       2.396   4.011  17.951  0.00  0.00    +0.000 C 
ATOM     14  C   UNL     1       2.296   5.374  18.578  0.00  0.00    +0.000 A 
ATOM     15  C   UNL     1       2.476   6.559  17.844  0.00  0.00    +0.000 A 
ATOM     16  C   UNL     1       2.288   7.826  18.438  0.00  0.00    +0.000 A 
ATOM     17  C   UNL     1       1.917   7.903  19.783  0.00  0.00    +0.000 A 
ATOM     18  C   UNL     1       1.799   6.713  20.527  0.00  0.00    +0.000 A 
ATOM     19  C   UNL     1       1.972   5.465  19.930  0.00  0.00    +0.000 A 
ENDBRANCH   1  17
BRANCH  11  20
ATOM     20  C   UNL     1      -1.846  11.014  18.794  0.00  0.00    +0.000 A 
ATOM     21  C   UNL     1      -2.865  11.748  18.159  0.00  0.00    +0.000 A 
ATOM     22  C   UNL     1      -3.298  11.444  16.871  0.00  0.00    +0.000 A 
ATOM     23  C   UNL     1      -2.756  10.358  16.186  0.00  0.00    +0.000 A 
ATOM     24  C   UNL     1      -1.759   9.588  16.803  0.00  0.00    +0.000 A 
ATOM     25  C   UNL     1      -1.321   9.905  18.097  0.00  0.00    +0.000 A 
BRANCH  23  26
ATOM     26  C   UNL     1      -3.239  10.107  14.814  0.00  0.00    +0.000 C 
ATOM     27  O   UNL     1      -2.479   9.934  13.869  0.00  0.00    +0.000 OA
BRANCH  26  28
ATOM     28  O   UNL     1      -4.580  10.135  14.689  0.00  0.00    +0.000 OA
ATOM     29  H   UNL     1      -4.979   9.324  14.322  0.00  0.00    +0.000 HD
ENDBRANCH  26  28
ENDBRANCH  23  26
ENDBRANCH  11  20
TORSDOF 4
ENDMDL
MODEL 4
REMARK VINA RESULT:      -7.9      5.050      8.195
REMARK  Name = 
REMARK  6 active torsions:
REMARK  status: ('A' for Active; 'I' for Inactive)
REMARK    1  A    between atoms: C_1  and  C_2
REMARK    2  A    between atoms: C_5  and  N_6
REMARK    3  A    between atoms: C_8  and  C_9
REMARK    4  A    between atoms: C_16  and  C_17
REMARK    5  A    between atoms: C_20  and  C_21
REMARK    6  A    between atoms: C_21  and  O_23
REMARK                            x       y       z     vdW  Elec       q    Type
REMARK                         _______ _______ _______ _____ _____    ______ ____
ROOT
ATOM      1  N   UNL     1       1.428   8.997  20.368  0.00  0.00    +0.000 N 
ATOM      2  N   UNL     1       1.106   8.969  21.699  0.00  0.00    +0.000 NA
ATOM      3  C   UNL     1      -0.029   9.675  21.767  0.00  0.00    +0.000 A 
ATOM      4  C   UNL     1      -0.707   9.859  23.069  0.00  0.00    +0.000 C 
ATOM      5  C   UNL     1      -0.297  10.331  20.538  0.00  0.00    +0.000 A 
ATOM      6  C   UNL     1       0.895  10.179  19.864  0.00  0.00    +0.000 A 
ATOM      7  N   UNL     1       1.389  11.261  19.152  0.00  0.00    +0.000 N 
ATOM      8  C   UNL     1       0.755  12.560  19.338  0.00  0.00    +0.000 C 
ATOM      9  O   UNL     1       1.314  13.518  18.826  0.00  0.00    +0.000 OA
ATOM     10  C   UNL     1      -0.499  12.687  20.205  0.00  0.00    +0.000 C 
ATOM     11  C   UNL     1      -1.288  11.376  20.176  0.00  0.00    +0.000 C 
ATOM     12  H   UNL     1       2.282  11.244  18.671  0.00  0.00    +0.000 HD
ENDROOT
BRANCH   1  17
ATOM     13  C   UNL     1       3.989   4.495  17.920  0.00  0.00    +0.000 C 
ATOM     14  C   UNL     1       3.189   5.604  18.546  0.00  0.00    +0.000 A 
ATOM     15  C   UNL     1       2.560   5.471  19.795  0.00  0.00    +0.000 A 
ATOM     16  C   UNL     1       1.890   6.556  20.401  0.00  0.00    +0.000 A 
ATOM     17  C   UNL     1       1.850   7.788  19.742  0.00  0.00    +0.000 A 
ATOM     18  C   UNL     1       2.429   7.896  18.462  0.00  0.00    +0.000 A 
ATOM     19  C   UNL     1       3.101   6.824  17.878  0.00  0.00    +0.000 A 
ENDBRANCH   1  17
BRANCH  11  20
ATOM     20  C   UNL     1      -1.839  10.997  18.790  0.00  0.00    +0.000 A 
ATOM     21  C   UNL     1      -2.868  11.739  18.181  0.00  0.00    +0.000 A 
ATOM     22  C   UNL     1      -3.320  11.453  16.895  0.00  0.00    +0.000 A 
ATOM     23  C   UNL     1      -2.785  10.379  16.186  0.00  0.00    +0.000 A 
ATOM     24  C   UNL     1      -1.778   9.602  16.777  0.00  0.00    +0.000 A 
ATOM     25  C   UNL     1      -1.323   9.900  18.069  0.00  0.00    +0.000 A 
BRANCH  23  26
ATOM     26  C   UNL     1      -3.287  10.147  14.817  0.00  0.00    +0.000 C 
ATOM     27  O   UNL     1      -2.540   9.967  13.863  0.00  0.00    +0.000 OA
BRANCH  26  28
ATOM     28  O   UNL     1      -4.629  10.201  14.706  0.00  0.00    +0.000 OA
ATOM     29  H   UNL     1      -4.973  10.975  14.223  0.00  0.00    +0.000 HD
ENDBRANCH  26  28
ENDBRANCH  23  26
ENDBRANCH  11  20
TORSDOF 4
ENDMDL
MODEL 5
REMARK VINA RESULT:      -7.9      4.998      8.019
REMARK  Name = 
REMARK  6 active torsions:
REMARK  status: ('A' for Active; 'I' for Inactive)
REMARK    1  A    between atoms: C_1  and  C_2
REMARK    2  A    between atoms: C_5  and  N_6
REMARK    3  A    between atoms: C_8  and  C_9
REMARK    4  A    between atoms: C_16  and  C_17
REMARK    5  A    between atoms: C_20  and  C_21
REMARK    6  A    between atoms: C_21  and  O_23
REMARK                            x       y       z     vdW  Elec       q    Type
REMARK                         _______ _______ _______ _____ _____    ______ ____
ROOT
ATOM      1  N   UNL     1       1.602   8.966  20.137  0.00  0.00    +0.000 N 
ATOM      2  N   UNL     1       1.265   8.740  21.444  0.00  0.00    +0.000 NA
ATOM      3  C   UNL     1       0.086   9.361  21.580  0.00  0.00    +0.000 A 
ATOM      4  C   UNL     1      -0.620   9.327  22.880  0.00  0.00    +0.000 C 
ATOM      5  C   UNL     1      -0.205  10.158  20.444  0.00  0.00    +0.000 A 
ATOM      6  C   UNL     1       1.004  10.170  19.783  0.00  0.00    +0.000 A 
ATOM      7  N   UNL     1       1.438  11.366  19.232  0.00  0.00    +0.000 N 
ATOM      8  C   UNL     1       0.721  12.587  19.575  0.00  0.00    +0.000 C 
ATOM      9  O   UNL     1       1.226  13.638  19.207  0.00  0.00    +0.000 OA
ATOM     10  C   UNL     1      -0.551  12.521  20.423  0.00  0.00    +0.000 C 
ATOM     11  C   UNL     1      -1.255  11.180  20.202  0.00  0.00    +0.000 C 
ATOM     12  H   UNL     1       2.337  11.468  18.773  0.00  0.00    +0.000 HD
ENDROOT
BRANCH   1  17
ATOM     13  C   UNL     1       4.469   5.026  17.124  0.00  0.00    +0.000 C 
ATOM     14  C   UNL     1       3.596   5.978  17.893  0.00  0.00    +0.000 A 
ATOM     15  C   UNL     1       3.024   5.647  19.133  0.00  0.00    +0.000 A 
ATOM     16  C   UNL     1       2.281   6.590  19.876  0.00  0.00    +0.000 A 
ATOM     17  C   UNL     1       2.109   7.880  19.365  0.00  0.00    +0.000 A 
ATOM     18  C   UNL     1       2.632   8.185  18.094  0.00  0.00    +0.000 A 
ATOM     19  C   UNL     1       3.377   7.252  17.373  0.00  0.00    +0.000 A 
ENDBRANCH   1  17
BRANCH  11  20
ATOM     20  C   UNL     1      -1.761  10.958  18.766  0.00  0.00    +0.000 A 
ATOM     21  C   UNL     1      -1.265   9.911  17.966  0.00  0.00    +0.000 A 
ATOM     22  C   UNL     1      -1.772   9.652  16.695  0.00  0.00    +0.000 A 
ATOM     23  C   UNL     1      -2.769  10.464  16.158  0.00  0.00    +0.000 A 
ATOM     24  C   UNL     1      -3.265  11.533  16.918  0.00  0.00    +0.000 A 
ATOM     25  C   UNL     1      -2.755  11.785  18.200  0.00  0.00    +0.000 A 
BRANCH  23  26
ATOM     26  C   UNL     1      -3.283  10.118  14.818  0.00  0.00    +0.000 C 
ATOM     27  O   UNL     1      -2.547   9.940  13.855  0.00  0.00    +0.000 OA
BRANCH  26  28
ATOM     28  O   UNL     1      -4.627  10.067  14.741  0.00  0.00    +0.000 OA
ATOM     29  H   UNL     1      -5.038   9.306  15.191  0.00  0.00    +0.000 HD
ENDBRANCH  26  28
ENDBRANCH  23  26
ENDBRANCH  11  20
TORSDOF 4
ENDMDL
MODEL 6
REMARK VINA RESULT:      -7.8      0.838      1.305
REMARK  Name = 
REMARK  6 active torsions:
REMARK  status: ('A' for Active; 'I' for Inactive)
REMARK    1  A    between atoms: C_1  and  C_2
REMARK    2  A    between atoms: C_5  and  N_6
REMARK    3  A    between atoms: C_8  and  C_9
REMARK    4  A    between atoms: C_16  and  C_17
REMARK    5  A    between atoms: C_20  and  C_21
REMARK    6  A    between atoms: C_21  and  O_23
REMARK                            x       y       z     vdW  Elec       q    Type
REMARK                         _______ _______ _______ _____ _____    ______ ____
ROOT
ATOM      1  N   UNL     1       6.768   6.263  17.531  0.00  0.00    +0.000 N 
ATOM      2  N   UNL     1       6.803   5.899  16.211  0.00  0.00    +0.000 NA
ATOM      3  C   UNL     1       5.571   5.431  15.977  0.00  0.00    +0.000 A 
ATOM      4  C   UNL     1       5.210   4.946  14.627  0.00  0.00    +0.000 C 
ATOM      5  C   UNL     1       4.841   5.289  17.184  0.00  0.00    +0.000 A 
ATOM      6  C   UNL     1       5.825   5.439  18.136  0.00  0.00    +0.000 A 
ATOM      7  N   UNL     1       5.814   4.590  19.231  0.00  0.00    +0.000 N 
ATOM      8  C   UNL     1       4.914   3.443  19.210  0.00  0.00    +0.000 C 
ATOM      9  O   UNL     1       5.046   2.629  20.111  0.00  0.00    +0.000 OA
ATOM     10  C   UNL     1       3.926   3.263  18.055  0.00  0.00    +0.000 C 
ATOM     11  C   UNL     1       3.544   4.627  17.478  0.00  0.00    +0.000 C 
ATOM     12  H   UNL     1       6.530   4.604  19.949  0.00  0.00    +0.000 HD
ENDROOT
BRANCH   1  17
ATOM     13  C   UNL     1       9.844  10.961  18.664  0.00  0.00    +0.000 C 
ATOM     14  C   UNL     1       8.922   9.797  18.429  0.00  0.00    +0.000 A 
ATOM     15  C   UNL     1       7.852   9.850  17.519  0.00  0.00    +0.000 A 
ATOM     16  C   UNL     1       7.056   8.715  17.253  0.00  0.00    +0.000 A 
ATOM     17  C   UNL     1       7.337   7.513  17.910  0.00  0.00    +0.000 A 
ATOM     18  C   UNL     1       8.371   7.485  18.866  0.00  0.00    +0.000 A 
ATOM     19  C   UNL     1       9.162   8.606  19.112  0.00  0.00    +0.000 A 
ENDBRANCH   1  17
BRANCH  11  20
ATOM     20  C   UNL     1       2.795   5.545  18.460  0.00  0.00    +0.000 A 
ATOM     21  C   UNL     1       2.161   5.033  19.608  0.00  0.00    +0.000 A 
ATOM     22  C   UNL     1       1.549   5.863  20.543  0.00  0.00    +0.000 A 
ATOM     23  C   UNL     1       1.509   7.241  20.339  0.00  0.00    +0.000 A 
ATOM     24  C   UNL     1       2.106   7.781  19.190  0.00  0.00    +0.000 A 
ATOM     25  C   UNL     1       2.727   6.940  18.255  0.00  0.00    +0.000 A 
BRANCH  23  26
ATOM     26  C   UNL     1       0.870   8.067  21.383  0.00  0.00    +0.000 C 
ATOM     27  O   UNL     1      -0.346   8.170  21.489  0.00  0.00    +0.000 OA
BRANCH  26  28
ATOM     28  O   UNL     1       1.741   8.731  22.168  0.00  0.00    +0.000 OA
ATOM     29  H   UNL     1       2.660   8.406  22.134  0.00  0.00    +0.000 HD
ENDBRANCH  26  28
ENDBRANCH  23  26
ENDBRANCH  11  20
TORSDOF 4
ENDMDL
MODEL 7
REMARK VINA RESULT:      -7.2      7.563     11.297
REMARK  Name = 
REMARK  6 active torsions:
REMARK  status: ('A' for Active; 'I' for Inactive)
REMARK    1  A    between atoms: C_1  and  C_2
REMARK    2  A    between atoms: C_5  and  N_6
REMARK    3  A    between atoms: C_8  and  C_9
REMARK    4  A    between atoms: C_16  and  C_17
REMARK    5  A    between atoms: C_20  and  C_21
REMARK    6  A    between atoms: C_21  and  O_23
REMARK                            x       y       z     vdW  Elec       q    Type
REMARK                         _______ _______ _______ _____ _____    ______ ____
ROOT
ATOM      1  N   UNL     1      -2.062  12.667  23.096  0.00  0.00    +0.000 N 
ATOM      2  N   UNL     1      -1.232  13.723  23.365  0.00  0.00    +0.000 NA
ATOM      3  C   UNL     1      -0.402  13.751  22.315  0.00  0.00    +0.000 A 
ATOM      4  C   UNL     1       0.651  14.787  22.234  0.00  0.00    +0.000 C 
ATOM      5  C   UNL     1      -0.559  12.594  21.509  0.00  0.00    +0.000 A 
ATOM      6  C   UNL     1      -1.325  11.782  22.316  0.00  0.00    +0.000 A 
ATOM      7  N   UNL     1      -1.004  10.436  22.386  0.00  0.00    +0.000 N 
ATOM      8  C   UNL     1       0.251   9.991  21.794  0.00  0.00    +0.000 C 
ATOM      9  O   UNL     1       0.580   8.835  22.015  0.00  0.00    +0.000 OA
ATOM     10  C   UNL     1       1.125  10.976  21.014  0.00  0.00    +0.000 C 
ATOM     11  C   UNL     1       0.251  12.062  20.384  0.00  0.00    +0.000 C 
ATOM     12  H   UNL     1      -1.489   9.783  22.993  0.00  0.00    +0.000 HD
ENDROOT
BRANCH   1  17
ATOM     13  C   UNL     1      -7.781  12.548  23.406  0.00  0.00    +0.000 C 
ATOM     14  C   UNL     1      -6.285  12.699  23.412  0.00  0.00    +0.000 A 
ATOM     15  C   UNL     1      -5.506  12.480  24.561  0.00  0.00    +0.000 A 
ATOM     16  C   UNL     1      -4.097  12.543  24.517  0.00  0.00    +0.000 A 
ATOM     17  C   UNL     1      -3.462  12.830  23.304  0.00  0.00    +0.000 A 
ATOM     18  C   UNL     1      -4.252  13.109  22.172  0.00  0.00    +0.000 A 
ATOM     19  C   UNL     1      -5.643  13.031  22.220  0.00  0.00    +0.000 A 
ENDBRANCH   1  17
BRANCH  11  20
ATOM     20  C   UNL     1      -0.746  11.545  19.332  0.00  0.00    +0.000 A 
ATOM     21  C   UNL     1      -2.001  12.155  19.147  0.00  0.00    +0.000 A 
ATOM     22  C   UNL     1      -2.878  11.746  18.145  0.00  0.00    +0.000 A 
ATOM     23  C   UNL     1      -2.548  10.674  17.318  0.00  0.00    +0.000 A 
ATOM     24  C   UNL     1      -1.317  10.026  17.495  0.00  0.00    +0.000 A 
ATOM     25  C   UNL     1      -0.435  10.448  18.501  0.00  0.00    +0.000 A 
BRANCH  23  26
ATOM     26  C   UNL     1      -3.508  10.309  16.258  0.00  0.00    +0.000 C 
ATOM     27  O   UNL     1      -3.224   9.544  15.345  0.00  0.00    +0.000 OA
BRANCH  26  28
ATOM     28  O   UNL     1      -4.700  10.930  16.358  0.00  0.00    +0.000 OA
ATOM     29  H   UNL     1      -4.751  11.800  15.922  0.00  0.00    +0.000 HD
ENDBRANCH  26  28
ENDBRANCH  23  26
ENDBRANCH  11  20
TORSDOF 4
ENDMDL
MODEL 8
REMARK VINA RESULT:      -7.1      3.018      6.041
REMARK  Name = 
REMARK  6 active torsions:
REMARK  status: ('A' for Active; 'I' for Inactive)
REMARK    1  A    between atoms: C_1  and  C_2
REMARK    2  A    between atoms: C_5  and  N_6
REMARK    3  A    between atoms: C_8  and  C_9
REMARK    4  A    between atoms: C_16  and  C_17
REMARK    5  A    between atoms: C_20  and  C_21
REMARK    6  A    between atoms: C_21  and  O_23
REMARK                            x       y       z     vdW  Elec       q    Type
REMARK                         _______ _______ _______ _____ _____    ______ ____
ROOT
ATOM      1  N   UNL     1       3.189   5.805  17.947  0.00  0.00    +0.000 N 
ATOM      2  N   UNL     1       2.997   4.565  18.496  0.00  0.00    +0.000 NA
ATOM      3  C   UNL     1       4.239   4.095  18.663  0.00  0.00    +0.000 A 
ATOM      4  C   UNL     1       4.448   2.757  19.259  0.00  0.00    +0.000 C 
ATOM      5  C   UNL     1       5.191   4.927  18.019  0.00  0.00    +0.000 A 
ATOM      6  C   UNL     1       4.389   5.738  17.247  0.00  0.00    +0.000 A 
ATOM      7  N   UNL     1       4.794   6.018  15.951  0.00  0.00    +0.000 N 
ATOM      8  C   UNL     1       5.912   5.265  15.396  0.00  0.00    +0.000 C 
ATOM      9  O   UNL     1       6.136   5.418  14.205  0.00  0.00    +0.000 OA
ATOM     10  C   UNL     1       6.687   4.279  16.275  0.00  0.00    +0.000 C 
ATOM     11  C   UNL     1       6.636   4.732  17.735  0.00  0.00    +0.000 C 
ATOM     12  H   UNL     1       4.237   6.565  15.305  0.00  0.00    +0.000 HD
ENDROOT
BRANCH   1  17
ATOM     13  C   UNL     1       0.890  10.392  20.493  0.00  0.00    +0.000 C 
ATOM     14  C   UNL     1       1.367   9.176  19.749  0.00  0.00    +0.000 A 
ATOM     15  C   UNL     1       1.649   9.194  18.372  0.00  0.00    +0.000 A 
ATOM     16  C   UNL     1       2.180   8.063  17.715  0.00  0.00    +0.000 A 
ATOM     17  C   UNL     1       2.429   6.900  18.450  0.00  0.00    +0.000 A 
ATOM     18  C   UNL     1       2.086   6.871  19.816  0.00  0.00    +0.000 A 
ATOM     19  C   UNL     1       1.576   7.996  20.460  0.00  0.00    +0.000 A 
ENDBRANCH   1  17
BRANCH  11  20
ATOM     20  C   UNL     1       7.322   6.082  18.007  0.00  0.00    +0.000 A 
ATOM     21  C   UNL     1       7.172   7.173  17.129  0.00  0.00    +0.000 A 
ATOM     22  C   UNL     1       7.723   8.421  17.405  0.00  0.00    +0.000 A 
ATOM     23  C   UNL     1       8.488   8.612  18.554  0.00  0.00    +0.000 A 
ATOM     24  C   UNL     1       8.681   7.538  19.435  0.00  0.00    +0.000 A 
ATOM     25  C   UNL     1       8.117   6.285  19.155  0.00  0.00    +0.000 A 
BRANCH  23  26
ATOM     26  C   UNL     1       9.020   9.967  18.803  0.00  0.00    +0.000 C 
ATOM     27  O   UNL     1       9.183  10.786  17.906  0.00  0.00    +0.000 OA
BRANCH  26  28
ATOM     28  O   UNL     1       9.353  10.200  20.088  0.00  0.00    +0.000 OA
ATOM     29  H   UNL     1      10.284  10.449  20.234  0.00  0.00    +0.000 HD
ENDBRANCH  26  28
ENDBRANCH  23  26
ENDBRANCH  11  20
TORSDOF 4
ENDMDL
MODEL 9
REMARK VINA RESULT:      -7.1      6.208      9.241
REMARK  Name = 
REMARK  6 active torsions:
REMARK  status: ('A' for Active; 'I' for Inactive)
REMARK    1  A    between atoms: C_1  and  C_2
REMARK    2  A    between atoms: C_5  and  N_6
REMARK    3  A    between atoms: C_8  and  C_9
REMARK    4  A    between atoms: C_16  and  C_17
REMARK    5  A    between atoms: C_20  and  C_21
REMARK    6  A    between atoms: C_21  and  O_23
REMARK                            x       y       z     vdW  Elec       q    Type
REMARK                         _______ _______ _______ _____ _____    ______ ____
ROOT
ATOM      1  N   UNL     1       0.129  10.253  19.579  0.00  0.00    +0.000 N 
ATOM      2  N   UNL     1      -1.114  10.081  19.032  0.00  0.00    +0.000 NA
ATOM      3  C   UNL     1      -1.477  11.317  18.669  0.00  0.00    +0.000 A 
ATOM      4  C   UNL     1      -2.785  11.540  18.014  0.00  0.00    +0.000 C 
ATOM      5  C   UNL     1      -0.578  12.285  19.185  0.00  0.00    +0.000 A 
ATOM      6  C   UNL     1       0.153  11.547  20.089  0.00  0.00    +0.000 A 
ATOM      7  N   UNL     1       0.448  12.119  21.317  0.00  0.00    +0.000 N 
ATOM      8  C   UNL     1      -0.217  13.365  21.679  0.00  0.00    +0.000 C 
ATOM      9  O   UNL     1      -0.061  13.753  22.826  0.00  0.00    +0.000 OA
ATOM     10  C   UNL     1      -1.122  14.075  20.669  0.00  0.00    +0.000 C 
ATOM     11  C   UNL     1      -0.655  13.767  19.245  0.00  0.00    +0.000 C 
ATOM     12  H   UNL     1       0.939  11.624  22.053  0.00  0.00    +0.000 HD
ENDROOT
BRANCH   1  17
ATOM     13  C   UNL     1       3.606   5.941  18.118  0.00  0.00    +0.000 C 
ATOM     14  C   UNL     1       2.813   7.161  18.498  0.00  0.00    +0.000 A 
ATOM     15  C   UNL     1       2.592   8.227  17.610  0.00  0.00    +0.000 A 
ATOM     16  C   UNL     1       1.770   9.319  17.963  0.00  0.00    +0.000 A 
ATOM     17  C   UNL     1       1.164   9.340  19.223  0.00  0.00    +0.000 A 
ATOM     18  C   UNL     1       1.441   8.299  20.130  0.00  0.00    +0.000 A 
ATOM     19  C   UNL     1       2.242   7.217  19.769  0.00  0.00    +0.000 A 
ENDBRANCH   1  17
BRANCH  11  20
ATOM     20  C   UNL     1       0.751  14.294  18.909  0.00  0.00    +0.000 A 
ATOM     21  C   UNL     1       1.130  15.617  19.205  0.00  0.00    +0.000 A 
ATOM     22  C   UNL     1       2.423  16.081  18.978  0.00  0.00    +0.000 A 
ATOM     23  C   UNL     1       3.377  15.245  18.400  0.00  0.00    +0.000 A 
ATOM     24  C   UNL     1       3.023  13.929  18.067  0.00  0.00    +0.000 A 
ATOM     25  C   UNL     1       1.721  13.466  18.304  0.00  0.00    +0.000 A 
BRANCH  23  26
ATOM     26  C   UNL     1       4.737  15.788  18.212  0.00  0.00    +0.000 C 
ATOM     27  O   UNL     1       5.677  15.098  17.837  0.00  0.00    +0.000 OA
BRANCH  26  28
ATOM     28  O   UNL     1       4.859  17.090  18.538  0.00  0.00    +0.000 OA
ATOM     29  H   UNL     1       5.754  17.461  18.432  0.00  0.00    +0.000 HD
ENDBRANCH  26  28
ENDBRANCH  23  26
ENDBRANCH  11  20
TORSDOF 4
ENDMDL
