MODEL 1
REMARK VINA RESULT:      -8.6      0.000      0.000
REMARK  Name = 
REMARK  5 active torsions:
REMARK  status: ('A' for Active; 'I' for Inactive)
REMARK    1  A    between atoms: C_1  and  C_2
REMARK    2  A    between atoms: C_7  and  C_8
REMARK    3  A    between atoms: C_8  and  C_10
REMARK    4  A    between atoms: C_16  and  C_17
REMARK    5  A    between atoms: N_20  and  C_21
REMARK                            x       y       z     vdW  Elec       q    Type
REMARK                         _______ _______ _______ _____ _____    ______ ____
ROOT
ATOM      1  C   UNL     1      -1.290  11.859  20.780  0.00  0.00    +0.000 A 
ATOM      2  C   UNL     1      -1.665  12.363  22.020  0.00  0.00    +0.000 A 
ATOM      3  N   UNL     1      -1.016  11.652  23.000  0.00  0.00    +0.000 N 
ATOM      4  C   UNL     1      -0.275  10.657  22.434  0.00  0.00    +0.000 A 
ATOM      5  N   UNL     1       0.437   9.753  23.131  0.00  0.00    +0.000 NA
ATOM      6  C   UNL     1       1.068   8.855  22.333  0.00  0.00    +0.000 A 
ATOM      7  C   UNL     1       1.054   8.846  20.939  0.00  0.00    +0.000 A 
ATOM      8  C   UNL     1       0.321   9.846  20.281  0.00  0.00    +0.000 A 
ATOM      9  C   UNL     1      -0.404  10.765  21.055  0.00  0.00    +0.000 A 
ATOM     10  H   UNL     1      -1.075  11.802  23.997  0.00  0.00    +0.000 HD
ENDROOT
BRANCH   7  11
ATOM     11  C   UNL     1       1.745   7.828  20.178  0.00  0.00    +0.000 A 
ATOM     12  C   UNL     1       2.317   7.826  18.888  0.00  0.00    +0.000 A 
ATOM     13  N   UNL     1       2.858   6.651  18.575  0.00  0.00    +0.000 NA
ATOM     14  N   UNL     1       2.638   5.885  19.654  0.00  0.00    +0.000 N 
ATOM     15  C   UNL     1       1.999   6.559  20.655  0.00  0.00    +0.000 A 
BRANCH  14  16
ATOM     16  C   UNL     1       3.032   4.478  19.705  0.00  0.00    +0.000 C 
ATOM     17  C   UNL     1       3.351   3.891  18.331  0.00  0.00    +0.000 C 
ATOM     18  C   UNL     1       2.089   3.530  17.552  0.00  0.00    +0.000 C 
ATOM     19  N   UNL     1       1.192   2.662  18.320  0.00  0.00    +0.000 NA
ATOM     20  C   UNL     1       0.808   3.272  19.595  0.00  0.00    +0.000 C 
ATOM     21  C   UNL     1       2.020   3.614  20.458  0.00  0.00    +0.000 C 
ATOM     22  H   UNL     1       1.641   1.765  18.490  0.00  0.00    +0.000 HD
ENDBRANCH  14  16
ENDBRANCH   7  11
BRANCH   1  23
ATOM     23  C   UNL     1      -1.740  12.331  19.459  0.00  0.00    +0.000 C 
ATOM     24  O   UNL     1      -1.099  13.160  18.821  0.00  0.00    +0.000 OA
BRANCH  23  31
ATOM     25  C   UNL     1      -1.919  10.149  17.314  0.00  0.00    +0.000 C 
ATOM     26  C   UNL     1      -3.122  10.827  17.913  0.00  0.00    +0.000 A 
ATOM     27  C   UNL     1      -4.390  10.457  17.422  0.00  0.00    +0.000 A 
ATOM     28  C   UNL     1      -5.557  11.030  17.926  0.00  0.00    +0.000 A 
ATOM     29  C   UNL     1      -5.480  12.009  18.907  0.00  0.00    +0.000 A 
ATOM     30  C   UNL     1      -4.233  12.421  19.371  0.00  0.00    +0.000 A 
ATOM     31  C   UNL     1      -3.044  11.826  18.909  0.00  0.00    +0.000 A 
ENDBRANCH  23  31
ENDBRANCH   1  23
TORSDOF 4
ENDMDL
MODEL 2
REMARK VINA RESULT:      -8.6      3.397      8.989
REMARK  Name = 
REMARK  5 active torsions:
REMARK  status: ('A' for Active; 'I' for Inactive)
REMARK    1  A    between atoms: C_1  and  C_2
REMARK    2  A    between atoms: C_7  and  C_8
REMARK    3  A    between atoms: C_8  and  C_10
REMARK    4  A    between atoms: C_16  and  C_17
REMARK    5  A    between atoms: N_20  and  C_21
REMARK                            x       y       z     vdW  Elec       q    Type
REMARK                         _______ _______ _______ _____ _____    ______ ____
ROOT
ATOM      1  C   UNL     1       4.036   3.546  17.945  0.00  0.00    +0.000 A 
ATOM      2  C   UNL     1       3.838   2.203  18.247  0.00  0.00    +0.000 A 
ATOM      3  N   UNL     1       2.859   2.105  19.206  0.00  0.00    +0.000 N 
ATOM      4  C   UNL     1       2.456   3.353  19.582  0.00  0.00    +0.000 A 
ATOM      5  N   UNL     1       1.545   3.596  20.542  0.00  0.00    +0.000 NA
ATOM      6  C   UNL     1       1.337   4.922  20.742  0.00  0.00    +0.000 A 
ATOM      7  C   UNL     1       1.937   5.962  20.033  0.00  0.00    +0.000 A 
ATOM      8  C   UNL     1       2.847   5.628  19.019  0.00  0.00    +0.000 A 
ATOM      9  C   UNL     1       3.151   4.273  18.809  0.00  0.00    +0.000 A 
ATOM     10  H   UNL     1       2.488   1.256  19.608  0.00  0.00    +0.000 HD
ENDROOT
BRANCH   7  11
ATOM     11  C   UNL     1       1.662   7.349  20.340  0.00  0.00    +0.000 A 
ATOM     12  C   UNL     1       1.472   8.035  21.558  0.00  0.00    +0.000 A 
ATOM     13  N   UNL     1       1.232   9.332  21.376  0.00  0.00    +0.000 NA
ATOM     14  N   UNL     1       1.261   9.493  20.045  0.00  0.00    +0.000 N 
ATOM     15  C   UNL     1       1.546   8.334  19.382  0.00  0.00    +0.000 A 
BRANCH  14  16
ATOM     16  C   UNL     1       0.987  10.780  19.408  0.00  0.00    +0.000 C 
ATOM     17  C   UNL     1       0.562  11.864  20.399  0.00  0.00    +0.000 C 
ATOM     18  C   UNL     1      -0.903  11.730  20.805  0.00  0.00    +0.000 C 
ATOM     19  N   UNL     1      -1.797  11.671  19.646  0.00  0.00    +0.000 NA
ATOM     20  C   UNL     1      -1.449  10.568  18.748  0.00  0.00    +0.000 C 
ATOM     21  C   UNL     1      -0.008  10.662  18.253  0.00  0.00    +0.000 C 
ATOM     22  H   UNL     1      -1.763  12.553  19.138  0.00  0.00    +0.000 HD
ENDBRANCH  14  16
ENDBRANCH   7  11
BRANCH   1  23
ATOM     23  C   UNL     1       4.986   4.103  16.968  0.00  0.00    +0.000 C 
ATOM     24  O   UNL     1       5.038   3.687  15.815  0.00  0.00    +0.000 OA
BRANCH  23  31
ATOM     25  C   UNL     1       4.936   6.968  15.878  0.00  0.00    +0.000 C 
ATOM     26  C   UNL     1       5.930   6.484  16.899  0.00  0.00    +0.000 A 
ATOM     27  C   UNL     1       6.910   7.397  17.338  0.00  0.00    +0.000 A 
ATOM     28  C   UNL     1       7.865   7.033  18.287  0.00  0.00    +0.000 A 
ATOM     29  C   UNL     1       7.882   5.740  18.792  0.00  0.00    +0.000 A 
ATOM     30  C   UNL     1       6.950   4.811  18.336  0.00  0.00    +0.000 A 
ATOM     31  C   UNL     1       5.950   5.167  17.411  0.00  0.00    +0.000 A 
ENDBRANCH  23  31
ENDBRANCH   1  23
TORSDOF 4
ENDMDL
MODEL 3
REMARK VINA RESULT:      -8.6      0.511      1.416
REMARK  Name = 
REMARK  5 active torsions:
REMARK  status: ('A' for Active; 'I' for Inactive)
REMARK    1  A    between atoms: C_1  and  C_2
REMARK    2  A    between atoms: C_7  and  C_8
REMARK    3  A    between atoms: C_8  and  C_10
REMARK    4  A    between atoms: C_16  and  C_17
REMARK    5  A    between atoms: N_20  and  C_21
REMARK                            x       y       z     vdW  Elec       q    Type
REMARK                         _______ _______ _______ _____ _____    ______ ____
ROOT
ATOM      1  C   UNL     1      -1.154  12.023  20.754  0.00  0.00    +0.000 A 
ATOM      2  C   UNL     1      -1.600  12.514  21.976  0.00  0.00    +0.000 A 
ATOM      3  N   UNL     1      -1.063  11.747  22.982  0.00  0.00    +0.000 N 
ATOM      4  C   UNL     1      -0.330  10.730  22.445  0.00  0.00    +0.000 A 
ATOM      5  N   UNL     1       0.281   9.774  23.169  0.00  0.00    +0.000 NA
ATOM      6  C   UNL     1       0.927   8.865  22.396  0.00  0.00    +0.000 A 
ATOM      7  C   UNL     1       1.020   8.891  21.005  0.00  0.00    +0.000 A 
ATOM      8  C   UNL     1       0.390   9.942  20.322  0.00  0.00    +0.000 A 
ATOM      9  C   UNL     1      -0.347  10.878  21.065  0.00  0.00    +0.000 A 
ATOM     10  H   UNL     1      -1.192  11.875  23.975  0.00  0.00    +0.000 HD
ENDROOT
BRANCH   7  11
ATOM     11  C   UNL     1       1.718   7.858  20.271  0.00  0.00    +0.000 A 
ATOM     12  C   UNL     1       2.299   7.831  18.985  0.00  0.00    +0.000 A 
ATOM     13  N   UNL     1       2.844   6.649  18.700  0.00  0.00    +0.000 NA
ATOM     14  N   UNL     1       2.616   5.905  19.793  0.00  0.00    +0.000 N 
ATOM     15  C   UNL     1       1.968   6.599  20.775  0.00  0.00    +0.000 A 
BRANCH  14  16
ATOM     16  C   UNL     1       3.010   4.501  19.876  0.00  0.00    +0.000 C 
ATOM     17  C   UNL     1       3.154   3.833  18.509  0.00  0.00    +0.000 C 
ATOM     18  C   UNL     1       1.804   3.440  17.915  0.00  0.00    +0.000 C 
ATOM     19  N   UNL     1       1.008   2.626  18.836  0.00  0.00    +0.000 NA
ATOM     20  C   UNL     1       0.786   3.311  20.112  0.00  0.00    +0.000 C 
ATOM     21  C   UNL     1       2.097   3.690  20.797  0.00  0.00    +0.000 C 
ATOM     22  H   UNL     1       1.473   1.735  19.000  0.00  0.00    +0.000 HD
ENDBRANCH  14  16
ENDBRANCH   7  11
BRANCH   1  23
ATOM     23  C   UNL     1      -1.478  12.548  19.417  0.00  0.00    +0.000 C 
ATOM     24  O   UNL     1      -1.129  13.672  19.068  0.00  0.00    +0.000 OA
BRANCH  23  31
ATOM     25  C   UNL     1      -4.542  12.471  19.499  0.00  0.00    +0.000 C 
ATOM     26  C   UNL     1      -3.715  11.670  18.530  0.00  0.00    +0.000 A 
ATOM     27  C   UNL     1      -4.399  10.812  17.645  0.00  0.00    +0.000 A 
ATOM     28  C   UNL     1      -3.711  10.039  16.709  0.00  0.00    +0.000 A 
ATOM     29  C   UNL     1      -2.324  10.082  16.661  0.00  0.00    +0.000 A 
ATOM     30  C   UNL     1      -1.629  10.889  17.559  0.00  0.00    +0.000 A 
ATOM     31  C   UNL     1      -2.303  11.710  18.482  0.00  0.00    +0.000 A 
ENDBRANCH  23  31
ENDBRANCH   1  23
TORSDOF 4
ENDMDL
MODEL 4
REMARK VINA RESULT:      -8.5      3.674      9.049
REMARK  Name = 
REMARK  5 active torsions:
REMARK  status: ('A' for Active; 'I' for Inactive)
REMARK    1  A    between atoms: C_1  and  C_2
REMARK    2  A    between atoms: C_7  and  C_8
REMARK    3  A    between atoms: C_8  and  C_10
REMARK    4  A    between atoms: C_16  and  C_17
REMARK    5  A    between atoms: N_20  and  C_21
REMARK                            x       y       z     vdW  Elec       q    Type
REMARK                         _______ _______ _______ _____ _____    ______ ____
ROOT
ATOM      1  C   UNL     1       4.462   4.044  18.727  0.00  0.00    +0.000 A 
ATOM      2  C   UNL     1       4.286   2.884  19.473  0.00  0.00    +0.000 A 
ATOM      3  N   UNL     1       3.220   3.062  20.320  0.00  0.00    +0.000 N 
ATOM      4  C   UNL     1       2.734   4.330  20.192  0.00  0.00    +0.000 A 
ATOM      5  N   UNL     1       1.723   4.831  20.923  0.00  0.00    +0.000 NA
ATOM      6  C   UNL     1       1.446   6.124  20.618  0.00  0.00    +0.000 A 
ATOM      7  C   UNL     1       2.075   6.886  19.635  0.00  0.00    +0.000 A 
ATOM      8  C   UNL     1       3.094   6.281  18.884  0.00  0.00    +0.000 A 
ATOM      9  C   UNL     1       3.468   4.965  19.198  0.00  0.00    +0.000 A 
ATOM     10  H   UNL     1       2.842   2.386  20.969  0.00  0.00    +0.000 HD
ENDROOT
BRANCH   7  11
ATOM     11  C   UNL     1       1.718   8.268  19.401  0.00  0.00    +0.000 A 
ATOM     12  C   UNL     1       1.846   9.107  18.273  0.00  0.00    +0.000 A 
ATOM     13  N   UNL     1       1.384  10.335  18.500  0.00  0.00    +0.000 NA
ATOM     14  N   UNL     1       0.959  10.301  19.772  0.00  0.00    +0.000 N 
ATOM     15  C   UNL     1       1.112   9.071  20.344  0.00  0.00    +0.000 A 
BRANCH  14  16
ATOM     16  C   UNL     1       0.420  11.481  20.446  0.00  0.00    +0.000 C 
ATOM     17  C   UNL     1      -1.087  11.401  20.689  0.00  0.00    +0.000 C 
ATOM     18  C   UNL     1      -1.891  11.727  19.434  0.00  0.00    +0.000 C 
ATOM     19  N   UNL     1      -1.503  13.009  18.843  0.00  0.00    +0.000 NA
ATOM     20  C   UNL     1      -0.075  13.047  18.518  0.00  0.00    +0.000 C 
ATOM     21  C   UNL     1       0.801  12.783  19.740  0.00  0.00    +0.000 C 
ATOM     22  H   UNL     1      -1.730  13.767  19.483  0.00  0.00    +0.000 HD
ENDBRANCH  14  16
ENDBRANCH   7  11
BRANCH   1  23
ATOM     23  C   UNL     1       5.484   4.287  17.695  0.00  0.00    +0.000 C 
ATOM     24  O   UNL     1       5.679   3.487  16.785  0.00  0.00    +0.000 OA
BRANCH  23  31
ATOM     25  C   UNL     1       5.166   6.706  15.839  0.00  0.00    +0.000 C 
ATOM     26  C   UNL     1       6.201   6.624  16.928  0.00  0.00    +0.000 A 
ATOM     27  C   UNL     1       7.091   7.708  17.065  0.00  0.00    +0.000 A 
ATOM     28  C   UNL     1       8.076   7.717  18.052  0.00  0.00    +0.000 A 
ATOM     29  C   UNL     1       8.214   6.628  18.902  0.00  0.00    +0.000 A 
ATOM     30  C   UNL     1       7.373   5.528  18.753  0.00  0.00    +0.000 A 
ATOM     31  C   UNL     1       6.344   5.514  17.792  0.00  0.00    +0.000 A 
ENDBRANCH  23  31
ENDBRANCH   1  23
TORSDOF 4
ENDMDL
MODEL 5
REMARK VINA RESULT:      -8.5      1.200      1.887
REMARK  Name = 
REMARK  5 active torsions:
REMARK  status: ('A' for Active; 'I' for Inactive)
REMARK    1  A    between atoms: C_1  and  C_2
REMARK    2  A    between atoms: C_7  and  C_8
REMARK    3  A    between atoms: C_8  and  C_10
REMARK    4  A    between atoms: C_16  and  C_17
REMARK    5  A    between atoms: N_20  and  C_21
REMARK                            x       y       z     vdW  Elec       q    Type
REMARK                         _______ _______ _______ _____ _____    ______ ____
ROOT
ATOM      1  C   UNL     1      -1.023  11.793  20.437  0.00  0.00    +0.000 A 
ATOM      2  C   UNL     1      -1.305  12.501  21.601  0.00  0.00    +0.000 A 
ATOM      3  N   UNL     1      -0.676  11.884  22.655  0.00  0.00    +0.000 N 
ATOM      4  C   UNL     1      -0.043  10.757  22.219  0.00  0.00    +0.000 A 
ATOM      5  N   UNL     1       0.620   9.904  23.021  0.00  0.00    +0.000 NA
ATOM      6  C   UNL     1       1.142   8.849  22.345  0.00  0.00    +0.000 A 
ATOM      7  C   UNL     1       1.070   8.641  20.969  0.00  0.00    +0.000 A 
ATOM      8  C   UNL     1       0.395   9.596  20.193  0.00  0.00    +0.000 A 
ATOM      9  C   UNL     1      -0.220  10.677  20.844  0.00  0.00    +0.000 A 
ATOM     10  H   UNL     1      -0.682  12.180  23.621  0.00  0.00    +0.000 HD
ENDROOT
BRANCH   7  11
ATOM     11  C   UNL     1       1.644   7.468  20.346  0.00  0.00    +0.000 A 
ATOM     12  C   UNL     1       1.625   6.100  20.693  0.00  0.00    +0.000 A 
ATOM     13  N   UNL     1       2.300   5.348  19.826  0.00  0.00    +0.000 NA
ATOM     14  N   UNL     1       2.762   6.221  18.917  0.00  0.00    +0.000 N 
ATOM     15  C   UNL     1       2.367   7.503  19.173  0.00  0.00    +0.000 A 
BRANCH  14  16
ATOM     16  C   UNL     1       3.614   5.809  17.804  0.00  0.00    +0.000 C 
ATOM     17  C   UNL     1       3.507   4.319  17.481  0.00  0.00    +0.000 C 
ATOM     18  C   UNL     1       4.321   3.461  18.447  0.00  0.00    +0.000 C 
ATOM     19  N   UNL     1       5.715   3.899  18.538  0.00  0.00    +0.000 NA
ATOM     20  C   UNL     1       5.817   5.303  18.945  0.00  0.00    +0.000 C 
ATOM     21  C   UNL     1       5.071   6.234  17.993  0.00  0.00    +0.000 C 
ATOM     22  H   UNL     1       6.179   3.767  17.642  0.00  0.00    +0.000 HD
ENDBRANCH  14  16
ENDBRANCH   7  11
BRANCH   1  23
ATOM     23  C   UNL     1      -1.488  12.108  19.075  0.00  0.00    +0.000 C 
ATOM     24  O   UNL     1      -0.803  12.768  18.301  0.00  0.00    +0.000 OA
BRANCH  23  31
ATOM     25  C   UNL     1      -1.948   9.900  16.998  0.00  0.00    +0.000 C 
ATOM     26  C   UNL     1      -3.063  10.645  17.682  0.00  0.00    +0.000 A 
ATOM     27  C   UNL     1      -4.384  10.327  17.307  0.00  0.00    +0.000 A 
ATOM     28  C   UNL     1      -5.477  10.964  17.895  0.00  0.00    +0.000 A 
ATOM     29  C   UNL     1      -5.271  11.955  18.846  0.00  0.00    +0.000 A 
ATOM     30  C   UNL     1      -3.972  12.315  19.195  0.00  0.00    +0.000 A 
ATOM     31  C   UNL     1      -2.855  11.656  18.647  0.00  0.00    +0.000 A 
ENDBRANCH  23  31
ENDBRANCH   1  23
TORSDOF 4
ENDMDL
MODEL 6
REMARK VINA RESULT:      -8.5      1.251      2.340
REMARK  Name = 
REMARK  5 active torsions:
REMARK  status: ('A' for Active; 'I' for Inactive)
REMARK    1  A    between atoms: C_1  and  C_2
REMARK    2  A    between atoms: C_7  and  C_8
REMARK    3  A    between atoms: C_8  and  C_10
REMARK    4  A    between atoms: C_16  and  C_17
REMARK    5  A    between atoms: N_20  and  C_21
REMARK                            x       y       z     vdW  Elec       q    Type
REMARK                         _______ _______ _______ _____ _____    ______ ____
ROOT
ATOM      1  C   UNL     1      -0.851  11.941  20.387  0.00  0.00    +0.000 A 
ATOM      2  C   UNL     1      -1.225  12.619  21.543  0.00  0.00    +0.000 A 
ATOM      3  N   UNL     1      -0.732  11.940  22.631  0.00  0.00    +0.000 N 
ATOM      4  C   UNL     1      -0.100  10.804  22.219  0.00  0.00    +0.000 A 
ATOM      5  N   UNL     1       0.445   9.897  23.050  0.00  0.00    +0.000 NA
ATOM      6  C   UNL     1       0.994   8.846  22.390  0.00  0.00    +0.000 A 
ATOM      7  C   UNL     1       1.057   8.689  21.006  0.00  0.00    +0.000 A 
ATOM      8  C   UNL     1       0.502   9.697  20.204  0.00  0.00    +0.000 A 
ATOM      9  C   UNL     1      -0.136  10.779  20.831  0.00  0.00    +0.000 A 
ATOM     10  H   UNL     1      -0.826  12.202  23.602  0.00  0.00    +0.000 HD
ENDROOT
BRANCH   7  11
ATOM     11  C   UNL     1       1.647   7.516  20.400  0.00  0.00    +0.000 A 
ATOM     12  C   UNL     1       1.672   6.157  20.781  0.00  0.00    +0.000 A 
ATOM     13  N   UNL     1       2.348   5.401  19.918  0.00  0.00    +0.000 NA
ATOM     14  N   UNL     1       2.766   6.262  18.978  0.00  0.00    +0.000 N 
ATOM     15  C   UNL     1       2.344   7.540  19.210  0.00  0.00    +0.000 A 
BRANCH  14  16
ATOM     16  C   UNL     1       3.605   5.844  17.856  0.00  0.00    +0.000 C 
ATOM     17  C   UNL     1       3.442   4.367  17.498  0.00  0.00    +0.000 C 
ATOM     18  C   UNL     1       4.219   3.456  18.444  0.00  0.00    +0.000 C 
ATOM     19  N   UNL     1       5.630   3.838  18.548  0.00  0.00    +0.000 NA
ATOM     20  C   UNL     1       5.785   5.227  18.988  0.00  0.00    +0.000 C 
ATOM     21  C   UNL     1       5.076   6.208  18.058  0.00  0.00    +0.000 C 
ATOM     22  H   UNL     1       6.090   3.709  17.649  0.00  0.00    +0.000 HD
ENDBRANCH  14  16
ENDBRANCH   7  11
BRANCH   1  23
ATOM     23  C   UNL     1      -1.161  12.322  18.999  0.00  0.00    +0.000 C 
ATOM     24  O   UNL     1      -0.688  13.334  18.491  0.00  0.00    +0.000 OA
BRANCH  23  31
ATOM     25  C   UNL     1      -4.198  12.430  19.395  0.00  0.00    +0.000 C 
ATOM     26  C   UNL     1      -3.521  11.527  18.400  0.00  0.00    +0.000 A 
ATOM     27  C   UNL     1      -4.338  10.661  17.646  0.00  0.00    +0.000 A 
ATOM     28  C   UNL     1      -3.793   9.795  16.697  0.00  0.00    +0.000 A 
ATOM     29  C   UNL     1      -2.419   9.753  16.506  0.00  0.00    +0.000 A 
ATOM     30  C   UNL     1      -1.592  10.569  17.275  0.00  0.00    +0.000 A 
ATOM     31  C   UNL     1      -2.122  11.481  18.208  0.00  0.00    +0.000 A 
ENDBRANCH  23  31
ENDBRANCH   1  23
TORSDOF 4
ENDMDL
MODEL 7
REMARK VINA RESULT:      -8.4      3.615      9.061
REMARK  Name = 
REMARK  5 active torsions:
REMARK  status: ('A' for Active; 'I' for Inactive)
REMARK    1  A    between atoms: C_1  and  C_2
REMARK    2  A    between atoms: C_7  and  C_8
REMARK    3  A    between atoms: C_8  and  C_10
REMARK    4  A    between atoms: C_16  and  C_17
REMARK    5  A    between atoms: N_20  and  C_21
REMARK                            x       y       z     vdW  Elec       q    Type
REMARK                         _______ _______ _______ _____ _____    ______ ____
ROOT
ATOM      1  C   UNL     1       4.364   3.757  18.493  0.00  0.00    +0.000 A 
ATOM      2  C   UNL     1       4.265   2.483  19.043  0.00  0.00    +0.000 A 
ATOM      3  N   UNL     1       3.281   2.492  20.002  0.00  0.00    +0.000 N 
ATOM      4  C   UNL     1       2.778   3.753  20.136  0.00  0.00    +0.000 A 
ATOM      5  N   UNL     1       1.836   4.101  21.030  0.00  0.00    +0.000 NA
ATOM      6  C   UNL     1       1.524   5.420  20.976  0.00  0.00    +0.000 A 
ATOM      7  C   UNL     1       2.054   6.351  20.084  0.00  0.00    +0.000 A 
ATOM      8  C   UNL     1       3.003   5.904  19.152  0.00  0.00    +0.000 A 
ATOM      9  C   UNL     1       3.413   4.563  19.203  0.00  0.00    +0.000 A 
ATOM     10  H   UNL     1       2.970   1.708  20.557  0.00  0.00    +0.000 HD
ENDROOT
BRANCH   7  11
ATOM     11  C   UNL     1       1.669   7.746  20.122  0.00  0.00    +0.000 A 
ATOM     12  C   UNL     1       1.273   8.595  21.177  0.00  0.00    +0.000 A 
ATOM     13  N   UNL     1       0.997   9.829  20.757  0.00  0.00    +0.000 NA
ATOM     14  N   UNL     1       1.209   9.785  19.433  0.00  0.00    +0.000 N 
ATOM     15  C   UNL     1       1.643   8.561  19.011  0.00  0.00    +0.000 A 
BRANCH  14  16
ATOM     16  C   UNL     1       0.965  10.936  18.566  0.00  0.00    +0.000 C 
ATOM     17  C   UNL     1       2.040  12.016  18.681  0.00  0.00    +0.000 C 
ATOM     18  C   UNL     1       1.852  12.886  19.922  0.00  0.00    +0.000 C 
ATOM     19  N   UNL     1       0.503  13.450  20.005  0.00  0.00    +0.000 NA
ATOM     20  C   UNL     1      -0.524  12.405  19.996  0.00  0.00    +0.000 C 
ATOM     21  C   UNL     1      -0.435  11.523  18.753  0.00  0.00    +0.000 C 
ATOM     22  H   UNL     1       0.348  14.091  19.230  0.00  0.00    +0.000 HD
ENDBRANCH  14  16
ENDBRANCH   7  11
BRANCH   1  23
ATOM     23  C   UNL     1       5.285   4.193  17.429  0.00  0.00    +0.000 C 
ATOM     24  O   UNL     1       5.362   3.591  16.363  0.00  0.00    +0.000 OA
BRANCH  23  31
ATOM     25  C   UNL     1       5.038   6.848  15.918  0.00  0.00    +0.000 C 
ATOM     26  C   UNL     1       6.077   6.586  16.974  0.00  0.00    +0.000 A 
ATOM     27  C   UNL     1       7.005   7.612  17.243  0.00  0.00    +0.000 A 
ATOM     28  C   UNL     1       7.997   7.455  18.211  0.00  0.00    +0.000 A 
ATOM     29  C   UNL     1       8.103   6.258  18.906  0.00  0.00    +0.000 A 
ATOM     30  C   UNL     1       7.224   5.216  18.621  0.00  0.00    +0.000 A 
ATOM     31  C   UNL     1       6.188   5.366  17.680  0.00  0.00    +0.000 A 
ENDBRANCH  23  31
ENDBRANCH   1  23
TORSDOF 4
ENDMDL
MODEL 8
REMARK VINA RESULT:      -8.3      1.197      1.787
REMARK  Name = 
REMARK  5 active torsions:
REMARK  status: ('A' for Active; 'I' for Inactive)
REMARK    1  A    between atoms: C_1  and  C_2
REMARK    2  A    between atoms: C_7  and  C_8
REMARK    3  A    between atoms: C_8  and  C_10
REMARK    4  A    between atoms: C_16  and  C_17
REMARK    5  A    between atoms: N_20  and  C_21
REMARK                            x       y       z     vdW  Elec       q    Type
REMARK                         _______ _______ _______ _____ _____    ______ ____
ROOT
ATOM      1  C   UNL     1      -1.009  11.442  20.618  0.00  0.00    +0.000 A 
ATOM      2  C   UNL     1      -1.356  11.649  21.949  0.00  0.00    +0.000 A 
ATOM      3  N   UNL     1      -0.632  10.784  22.733  0.00  0.00    +0.000 N 
ATOM      4  C   UNL     1       0.132   9.975  21.945  0.00  0.00    +0.000 A 
ATOM      5  N   UNL     1       0.916   8.987  22.411  0.00  0.00    +0.000 NA
ATOM      6  C   UNL     1       1.556   8.315  21.420  0.00  0.00    +0.000 A 
ATOM      7  C   UNL     1       1.483   8.600  20.058  0.00  0.00    +0.000 A 
ATOM      8  C   UNL     1       0.676   9.673  19.652  0.00  0.00    +0.000 A 
ATOM      9  C   UNL     1      -0.060  10.365  20.626  0.00  0.00    +0.000 A 
ATOM     10  H   UNL     1      -0.657  10.716  23.741  0.00  0.00    +0.000 HD
ENDROOT
BRANCH   7  11
ATOM     11  C   UNL     1       2.191   7.807  19.076  0.00  0.00    +0.000 A 
ATOM     12  C   UNL     1       2.965   8.155  17.949  0.00  0.00    +0.000 A 
ATOM     13  N   UNL     1       3.437   7.087  17.308  0.00  0.00    +0.000 NA
ATOM     14  N   UNL     1       2.970   6.045  18.012  0.00  0.00    +0.000 N 
ATOM     15  C   UNL     1       2.241   6.429  19.101  0.00  0.00    +0.000 A 
BRANCH  14  16
ATOM     16  C   UNL     1       3.215   4.661  17.610  0.00  0.00    +0.000 C 
ATOM     17  C   UNL     1       2.804   3.642  18.672  0.00  0.00    +0.000 C 
ATOM     18  C   UNL     1       3.840   3.522  19.787  0.00  0.00    +0.000 C 
ATOM     19  N   UNL     1       5.184   3.256  19.269  0.00  0.00    +0.000 NA
ATOM     20  C   UNL     1       5.616   4.289  18.325  0.00  0.00    +0.000 C 
ATOM     21  C   UNL     1       4.655   4.431  17.148  0.00  0.00    +0.000 C 
ATOM     22  H   UNL     1       5.205   2.345  18.816  0.00  0.00    +0.000 HD
ENDBRANCH  14  16
ENDBRANCH   7  11
BRANCH   1  23
ATOM     23  C   UNL     1      -1.537  12.155  19.443  0.00  0.00    +0.000 C 
ATOM     24  O   UNL     1      -0.927  13.090  18.933  0.00  0.00    +0.000 OA
BRANCH  23  31
ATOM     25  C   UNL     1      -1.893  10.136  17.165  0.00  0.00    +0.000 C 
ATOM     26  C   UNL     1      -3.039  10.842  17.837  0.00  0.00    +0.000 A 
ATOM     27  C   UNL     1      -4.338  10.580  17.355  0.00  0.00    +0.000 A 
ATOM     28  C   UNL     1      -5.457  11.185  17.925  0.00  0.00    +0.000 A 
ATOM     29  C   UNL     1      -5.300  12.090  18.966  0.00  0.00    +0.000 A 
ATOM     30  C   UNL     1      -4.021  12.397  19.425  0.00  0.00    +0.000 A 
ATOM     31  C   UNL     1      -2.880  11.766  18.894  0.00  0.00    +0.000 A 
ENDBRANCH  23  31
ENDBRANCH   1  23
TORSDOF 4
ENDMDL
MODEL 9
REMARK VINA RESULT:      -8.3      1.402      2.443
REMARK  Name = 
REMARK  5 active torsions:
REMARK  status: ('A' for Active; 'I' for Inactive)
REMARK    1  A    between atoms: C_1  and  C_2
REMARK    2  A    between atoms: C_7  and  C_8
REMARK    3  A    between atoms: C_8  and  C_10
REMARK    4  A    between atoms: C_16  and  C_17
REMARK    5  A    between atoms: N_20  and  C_21
REMARK                            x       y       z     vdW  Elec       q    Type
REMARK                         _______ _______ _______ _____ _____    ______ ____
ROOT
ATOM      1  C   UNL     1      -0.937  11.560  20.582  0.00  0.00    +0.000 A 
ATOM      2  C   UNL     1      -1.369  11.712  21.895  0.00  0.00    +0.000 A 
ATOM      3  N   UNL     1      -0.744  10.771  22.677  0.00  0.00    +0.000 N 
ATOM      4  C   UNL     1       0.036   9.968  21.898  0.00  0.00    +0.000 A 
ATOM      5  N   UNL     1       0.738   8.918  22.359  0.00  0.00    +0.000 NA
ATOM      6  C   UNL     1       1.416   8.269  21.379  0.00  0.00    +0.000 A 
ATOM      7  C   UNL     1       1.454   8.631  20.033  0.00  0.00    +0.000 A 
ATOM      8  C   UNL     1       0.729   9.764  19.634  0.00  0.00    +0.000 A 
ATOM      9  C   UNL     1      -0.043  10.438  20.594  0.00  0.00    +0.000 A 
ATOM     10  H   UNL     1      -0.844  10.650  23.675  0.00  0.00    +0.000 HD
ENDROOT
BRANCH   7  11
ATOM     11  C   UNL     1       2.193   7.857  19.059  0.00  0.00    +0.000 A 
ATOM     12  C   UNL     1       2.916   8.222  17.903  0.00  0.00    +0.000 A 
ATOM     13  N   UNL     1       3.446   7.169  17.284  0.00  0.00    +0.000 NA
ATOM     14  N   UNL     1       3.068   6.119  18.029  0.00  0.00    +0.000 N 
ATOM     15  C   UNL     1       2.338   6.487  19.123  0.00  0.00    +0.000 A 
BRANCH  14  16
ATOM     16  C   UNL     1       3.399   4.744  17.663  0.00  0.00    +0.000 C 
ATOM     17  C   UNL     1       3.713   3.857  18.868  0.00  0.00    +0.000 C 
ATOM     18  C   UNL     1       5.129   4.079  19.392  0.00  0.00    +0.000 C 
ATOM     19  N   UNL     1       6.138   3.943  18.339  0.00  0.00    +0.000 NA
ATOM     20  C   UNL     1       5.891   4.866  17.228  0.00  0.00    +0.000 C 
ATOM     21  C   UNL     1       4.508   4.667  16.613  0.00  0.00    +0.000 C 
ATOM     22  H   UNL     1       6.151   2.986  17.994  0.00  0.00    +0.000 HD
ENDBRANCH  14  16
ENDBRANCH   7  11
BRANCH   1  23
ATOM     23  C   UNL     1      -1.346  12.361  19.416  0.00  0.00    +0.000 C 
ATOM     24  O   UNL     1      -0.964  13.518  19.268  0.00  0.00    +0.000 OA
BRANCH  23  31
ATOM     25  C   UNL     1      -4.393  12.470  19.737  0.00  0.00    +0.000 C 
ATOM     26  C   UNL     1      -3.702  11.811  18.575  0.00  0.00    +0.000 A 
ATOM     27  C   UNL     1      -4.512  11.178  17.610  0.00  0.00    +0.000 A 
ATOM     28  C   UNL     1      -3.955  10.548  16.497  0.00  0.00    +0.000 A 
ATOM     29  C   UNL     1      -2.575  10.509  16.343  0.00  0.00    +0.000 A 
ATOM     30  C   UNL     1      -1.758  11.088  17.309  0.00  0.00    +0.000 A 
ATOM     31  C   UNL     1      -2.298  11.767  18.418  0.00  0.00    +0.000 A 
ENDBRANCH  23  31
ENDBRANCH   1  23
TORSDOF 4
ENDMDL
