MODEL 1
REMARK VINA RESULT:      -9.8      0.000      0.000
REMARK  Name = 
REMARK  4 active torsions:
REMARK  status: ('A' for Active; 'I' for Inactive)
REMARK    1  A    between atoms: C_1  and  N_2
REMARK    2  A    between atoms: C_7  and  C_8
REMARK    3  A    between atoms: C_10  and  C_11
REMARK    4  A    between atoms: C_19  and  C_20
REMARK                            x       y       z     vdW  Elec       q    Type
REMARK                         _______ _______ _______ _____ _____    ______ ____
ROOT
ATOM      1  C   UNL     1       2.052   1.739  19.098  0.00  0.00    +0.000 C 
ATOM      2  N   UNL     1       2.471   3.069  18.649  0.00  0.00    +0.000 NA
ATOM      3  C   UNL     1       1.384   4.010  18.944  0.00  0.00    +0.000 C 
ATOM      4  C   UNL     1       1.632   4.331  20.441  0.00  0.00    +0.000 C 
ATOM      5  C   UNL     1       3.111   4.034  20.698  0.00  0.00    +0.000 C 
ATOM      6  C   UNL     1       3.634   3.722  19.305  0.00  0.00    +0.000 C 
ATOM      7  C   UNL     1       4.036   5.115  18.642  0.00  0.00    +0.000 C 
ATOM      8  C   UNL     1       2.831   5.954  18.074  0.00  0.00    +0.000 C 
ATOM      9  C   UNL     1       1.617   5.039  17.836  0.00  0.00    +0.000 C 
ENDROOT
BRANCH   8  10
ATOM     10  C   UNL     1       2.288   7.209  18.772  0.00  0.00    +0.000 A 
ATOM     11  C   UNL     1       2.063   7.345  20.143  0.00  0.00    +0.000 A 
ATOM     12  C   UNL     1       1.399   8.474  20.650  0.00  0.00    +0.000 A 
ATOM     13  C   UNL     1       0.985   9.495  19.797  0.00  0.00    +0.000 A 
ATOM     14 CL   UNL     1       0.171  10.874  20.427  0.00  0.00    +0.000 Cl
ATOM     15  C   UNL     1       1.226   9.403  18.435  0.00  0.00    +0.000 A 
ATOM     16  C   UNL     1       1.879   8.277  17.935  0.00  0.00    +0.000 A 
ENDBRANCH   8  10
BRANCH   7  17
ATOM     17  C   UNL     1       5.106   4.931  17.596  0.00  0.00    +0.000 A 
ATOM     18  N   UNL     1       4.989   4.911  16.286  0.00  0.00    +0.000 NA
ATOM     19  C   UNL     1       6.266   4.635  15.854  0.00  0.00    +0.000 A 
ATOM     20  N   UNL     1       7.144   4.501  16.868  0.00  0.00    +0.000 NA
ATOM     21  O   UNL     1       6.376   4.699  18.014  0.00  0.00    +0.000 OA
BRANCH  19  22
ATOM     22  C   UNL     1       6.632   4.519  14.444  0.00  0.00    +0.000 A 
ATOM     23  C   UNL     1       6.017   3.578  13.604  0.00  0.00    +0.000 A 
ATOM     24  C   UNL     1       6.354   3.490  12.246  0.00  0.00    +0.000 A 
ATOM     25  C   UNL     1       7.312   4.342  11.713  0.00  0.00    +0.000 A 
ATOM     26  C   UNL     1       7.938   5.282  12.525  0.00  0.00    +0.000 A 
ATOM     27  C   UNL     1       7.597   5.365  13.882  0.00  0.00    +0.000 A 
ENDBRANCH  19  22
ENDBRANCH   7  17
TORSDOF 3
ENDMDL
MODEL 2
REMARK VINA RESULT:      -9.7      3.216      7.707
REMARK  Name = 
REMARK  4 active torsions:
REMARK  status: ('A' for Active; 'I' for Inactive)
REMARK    1  A    between atoms: C_1  and  N_2
REMARK    2  A    between atoms: C_7  and  C_8
REMARK    3  A    between atoms: C_10  and  C_11
REMARK    4  A    between atoms: C_19  and  C_20
REMARK                            x       y       z     vdW  Elec       q    Type
REMARK                         _______ _______ _______ _____ _____    ______ ____
ROOT
ATOM      1  C   UNL     1       2.664   2.746  20.924  0.00  0.00    +0.000 C 
ATOM      2  N   UNL     1       3.199   3.792  20.048  0.00  0.00    +0.000 NA
ATOM      3  C   UNL     1       4.404   3.265  19.397  0.00  0.00    +0.000 C 
ATOM      4  C   UNL     1       3.805   2.449  18.221  0.00  0.00    +0.000 C 
ATOM      5  C   UNL     1       2.420   3.042  17.957  0.00  0.00    +0.000 C 
ATOM      6  C   UNL     1       2.391   4.246  18.885  0.00  0.00    +0.000 C 
ATOM      7  C   UNL     1       3.053   5.457  18.088  0.00  0.00    +0.000 C 
ATOM      8  C   UNL     1       4.628   5.444  18.045  0.00  0.00    +0.000 C 
ATOM      9  C   UNL     1       5.179   4.565  19.181  0.00  0.00    +0.000 C 
ENDROOT
BRANCH   8  10
ATOM     10  C   UNL     1       5.422   5.062  16.788  0.00  0.00    +0.000 A 
ATOM     11  C   UNL     1       6.803   5.197  16.625  0.00  0.00    +0.000 A 
ATOM     12  C   UNL     1       7.399   4.981  15.372  0.00  0.00    +0.000 A 
ATOM     13  C   UNL     1       6.628   4.596  14.277  0.00  0.00    +0.000 A 
ATOM     14 CL   UNL     1       7.367   4.337  12.744  0.00  0.00    +0.000 Cl
ATOM     15  C   UNL     1       5.260   4.422  14.417  0.00  0.00    +0.000 A 
ATOM     16  C   UNL     1       4.670   4.643  15.662  0.00  0.00    +0.000 A 
ENDBRANCH   8  10
BRANCH   7  17
ATOM     17  C   UNL     1       2.539   6.783  18.586  0.00  0.00    +0.000 A 
ATOM     18  N   UNL     1       1.920   7.061  19.714  0.00  0.00    +0.000 NA
ATOM     19  C   UNL     1       1.621   8.399  19.595  0.00  0.00    +0.000 A 
ATOM     20  N   UNL     1       2.053   8.930  18.434  0.00  0.00    +0.000 NA
ATOM     21  O   UNL     1       2.658   7.862  17.773  0.00  0.00    +0.000 OA
BRANCH  19  22
ATOM     22  C   UNL     1       0.926   9.164  20.627  0.00  0.00    +0.000 A 
ATOM     23  C   UNL     1       0.150  10.288  20.306  0.00  0.00    +0.000 A 
ATOM     24  C   UNL     1      -0.537  11.002  21.299  0.00  0.00    +0.000 A 
ATOM     25  C   UNL     1      -0.454  10.599  22.625  0.00  0.00    +0.000 A 
ATOM     26  C   UNL     1       0.311   9.490  22.970  0.00  0.00    +0.000 A 
ATOM     27  C   UNL     1       0.995   8.780  21.973  0.00  0.00    +0.000 A 
ENDBRANCH  19  22
ENDBRANCH   7  17
TORSDOF 3
ENDMDL
MODEL 3
REMARK VINA RESULT:      -9.2      4.864      6.571
REMARK  Name = 
REMARK  4 active torsions:
REMARK  status: ('A' for Active; 'I' for Inactive)
REMARK    1  A    between atoms: C_1  and  N_2
REMARK    2  A    between atoms: C_7  and  C_8
REMARK    3  A    between atoms: C_10  and  C_11
REMARK    4  A    between atoms: C_19  and  C_20
REMARK                            x       y       z     vdW  Elec       q    Type
REMARK                         _______ _______ _______ _____ _____    ______ ____
ROOT
ATOM      1  C   UNL     1       7.469   5.070  14.046  0.00  0.00    +0.000 C 
ATOM      2  N   UNL     1       6.856   5.775  15.175  0.00  0.00    +0.000 NA
ATOM      3  C   UNL     1       5.532   5.185  15.412  0.00  0.00    +0.000 C 
ATOM      4  C   UNL     1       5.883   3.933  16.257  0.00  0.00    +0.000 C 
ATOM      5  C   UNL     1       7.237   4.226  16.907  0.00  0.00    +0.000 C 
ATOM      6  C   UNL     1       7.485   5.675  16.519  0.00  0.00    +0.000 C 
ATOM      7  C   UNL     1       6.768   6.576  17.621  0.00  0.00    +0.000 C 
ATOM      8  C   UNL     1       5.210   6.726  17.449  0.00  0.00    +0.000 C 
ATOM      9  C   UNL     1       4.806   6.394  16.002  0.00  0.00    +0.000 C 
ENDROOT
BRANCH   8  10
ATOM     10  C   UNL     1       4.200   6.002  18.350  0.00  0.00    +0.000 A 
ATOM     11  C   UNL     1       4.515   5.211  19.456  0.00  0.00    +0.000 A 
ATOM     12  C   UNL     1       3.523   4.455  20.102  0.00  0.00    +0.000 A 
ATOM     13  C   UNL     1       2.199   4.508  19.670  0.00  0.00    +0.000 A 
ATOM     14 CL   UNL     1       0.989   3.577  20.465  0.00  0.00    +0.000 Cl
ATOM     15  C   UNL     1       1.850   5.312  18.596  0.00  0.00    +0.000 A 
ATOM     16  C   UNL     1       2.840   6.056  17.953  0.00  0.00    +0.000 A 
ENDBRANCH   8  10
BRANCH   7  17
ATOM     17  C   UNL     1       7.431   7.924  17.737  0.00  0.00    +0.000 A 
ATOM     18  N   UNL     1       8.418   8.298  18.524  0.00  0.00    +0.000 NA
ATOM     19  C   UNL     1       8.550   9.642  18.256  0.00  0.00    +0.000 A 
ATOM     20  N   UNL     1       7.677  10.078  17.326  0.00  0.00    +0.000 NA
ATOM     21  O   UNL     1       6.943   8.943  16.986  0.00  0.00    +0.000 OA
BRANCH  19  22
ATOM     22  C   UNL     1       9.543  10.497  18.901  0.00  0.00    +0.000 A 
ATOM     23  C   UNL     1       9.421  10.873  20.248  0.00  0.00    +0.000 A 
ATOM     24  C   UNL     1      10.393  11.672  20.868  0.00  0.00    +0.000 A 
ATOM     25  C   UNL     1      11.496  12.105  20.147  0.00  0.00    +0.000 A 
ATOM     26  C   UNL     1      11.640  11.749  18.810  0.00  0.00    +0.000 A 
ATOM     27  C   UNL     1      10.666  10.949  18.195  0.00  0.00    +0.000 A 
ENDBRANCH  19  22
ENDBRANCH   7  17
TORSDOF 3
ENDMDL
MODEL 4
REMARK VINA RESULT:      -9.1      0.252      1.330
REMARK  Name = 
REMARK  4 active torsions:
REMARK  status: ('A' for Active; 'I' for Inactive)
REMARK    1  A    between atoms: C_1  and  N_2
REMARK    2  A    between atoms: C_7  and  C_8
REMARK    3  A    between atoms: C_10  and  C_11
REMARK    4  A    between atoms: C_19  and  C_20
REMARK                            x       y       z     vdW  Elec       q    Type
REMARK                         _______ _______ _______ _____ _____    ______ ____
ROOT
ATOM      1  C   UNL     1       1.951   1.786  19.157  0.00  0.00    +0.000 C 
ATOM      2  N   UNL     1       2.333   3.113  18.665  0.00  0.00    +0.000 NA
ATOM      3  C   UNL     1       1.207   4.024  18.900  0.00  0.00    +0.000 C 
ATOM      4  C   UNL     1       1.408   4.410  20.388  0.00  0.00    +0.000 C 
ATOM      5  C   UNL     1       2.890   4.178  20.690  0.00  0.00    +0.000 C 
ATOM      6  C   UNL     1       3.457   3.832  19.321  0.00  0.00    +0.000 C 
ATOM      7  C   UNL     1       3.824   5.212  18.614  0.00  0.00    +0.000 C 
ATOM      8  C   UNL     1       2.603   5.985  17.987  0.00  0.00    +0.000 C 
ATOM      9  C   UNL     1       1.429   5.018  17.759  0.00  0.00    +0.000 C 
ENDROOT
BRANCH   8  10
ATOM     10  C   UNL     1       2.000   7.245  18.624  0.00  0.00    +0.000 A 
ATOM     11  C   UNL     1       1.613   8.398  17.939  0.00  0.00    +0.000 A 
ATOM     12  C   UNL     1       1.238   9.555  18.641  0.00  0.00    +0.000 A 
ATOM     13  C   UNL     1       1.213   9.562  20.034  0.00  0.00    +0.000 A 
ATOM     14 CL   UNL     1       0.754  10.984  20.887  0.00  0.00    +0.000 Cl
ATOM     15  C   UNL     1       1.559   8.421  20.741  0.00  0.00    +0.000 A 
ATOM     16  C   UNL     1       1.938   7.275  20.040  0.00  0.00    +0.000 A 
ENDBRANCH   8  10
BRANCH   7  17
ATOM     17  C   UNL     1       4.924   5.028  17.600  0.00  0.00    +0.000 A 
ATOM     18  N   UNL     1       4.843   4.987  16.287  0.00  0.00    +0.000 NA
ATOM     19  C   UNL     1       6.135   4.723  15.893  0.00  0.00    +0.000 A 
ATOM     20  N   UNL     1       6.986   4.616  16.933  0.00  0.00    +0.000 NA
ATOM     21  O   UNL     1       6.185   4.819  18.055  0.00  0.00    +0.000 OA
BRANCH  19  22
ATOM     22  C   UNL     1       6.540   4.591  14.496  0.00  0.00    +0.000 A 
ATOM     23  C   UNL     1       7.613   5.328  13.973  0.00  0.00    +0.000 A 
ATOM     24  C   UNL     1       8.013   5.176  12.638  0.00  0.00    +0.000 A 
ATOM     25  C   UNL     1       7.343   4.286  11.810  0.00  0.00    +0.000 A 
ATOM     26  C   UNL     1       6.275   3.545  12.304  0.00  0.00    +0.000 A 
ATOM     27  C   UNL     1       5.879   3.700  13.640  0.00  0.00    +0.000 A 
ENDBRANCH  19  22
ENDBRANCH   7  17
TORSDOF 3
ENDMDL
MODEL 5
REMARK VINA RESULT:      -9.0      3.395      7.955
REMARK  Name = 
REMARK  4 active torsions:
REMARK  status: ('A' for Active; 'I' for Inactive)
REMARK    1  A    between atoms: C_1  and  N_2
REMARK    2  A    between atoms: C_7  and  C_8
REMARK    3  A    between atoms: C_10  and  C_11
REMARK    4  A    between atoms: C_19  and  C_20
REMARK                            x       y       z     vdW  Elec       q    Type
REMARK                         _______ _______ _______ _____ _____    ______ ____
ROOT
ATOM      1  C   UNL     1       2.373   3.244  20.906  0.00  0.00    +0.000 C 
ATOM      2  N   UNL     1       2.912   4.350  20.110  0.00  0.00    +0.000 NA
ATOM      3  C   UNL     1       4.145   3.885  19.465  0.00  0.00    +0.000 C 
ATOM      4  C   UNL     1       3.597   3.131  18.226  0.00  0.00    +0.000 C 
ATOM      5  C   UNL     1       2.208   3.713  17.956  0.00  0.00    +0.000 C 
ATOM      6  C   UNL     1       2.128   4.858  18.953  0.00  0.00    +0.000 C 
ATOM      7  C   UNL     1       2.788   6.127  18.250  0.00  0.00    +0.000 C 
ATOM      8  C   UNL     1       4.363   6.145  18.252  0.00  0.00    +0.000 C 
ATOM      9  C   UNL     1       4.899   5.211  19.350  0.00  0.00    +0.000 C 
ENDROOT
BRANCH   8  10
ATOM     10  C   UNL     1       5.200   5.855  16.999  0.00  0.00    +0.000 A 
ATOM     11  C   UNL     1       4.865   6.218  15.693  0.00  0.00    +0.000 A 
ATOM     12  C   UNL     1       5.617   5.747  14.604  0.00  0.00    +0.000 A 
ATOM     13  C   UNL     1       6.733   4.938  14.811  0.00  0.00    +0.000 A 
ATOM     14 CL   UNL     1       7.648   4.365  13.471  0.00  0.00    +0.000 Cl
ATOM     15  C   UNL     1       7.110   4.591  16.098  0.00  0.00    +0.000 A 
ATOM     16  C   UNL     1       6.357   5.054  17.176  0.00  0.00    +0.000 A 
ENDBRANCH   8  10
BRANCH   7  17
ATOM     17  C   UNL     1       2.233   7.411  18.810  0.00  0.00    +0.000 A 
ATOM     18  N   UNL     1       1.606   7.615  19.950  0.00  0.00    +0.000 NA
ATOM     19  C   UNL     1       1.266   8.947  19.895  0.00  0.00    +0.000 A 
ATOM     20  N   UNL     1       1.680   9.546  18.760  0.00  0.00    +0.000 NA
ATOM     21  O   UNL     1       2.317   8.531  18.050  0.00  0.00    +0.000 OA
BRANCH  19  22
ATOM     22  C   UNL     1       0.548   9.640  20.962  0.00  0.00    +0.000 A 
ATOM     23  C   UNL     1      -0.054  10.889  20.747  0.00  0.00    +0.000 A 
ATOM     24  C   UNL     1      -0.764  11.536  21.769  0.00  0.00    +0.000 A 
ATOM     25  C   UNL     1      -0.880  10.940  23.017  0.00  0.00    +0.000 A 
ATOM     26  C   UNL     1      -0.291   9.702  23.256  0.00  0.00    +0.000 A 
ATOM     27  C   UNL     1       0.418   9.061  22.231  0.00  0.00    +0.000 A 
ENDBRANCH  19  22
ENDBRANCH   7  17
TORSDOF 3
ENDMDL
MODEL 6
REMARK VINA RESULT:      -8.8      3.351      7.894
REMARK  Name = 
REMARK  4 active torsions:
REMARK  status: ('A' for Active; 'I' for Inactive)
REMARK    1  A    between atoms: C_1  and  N_2
REMARK    2  A    between atoms: C_7  and  C_8
REMARK    3  A    between atoms: C_10  and  C_11
REMARK    4  A    between atoms: C_19  and  C_20
REMARK                            x       y       z     vdW  Elec       q    Type
REMARK                         _______ _______ _______ _____ _____    ______ ____
ROOT
ATOM      1  C   UNL     1       2.344   3.163  21.135  0.00  0.00    +0.000 C 
ATOM      2  N   UNL     1       2.851   4.216  20.251  0.00  0.00    +0.000 NA
ATOM      3  C   UNL     1       4.024   3.688  19.544  0.00  0.00    +0.000 C 
ATOM      4  C   UNL     1       3.370   2.893  18.383  0.00  0.00    +0.000 C 
ATOM      5  C   UNL     1       1.979   3.500  18.185  0.00  0.00    +0.000 C 
ATOM      6  C   UNL     1       2.000   4.692  19.129  0.00  0.00    +0.000 C 
ATOM      7  C   UNL     1       2.638   5.908  18.322  0.00  0.00    +0.000 C 
ATOM      8  C   UNL     1       4.209   5.883  18.212  0.00  0.00    +0.000 C 
ATOM      9  C   UNL     1       4.800   4.985  19.312  0.00  0.00    +0.000 C 
ENDROOT
BRANCH   8  10
ATOM     10  C   UNL     1       4.947   5.513  16.918  0.00  0.00    +0.000 A 
ATOM     11  C   UNL     1       5.048   6.315  15.779  0.00  0.00    +0.000 A 
ATOM     12  C   UNL     1       5.596   5.804  14.591  0.00  0.00    +0.000 A 
ATOM     13  C   UNL     1       6.081   4.499  14.538  0.00  0.00    +0.000 A 
ATOM     14 CL   UNL     1       6.749   3.882  13.078  0.00  0.00    +0.000 Cl
ATOM     15  C   UNL     1       6.026   3.691  15.663  0.00  0.00    +0.000 A 
ATOM     16  C   UNL     1       5.475   4.200  16.839  0.00  0.00    +0.000 A 
ENDBRANCH   8  10
BRANCH   7  17
ATOM     17  C   UNL     1       2.156   7.231  18.859  0.00  0.00    +0.000 A 
ATOM     18  N   UNL     1       1.498   7.485  19.970  0.00  0.00    +0.000 NA
ATOM     19  C   UNL     1       1.260   8.839  19.901  0.00  0.00    +0.000 A 
ATOM     20  N   UNL     1       1.767   9.402  18.786  0.00  0.00    +0.000 NA
ATOM     21  O   UNL     1       2.357   8.340  18.103  0.00  0.00    +0.000 OA
BRANCH  19  22
ATOM     22  C   UNL     1       0.550   9.586  20.936  0.00  0.00    +0.000 A 
ATOM     23  C   UNL     1       0.278   9.018  22.190  0.00  0.00    +0.000 A 
ATOM     24  C   UNL     1      -0.380   9.751  23.189  0.00  0.00    +0.000 A 
ATOM     25  C   UNL     1      -0.775  11.058  22.942  0.00  0.00    +0.000 A 
ATOM     26  C   UNL     1      -0.520  11.643  21.706  0.00  0.00    +0.000 A 
ATOM     27  C   UNL     1       0.139  10.906  20.712  0.00  0.00    +0.000 A 
ENDBRANCH  19  22
ENDBRANCH   7  17
TORSDOF 3
ENDMDL
MODEL 7
REMARK VINA RESULT:      -8.8      4.452      6.252
REMARK  Name = 
REMARK  4 active torsions:
REMARK  status: ('A' for Active; 'I' for Inactive)
REMARK    1  A    between atoms: C_1  and  N_2
REMARK    2  A    between atoms: C_7  and  C_8
REMARK    3  A    between atoms: C_10  and  C_11
REMARK    4  A    between atoms: C_19  and  C_20
REMARK                            x       y       z     vdW  Elec       q    Type
REMARK                         _______ _______ _______ _____ _____    ______ ____
ROOT
ATOM      1  C   UNL     1       7.457   5.292  13.729  0.00  0.00    +0.000 C 
ATOM      2  N   UNL     1       6.858   5.817  14.959  0.00  0.00    +0.000 NA
ATOM      3  C   UNL     1       5.472   5.339  15.027  0.00  0.00    +0.000 C 
ATOM      4  C   UNL     1       5.651   3.911  15.607  0.00  0.00    +0.000 C 
ATOM      5  C   UNL     1       6.991   3.919  16.345  0.00  0.00    +0.000 C 
ATOM      6  C   UNL     1       7.402   5.381  16.272  0.00  0.00    +0.000 C 
ATOM      7  C   UNL     1       6.722   6.113  17.514  0.00  0.00    +0.000 C 
ATOM      8  C   UNL     1       5.197   6.463  17.327  0.00  0.00    +0.000 C 
ATOM      9  C   UNL     1       4.839   6.475  15.831  0.00  0.00    +0.000 C 
ENDROOT
BRANCH   8  10
ATOM     10  C   UNL     1       4.074   5.686  18.027  0.00  0.00    +0.000 A 
ATOM     11  C   UNL     1       2.705   5.879  17.830  0.00  0.00    +0.000 A 
ATOM     12  C   UNL     1       1.766   5.235  18.653  0.00  0.00    +0.000 A 
ATOM     13  C   UNL     1       2.183   4.366  19.659  0.00  0.00    +0.000 A 
ATOM     14 CL   UNL     1       1.026   3.584  20.664  0.00  0.00    +0.000 Cl
ATOM     15  C   UNL     1       3.535   4.129  19.856  0.00  0.00    +0.000 A 
ATOM     16  C   UNL     1       4.464   4.775  19.041  0.00  0.00    +0.000 A 
ENDBRANCH   8  10
BRANCH   7  17
ATOM     17  C   UNL     1       7.508   7.330  17.926  0.00  0.00    +0.000 A 
ATOM     18  N   UNL     1       7.513   8.534  17.392  0.00  0.00    +0.000 NA
ATOM     19  C   UNL     1       8.466   9.205  18.123  0.00  0.00    +0.000 A 
ATOM     20  N   UNL     1       9.023   8.441  19.084  0.00  0.00    +0.000 NA
ATOM     21  O   UNL     1       8.388   7.207  18.951  0.00  0.00    +0.000 OA
BRANCH  19  22
ATOM     22  C   UNL     1       8.822  10.603  17.891  0.00  0.00    +0.000 A 
ATOM     23  C   UNL     1       7.845  11.568  17.601  0.00  0.00    +0.000 A 
ATOM     24  C   UNL     1       8.190  12.913  17.406  0.00  0.00    +0.000 A 
ATOM     25  C   UNL     1       9.518  13.307  17.498  0.00  0.00    +0.000 A 
ATOM     26  C   UNL     1      10.506  12.370  17.783  0.00  0.00    +0.000 A 
ATOM     27  C   UNL     1      10.154  11.027  17.977  0.00  0.00    +0.000 A 
ENDBRANCH  19  22
ENDBRANCH   7  17
TORSDOF 3
ENDMDL
MODEL 8
REMARK VINA RESULT:      -8.7      3.242      7.188
REMARK  Name = 
REMARK  4 active torsions:
REMARK  status: ('A' for Active; 'I' for Inactive)
REMARK    1  A    between atoms: C_1  and  N_2
REMARK    2  A    between atoms: C_7  and  C_8
REMARK    3  A    between atoms: C_10  and  C_11
REMARK    4  A    between atoms: C_19  and  C_20
REMARK                            x       y       z     vdW  Elec       q    Type
REMARK                         _______ _______ _______ _____ _____    ______ ____
ROOT
ATOM      1  C   UNL     1       2.275   2.535  20.740  0.00  0.00    +0.000 C 
ATOM      2  N   UNL     1       2.879   3.647  20.001  0.00  0.00    +0.000 NA
ATOM      3  C   UNL     1       4.133   3.168  19.407  0.00  0.00    +0.000 C 
ATOM      4  C   UNL     1       3.631   2.458  18.123  0.00  0.00    +0.000 C 
ATOM      5  C   UNL     1       2.271   3.080  17.798  0.00  0.00    +0.000 C 
ATOM      6  C   UNL     1       2.167   4.202  18.819  0.00  0.00    +0.000 C 
ATOM      7  C   UNL     1       2.891   5.471  18.183  0.00  0.00    +0.000 C 
ATOM      8  C   UNL     1       4.464   5.451  18.266  0.00  0.00    +0.000 C 
ATOM      9  C   UNL     1       4.922   4.477  19.364  0.00  0.00    +0.000 C 
ENDROOT
BRANCH   8  10
ATOM     10  C   UNL     1       5.357   5.172  17.049  0.00  0.00    +0.000 A 
ATOM     11  C   UNL     1       6.746   5.313  17.008  0.00  0.00    +0.000 A 
ATOM     12  C   UNL     1       7.441   5.199  15.793  0.00  0.00    +0.000 A 
ATOM     13  C   UNL     1       6.761   4.909  14.612  0.00  0.00    +0.000 A 
ATOM     14 CL   UNL     1       7.621   4.774  13.127  0.00  0.00    +0.000 Cl
ATOM     15  C   UNL     1       5.387   4.730  14.628  0.00  0.00    +0.000 A 
ATOM     16  C   UNL     1       4.699   4.850  15.835  0.00  0.00    +0.000 A 
ENDBRANCH   8  10
BRANCH   7  17
ATOM     17  C   UNL     1       2.338   6.754  18.748  0.00  0.00    +0.000 A 
ATOM     18  N   UNL     1       2.045   7.875  18.125  0.00  0.00    +0.000 NA
ATOM     19  C   UNL     1       1.656   8.716  19.143  0.00  0.00    +0.000 A 
ATOM     20  N   UNL     1       1.700   8.126  20.354  0.00  0.00    +0.000 NA
ATOM     21  O   UNL     1       2.147   6.833  20.089  0.00  0.00    +0.000 OA
BRANCH  19  22
ATOM     22  C   UNL     1       1.227  10.096  18.928  0.00  0.00    +0.000 A 
ATOM     23  C   UNL     1       2.121  11.079  18.478  0.00  0.00    +0.000 A 
ATOM     24  C   UNL     1       1.695  12.395  18.248  0.00  0.00    +0.000 A 
ATOM     25  C   UNL     1       0.370  12.743  18.468  0.00  0.00    +0.000 A 
ATOM     26  C   UNL     1      -0.537  11.787  18.916  0.00  0.00    +0.000 A 
ATOM     27  C   UNL     1      -0.106  10.473  19.144  0.00  0.00    +0.000 A 
ENDBRANCH  19  22
ENDBRANCH   7  17
TORSDOF 3
ENDMDL
MODEL 9
REMARK VINA RESULT:      -8.7      3.279      7.182
REMARK  Name = 
REMARK  4 active torsions:
REMARK  status: ('A' for Active; 'I' for Inactive)
REMARK    1  A    between atoms: C_1  and  N_2
REMARK    2  A    between atoms: C_7  and  C_8
REMARK    3  A    between atoms: C_10  and  C_11
REMARK    4  A    between atoms: C_19  and  C_20
REMARK                            x       y       z     vdW  Elec       q    Type
REMARK                         _______ _______ _______ _____ _____    ______ ____
ROOT
ATOM      1  C   UNL     1       1.777   2.732  20.892  0.00  0.00    +0.000 C 
ATOM      2  N   UNL     1       2.472   3.818  20.195  0.00  0.00    +0.000 NA
ATOM      3  C   UNL     1       3.728   3.280  19.658  0.00  0.00    +0.000 C 
ATOM      4  C   UNL     1       3.254   2.607  18.343  0.00  0.00    +0.000 C 
ATOM      5  C   UNL     1       1.945   3.302  17.960  0.00  0.00    +0.000 C 
ATOM      6  C   UNL     1       1.849   4.419  18.987  0.00  0.00    +0.000 C 
ATOM      7  C   UNL     1       2.668   5.654  18.400  0.00  0.00    +0.000 C 
ATOM      8  C   UNL     1       4.231   5.552  18.559  0.00  0.00    +0.000 C 
ATOM      9  C   UNL     1       4.584   4.546  19.667  0.00  0.00    +0.000 C 
ENDROOT
BRANCH   8  10
ATOM     10  C   UNL     1       5.168   5.237  17.384  0.00  0.00    +0.000 A 
ATOM     11  C   UNL     1       6.462   4.722  17.489  0.00  0.00    +0.000 A 
ATOM     12  C   UNL     1       7.292   4.639  16.359  0.00  0.00    +0.000 A 
ATOM     13  C   UNL     1       6.827   5.036  15.107  0.00  0.00    +0.000 A 
ATOM     14 CL   UNL     1       7.852   4.932  13.729  0.00  0.00    +0.000 Cl
ATOM     15  C   UNL     1       5.536   5.519  14.967  0.00  0.00    +0.000 A 
ATOM     16  C   UNL     1       4.716   5.606  16.092  0.00  0.00    +0.000 A 
ENDBRANCH   8  10
BRANCH   7  17
ATOM     17  C   UNL     1       2.154   6.959  18.952  0.00  0.00    +0.000 A 
ATOM     18  N   UNL     1       1.976   8.108  18.334  0.00  0.00    +0.000 NA
ATOM     19  C   UNL     1       1.566   8.953  19.339  0.00  0.00    +0.000 A 
ATOM     20  N   UNL     1       1.484   8.340  20.537  0.00  0.00    +0.000 NA
ATOM     21  O   UNL     1       1.870   7.027  20.277  0.00  0.00    +0.000 OA
BRANCH  19  22
ATOM     22  C   UNL     1       1.239  10.361  19.124  0.00  0.00    +0.000 A 
ATOM     23  C   UNL     1       0.088  10.937  19.683  0.00  0.00    +0.000 A 
ATOM     24  C   UNL     1      -0.206  12.296  19.494  0.00  0.00    +0.000 A 
ATOM     25  C   UNL     1       0.648  13.092  18.744  0.00  0.00    +0.000 A 
ATOM     26  C   UNL     1       1.794  12.544  18.177  0.00  0.00    +0.000 A 
ATOM     27  C   UNL     1       2.083  11.185  18.369  0.00  0.00    +0.000 A 
ENDBRANCH  19  22
ENDBRANCH   7  17
TORSDOF 3
ENDMDL
