MODEL 1
REMARK VINA RESULT:      -6.9      0.000      0.000
REMARK  Name = 
REMARK  10 active torsions:
REMARK  status: ('A' for Active; 'I' for Inactive)
REMARK    1  A    between atoms: C_1  and  C_2
REMARK    2  A    between atoms: C_2  and  C_3
REMARK    3  A    between atoms: C_3  and  N_4
REMARK    4  A    between atoms: C_5  and  C_7
REMARK    5  A    between atoms: C_11  and  C_13
REMARK    6  A    between atoms: C_17  and  C_18
REMARK    7  A    between atoms: N_21  and  C_22
REMARK    8  A    between atoms: C_22  and  C_23
REMARK    9  A    between atoms: C_26  and  O_27
REMARK   10  A    between atoms: O_27  and  C_28
REMARK                            x       y       z     vdW  Elec       q    Type
REMARK                         _______ _______ _______ _____ _____    ______ ____
ROOT
ATOM      1  C   UNL     1      -0.950  11.868  18.643  0.00  0.00    +0.000 A 
ATOM      2  C   UNL     1      -0.495  13.068  18.106  0.00  0.00    +0.000 A 
ATOM      3  C   UNL     1       0.516  13.549  18.969  0.00  0.00    +0.000 A 
ATOM      4  S   UNL     1       1.511  14.949  19.139  0.00  0.00    +0.000 S 
ATOM      5  C   UNL     1       2.298  14.228  20.485  0.00  0.00    +0.000 A 
ATOM      6  C   UNL     1       3.377  14.989  21.182  0.00  0.00    +0.000 C 
ATOM      7  C   UNL     1       1.833  12.959  20.784  0.00  0.00    +0.000 A 
ATOM      8  C   UNL     1       0.763  12.602  19.912  0.00  0.00    +0.000 A 
ATOM      9  N   UNL     1      -0.105  11.541  19.699  0.00  0.00    +0.000 N 
ENDROOT
BRANCH   1  14
ATOM     10  C   UNL     1      -6.060  12.394  18.859  0.00  0.00    +0.000 C 
ATOM     11  C   UNL     1      -5.663  11.545  17.640  0.00  0.00    +0.000 C 
ATOM     12  C   UNL     1      -4.458  10.633  17.895  0.00  0.00    +0.000 C 
ATOM     13  N   UNL     1      -3.354  11.370  18.505  0.00  0.00    +0.000 N 
ATOM     14  C   UNL     1      -2.042  11.039  18.132  0.00  0.00    +0.000 C 
ATOM     15  O   UNL     1      -1.824  10.106  17.359  0.00  0.00    +0.000 OA
ATOM     16  C   UNL     1      -3.717  12.051  19.749  0.00  0.00    +0.000 C 
ATOM     17  C   UNL     1      -4.828  13.065  19.483  0.00  0.00    +0.000 C 
BRANCH  10  19
ATOM     18  N   UNL     1      -7.251  12.292  20.985  0.00  0.00    +0.000 N 
ATOM     19  C   UNL     1      -6.822  11.569  19.891  0.00  0.00    +0.000 C 
ATOM     20  O   UNL     1      -7.029  10.366  19.770  0.00  0.00    +0.000 OA
ATOM     21  H   UNL     1      -7.091  13.289  21.031  0.00  0.00    +0.000 HD
BRANCH  18  22
ATOM     22  C   UNL     1      -7.916  11.647  22.102  0.00  0.00    +0.000 C 
BRANCH  22  24
ATOM     23  C   UNL     1      -6.267  13.067  23.369  0.00  0.00    +0.000 C 
ATOM     24  C   UNL     1      -7.610  12.358  23.418  0.00  0.00    +0.000 C 
ENDBRANCH  22  24
ENDBRANCH  18  22
ENDBRANCH  10  19
ENDBRANCH   1  14
BRANCH   9  25
ATOM     25  C   UNL     1       0.016  10.266  20.398  0.00  0.00    +0.000 C 
BRANCH  25  26
ATOM     26  C   UNL     1       0.999   9.303  19.775  0.00  0.00    +0.000 A 
ATOM     27  C   UNL     1       1.421   8.162  20.470  0.00  0.00    +0.000 A 
ATOM     28  C   UNL     1       2.239   7.211  19.849  0.00  0.00    +0.000 A 
ATOM     29  C   UNL     1       2.640   7.378  18.523  0.00  0.00    +0.000 A 
ATOM     30  C   UNL     1       2.269   8.533  17.839  0.00  0.00    +0.000 A 
ATOM     31  C   UNL     1       1.452   9.486  18.460  0.00  0.00    +0.000 A 
BRANCH  29  32
ATOM     32  O   UNL     1       3.418   6.378  18.005  0.00  0.00    +0.000 OA
ATOM     33  C   UNL     1       4.471   6.811  17.148  0.00  0.00    +0.000 C 
ENDBRANCH  29  32
ENDBRANCH  25  26
ENDBRANCH   9  25
TORSDOF 7
ENDMDL
MODEL 2
REMARK VINA RESULT:      -6.6      3.207      9.244
REMARK  Name = 
REMARK  10 active torsions:
REMARK  status: ('A' for Active; 'I' for Inactive)
REMARK    1  A    between atoms: C_1  and  C_2
REMARK    2  A    between atoms: C_2  and  C_3
REMARK    3  A    between atoms: C_3  and  N_4
REMARK    4  A    between atoms: C_5  and  C_7
REMARK    5  A    between atoms: C_11  and  C_13
REMARK    6  A    between atoms: C_17  and  C_18
REMARK    7  A    between atoms: N_21  and  C_22
REMARK    8  A    between atoms: C_22  and  C_23
REMARK    9  A    between atoms: C_26  and  O_27
REMARK   10  A    between atoms: O_27  and  C_28
REMARK                            x       y       z     vdW  Elec       q    Type
REMARK                         _______ _______ _______ _____ _____    ______ ____
ROOT
ATOM      1  C   UNL     1       1.328   8.930  19.511  0.00  0.00    +0.000 A 
ATOM      2  C   UNL     1       1.153   8.435  20.799  0.00  0.00    +0.000 A 
ATOM      3  C   UNL     1       0.365   9.376  21.501  0.00  0.00    +0.000 A 
ATOM      4  S   UNL     1      -0.227   9.627  23.102  0.00  0.00    +0.000 S 
ATOM      5  C   UNL     1      -1.068  11.029  22.572  0.00  0.00    +0.000 A 
ATOM      6  C   UNL     1      -1.864  11.811  23.565  0.00  0.00    +0.000 C 
ATOM      7  C   UNL     1      -0.919  11.286  21.221  0.00  0.00    +0.000 A 
ATOM      8  C   UNL     1      -0.044  10.332  20.625  0.00  0.00    +0.000 A 
ATOM      9  N   UNL     1       0.509  10.048  19.384  0.00  0.00    +0.000 N 
ENDROOT
BRANCH   1  14
ATOM     10  C   UNL     1       3.254   4.204  18.897  0.00  0.00    +0.000 C 
ATOM     11  C   UNL     1       3.058   4.881  17.530  0.00  0.00    +0.000 C 
ATOM     12  C   UNL     1       3.341   6.387  17.546  0.00  0.00    +0.000 C 
ATOM     13  N   UNL     1       2.652   7.045  18.653  0.00  0.00    +0.000 N 
ATOM     14  C   UNL     1       2.132   8.332  18.445  0.00  0.00    +0.000 C 
ATOM     15  O   UNL     1       2.309   8.918  17.377  0.00  0.00    +0.000 OA
ATOM     16  C   UNL     1       2.970   6.479  19.964  0.00  0.00    +0.000 C 
ATOM     17  C   UNL     1       2.566   5.007  20.010  0.00  0.00    +0.000 C 
BRANCH  10  19
ATOM     18  N   UNL     1       5.562   4.976  18.720  0.00  0.00    +0.000 N 
ATOM     19  C   UNL     1       4.733   3.987  19.207  0.00  0.00    +0.000 C 
ATOM     20  O   UNL     1       5.154   3.015  19.825  0.00  0.00    +0.000 OA
ATOM     21  H   UNL     1       5.171   5.779  18.246  0.00  0.00    +0.000 HD
BRANCH  18  22
ATOM     22  C   UNL     1       7.004   4.884  18.849  0.00  0.00    +0.000 C 
BRANCH  22  24
ATOM     23  C   UNL     1       7.034   6.955  17.418  0.00  0.00    +0.000 C 
ATOM     24  C   UNL     1       7.673   6.231  18.590  0.00  0.00    +0.000 C 
ENDBRANCH  22  24
ENDBRANCH  18  22
ENDBRANCH  10  19
ENDBRANCH   1  14
BRANCH   9  25
ATOM     25  C   UNL     1       0.121  10.750  18.166  0.00  0.00    +0.000 C 
BRANCH  25  26
ATOM     26  C   UNL     1      -1.370  10.809  17.926  0.00  0.00    +0.000 A 
ATOM     27  C   UNL     1      -2.069   9.677  17.484  0.00  0.00    +0.000 A 
ATOM     28  C   UNL     1      -3.464   9.698  17.376  0.00  0.00    +0.000 A 
ATOM     29  C   UNL     1      -4.185  10.844  17.715  0.00  0.00    +0.000 A 
ATOM     30  C   UNL     1      -3.497  11.990  18.106  0.00  0.00    +0.000 A 
ATOM     31  C   UNL     1      -2.101  11.971  18.213  0.00  0.00    +0.000 A 
BRANCH  29  32
ATOM     32  O   UNL     1      -5.545  10.750  17.595  0.00  0.00    +0.000 OA
ATOM     33  C   UNL     1      -6.266  10.783  18.824  0.00  0.00    +0.000 C 
ENDBRANCH  29  32
ENDBRANCH  25  26
ENDBRANCH   9  25
TORSDOF 7
ENDMDL
MODEL 3
REMARK VINA RESULT:      -6.5      3.922      8.048
REMARK  Name = 
REMARK  10 active torsions:
REMARK  status: ('A' for Active; 'I' for Inactive)
REMARK    1  A    between atoms: C_1  and  C_2
REMARK    2  A    between atoms: C_2  and  C_3
REMARK    3  A    between atoms: C_3  and  N_4
REMARK    4  A    between atoms: C_5  and  C_7
REMARK    5  A    between atoms: C_11  and  C_13
REMARK    6  A    between atoms: C_17  and  C_18
REMARK    7  A    between atoms: N_21  and  C_22
REMARK    8  A    between atoms: C_22  and  C_23
REMARK    9  A    between atoms: C_26  and  O_27
REMARK   10  A    between atoms: O_27  and  C_28
REMARK                            x       y       z     vdW  Elec       q    Type
REMARK                         _______ _______ _______ _____ _____    ______ ____
ROOT
ATOM      1  C   UNL     1       0.238  11.758  19.616  0.00  0.00    +0.000 A 
ATOM      2  C   UNL     1      -1.122  12.004  19.768  0.00  0.00    +0.000 A 
ATOM      3  C   UNL     1      -1.778  11.386  18.678  0.00  0.00    +0.000 A 
ATOM      4  S   UNL     1      -3.371  11.270  18.026  0.00  0.00    +0.000 S 
ATOM      5  C   UNL     1      -2.795  10.209  16.804  0.00  0.00    +0.000 A 
ATOM      6  C   UNL     1      -3.760   9.680  15.794  0.00  0.00    +0.000 C 
ATOM      7  C   UNL     1      -1.442   9.937  16.899  0.00  0.00    +0.000 A 
ATOM      8  C   UNL     1      -0.861  10.669  17.976  0.00  0.00    +0.000 A 
ATOM      9  N   UNL     1       0.381  10.855  18.567  0.00  0.00    +0.000 N 
ENDROOT
BRANCH   1  14
ATOM     10  C   UNL     1       3.388  15.794  19.157  0.00  0.00    +0.000 C 
ATOM     11  C   UNL     1       3.229  15.409  20.637  0.00  0.00    +0.000 C 
ATOM     12  C   UNL     1       3.108  13.899  20.867  0.00  0.00    +0.000 C 
ATOM     13  N   UNL     1       2.116  13.303  19.976  0.00  0.00    +0.000 N 
ATOM     14  C   UNL     1       1.318  12.258  20.468  0.00  0.00    +0.000 C 
ATOM     15  O   UNL     1       1.495  11.810  21.600  0.00  0.00    +0.000 OA
ATOM     16  C   UNL     1       2.371  13.557  18.558  0.00  0.00    +0.000 C 
ATOM     17  C   UNL     1       2.359  15.060  18.286  0.00  0.00    +0.000 C 
BRANCH  10  19
ATOM     18  N   UNL     1       5.791  15.897  19.564  0.00  0.00    +0.000 N 
ATOM     19  C   UNL     1       4.810  15.541  18.663  0.00  0.00    +0.000 C 
ATOM     20  O   UNL     1       5.063  15.072  17.559  0.00  0.00    +0.000 OA
ATOM     21  H   UNL     1       5.540  16.247  20.479  0.00  0.00    +0.000 HD
BRANCH  18  22
ATOM     22  C   UNL     1       7.199  15.804  19.224  0.00  0.00    +0.000 C 
BRANCH  22  24
ATOM     23  C   UNL     1       8.633  13.805  18.686  0.00  0.00    +0.000 C 
ATOM     24  C   UNL     1       7.815  14.511  19.754  0.00  0.00    +0.000 C 
ENDBRANCH  22  24
ENDBRANCH  18  22
ENDBRANCH  10  19
ENDBRANCH   1  14
BRANCH   9  25
ATOM     25  C   UNL     1       1.558  10.077  18.197  0.00  0.00    +0.000 C 
BRANCH  25  26
ATOM     26  C   UNL     1       1.655   8.731  18.877  0.00  0.00    +0.000 A 
ATOM     27  C   UNL     1       2.226   7.635  18.215  0.00  0.00    +0.000 A 
ATOM     28  C   UNL     1       2.423   6.422  18.885  0.00  0.00    +0.000 A 
ATOM     29  C   UNL     1       2.062   6.285  20.226  0.00  0.00    +0.000 A 
ATOM     30  C   UNL     1       1.447   7.351  20.878  0.00  0.00    +0.000 A 
ATOM     31  C   UNL     1       1.248   8.565  20.208  0.00  0.00    +0.000 A 
BRANCH  29  32
ATOM     32  O   UNL     1       2.319   5.065  20.791  0.00  0.00    +0.000 OA
ATOM     33  C   UNL     1       1.294   4.090  20.621  0.00  0.00    +0.000 C 
ENDBRANCH  29  32
ENDBRANCH  25  26
ENDBRANCH   9  25
TORSDOF 7
ENDMDL
MODEL 4
REMARK VINA RESULT:      -6.4      2.838      7.673
REMARK  Name = 
REMARK  10 active torsions:
REMARK  status: ('A' for Active; 'I' for Inactive)
REMARK    1  A    between atoms: C_1  and  C_2
REMARK    2  A    between atoms: C_2  and  C_3
REMARK    3  A    between atoms: C_3  and  N_4
REMARK    4  A    between atoms: C_5  and  C_7
REMARK    5  A    between atoms: C_11  and  C_13
REMARK    6  A    between atoms: C_17  and  C_18
REMARK    7  A    between atoms: N_21  and  C_22
REMARK    8  A    between atoms: C_22  and  C_23
REMARK    9  A    between atoms: C_26  and  O_27
REMARK   10  A    between atoms: O_27  and  C_28
REMARK                            x       y       z     vdW  Elec       q    Type
REMARK                         _______ _______ _______ _____ _____    ______ ____
ROOT
ATOM      1  C   UNL     1      -1.440  12.649  22.197  0.00  0.00    +0.000 A 
ATOM      2  C   UNL     1      -1.895  12.040  23.362  0.00  0.00    +0.000 A 
ATOM      3  C   UNL     1      -3.251  12.408  23.518  0.00  0.00    +0.000 A 
ATOM      4  S   UNL     1      -4.518  12.214  24.674  0.00  0.00    +0.000 S 
ATOM      5  C   UNL     1      -5.601  13.042  23.628  0.00  0.00    +0.000 A 
ATOM      6  C   UNL     1      -7.013  13.247  24.068  0.00  0.00    +0.000 C 
ATOM      7  C   UNL     1      -5.024  13.437  22.434  0.00  0.00    +0.000 A 
ATOM      8  C   UNL     1      -3.641  13.093  22.410  0.00  0.00    +0.000 A 
ATOM      9  N   UNL     1      -2.545  13.214  21.568  0.00  0.00    +0.000 N 
ENDROOT
BRANCH   1  14
ATOM     10  C   UNL     1       0.792   9.643  18.674  0.00  0.00    +0.000 C 
ATOM     11  C   UNL     1       1.519  10.996  18.758  0.00  0.00    +0.000 C 
ATOM     12  C   UNL     1       1.583  11.570  20.178  0.00  0.00    +0.000 C 
ATOM     13  N   UNL     1       0.272  11.546  20.820  0.00  0.00    +0.000 N 
ATOM     14  C   UNL     1      -0.078  12.612  21.665  0.00  0.00    +0.000 C 
ATOM     15  O   UNL     1       0.726  13.511  21.910  0.00  0.00    +0.000 OA
ATOM     16  C   UNL     1      -0.338  10.217  20.863  0.00  0.00    +0.000 C 
ATOM     17  C   UNL     1      -0.536   9.687  19.445  0.00  0.00    +0.000 C 
BRANCH  10  19
ATOM     18  N   UNL     1       2.385   7.867  18.164  0.00  0.00    +0.000 N 
ATOM     19  C   UNL     1       1.677   8.501  19.164  0.00  0.00    +0.000 C 
ATOM     20  O   UNL     1       1.750   8.166  20.342  0.00  0.00    +0.000 OA
ATOM     21  H   UNL     1       2.325   8.198  17.210  0.00  0.00    +0.000 HD
BRANCH  18  22
ATOM     22  C   UNL     1       3.209   6.706  18.442  0.00  0.00    +0.000 C 
BRANCH  22  24
ATOM     23  C   UNL     1       2.042   4.728  19.476  0.00  0.00    +0.000 C 
ATOM     24  C   UNL     1       2.448   5.408  18.180  0.00  0.00    +0.000 C 
ENDBRANCH  22  24
ENDBRANCH  18  22
ENDBRANCH  10  19
ENDBRANCH   1  14
BRANCH   9  25
ATOM     25  C   UNL     1      -2.649  13.716  20.202  0.00  0.00    +0.000 C 
BRANCH  25  26
ATOM     26  C   UNL     1      -2.877  12.645  19.159  0.00  0.00    +0.000 A 
ATOM     27  C   UNL     1      -4.108  11.982  19.072  0.00  0.00    +0.000 A 
ATOM     28  C   UNL     1      -4.358  11.076  18.035  0.00  0.00    +0.000 A 
ATOM     29  C   UNL     1      -3.388  10.825  17.064  0.00  0.00    +0.000 A 
ATOM     30  C   UNL     1      -2.142  11.439  17.170  0.00  0.00    +0.000 A 
ATOM     31  C   UNL     1      -1.890  12.344  18.208  0.00  0.00    +0.000 A 
BRANCH  29  32
ATOM     32  O   UNL     1      -3.743   9.941  16.081  0.00  0.00    +0.000 OA
ATOM     33  C   UNL     1      -3.318  10.293  14.767  0.00  0.00    +0.000 C 
ENDBRANCH  29  32
ENDBRANCH  25  26
ENDBRANCH   9  25
TORSDOF 7
ENDMDL
MODEL 5
REMARK VINA RESULT:      -6.3      4.015      9.031
REMARK  Name = 
REMARK  10 active torsions:
REMARK  status: ('A' for Active; 'I' for Inactive)
REMARK    1  A    between atoms: C_1  and  C_2
REMARK    2  A    between atoms: C_2  and  C_3
REMARK    3  A    between atoms: C_3  and  N_4
REMARK    4  A    between atoms: C_5  and  C_7
REMARK    5  A    between atoms: C_11  and  C_13
REMARK    6  A    between atoms: C_17  and  C_18
REMARK    7  A    between atoms: N_21  and  C_22
REMARK    8  A    between atoms: C_22  and  C_23
REMARK    9  A    between atoms: C_26  and  O_27
REMARK   10  A    between atoms: O_27  and  C_28
REMARK                            x       y       z     vdW  Elec       q    Type
REMARK                         _______ _______ _______ _____ _____    ______ ____
ROOT
ATOM      1  C   UNL     1       1.078   9.335  19.621  0.00  0.00    +0.000 A 
ATOM      2  C   UNL     1       0.731   8.755  20.837  0.00  0.00    +0.000 A 
ATOM      3  C   UNL     1      -0.003   9.722  21.561  0.00  0.00    +0.000 A 
ATOM      4  S   UNL     1      -0.704   9.905  23.128  0.00  0.00    +0.000 S 
ATOM      5  C   UNL     1      -1.325  11.441  22.671  0.00  0.00    +0.000 A 
ATOM      6  C   UNL     1      -2.111  12.226  23.668  0.00  0.00    +0.000 C 
ATOM      7  C   UNL     1      -1.026  11.794  21.367  0.00  0.00    +0.000 A 
ATOM      8  C   UNL     1      -0.217  10.794  20.753  0.00  0.00    +0.000 A 
ATOM      9  N   UNL     1       0.409  10.552  19.538  0.00  0.00    +0.000 N 
ENDROOT
BRANCH   1  14
ATOM     10  C   UNL     1       2.976   4.595  19.019  0.00  0.00    +0.000 C 
ATOM     11  C   UNL     1       2.816   5.283  17.652  0.00  0.00    +0.000 C 
ATOM     12  C   UNL     1       3.113   6.786  17.685  0.00  0.00    +0.000 C 
ATOM     13  N   UNL     1       2.404   7.443  18.780  0.00  0.00    +0.000 N 
ATOM     14  C   UNL     1       1.900   8.737  18.569  0.00  0.00    +0.000 C 
ATOM     15  O   UNL     1       2.107   9.328  17.510  0.00  0.00    +0.000 OA
ATOM     16  C   UNL     1       2.688   6.866  20.095  0.00  0.00    +0.000 C 
ATOM     17  C   UNL     1       2.270   5.398  20.121  0.00  0.00    +0.000 C 
BRANCH  10  19
ATOM     18  N   UNL     1       5.259   5.450  19.117  0.00  0.00    +0.000 N 
ATOM     19  C   UNL     1       4.445   4.363  19.360  0.00  0.00    +0.000 C 
ATOM     20  O   UNL     1       4.872   3.301  19.802  0.00  0.00    +0.000 OA
ATOM     21  H   UNL     1       4.862   6.319  18.786  0.00  0.00    +0.000 HD
BRANCH  18  22
ATOM     22  C   UNL     1       6.696   5.374  19.304  0.00  0.00    +0.000 C 
BRANCH  22  24
ATOM     23  C   UNL     1       7.465   7.108  17.649  0.00  0.00    +0.000 C 
ATOM     24  C   UNL     1       7.441   5.630  17.997  0.00  0.00    +0.000 C 
ENDBRANCH  22  24
ENDBRANCH  18  22
ENDBRANCH  10  19
ENDBRANCH   1  14
BRANCH   9  25
ATOM     25  C   UNL     1       0.218  11.400  18.367  0.00  0.00    +0.000 C 
BRANCH  25  26
ATOM     26  C   UNL     1       0.980  12.704  18.409  0.00  0.00    +0.000 A 
ATOM     27  C   UNL     1       0.321  13.910  18.679  0.00  0.00    +0.000 A 
ATOM     28  C   UNL     1       1.043  15.099  18.834  0.00  0.00    +0.000 A 
ATOM     29  C   UNL     1       2.435  15.102  18.730  0.00  0.00    +0.000 A 
ATOM     30  C   UNL     1       3.097  13.919  18.411  0.00  0.00    +0.000 A 
ATOM     31  C   UNL     1       2.374  12.729  18.254  0.00  0.00    +0.000 A 
BRANCH  29  32
ATOM     32  O   UNL     1       3.045  16.312  18.922  0.00  0.00    +0.000 OA
ATOM     33  C   UNL     1       3.121  16.744  20.278  0.00  0.00    +0.000 C 
ENDBRANCH  29  32
ENDBRANCH  25  26
ENDBRANCH   9  25
TORSDOF 7
ENDMDL
MODEL 6
REMARK VINA RESULT:      -6.3      3.656      7.436
REMARK  Name = 
REMARK  10 active torsions:
REMARK  status: ('A' for Active; 'I' for Inactive)
REMARK    1  A    between atoms: C_1  and  C_2
REMARK    2  A    between atoms: C_2  and  C_3
REMARK    3  A    between atoms: C_3  and  N_4
REMARK    4  A    between atoms: C_5  and  C_7
REMARK    5  A    between atoms: C_11  and  C_13
REMARK    6  A    between atoms: C_17  and  C_18
REMARK    7  A    between atoms: N_21  and  C_22
REMARK    8  A    between atoms: C_22  and  C_23
REMARK    9  A    between atoms: C_26  and  O_27
REMARK   10  A    between atoms: O_27  and  C_28
REMARK                            x       y       z     vdW  Elec       q    Type
REMARK                         _______ _______ _______ _____ _____    ______ ____
ROOT
ATOM      1  C   UNL     1      -0.516  11.987  19.830  0.00  0.00    +0.000 A 
ATOM      2  C   UNL     1      -1.907  11.987  19.829  0.00  0.00    +0.000 A 
ATOM      3  C   UNL     1      -2.319  11.372  18.625  0.00  0.00    +0.000 A 
ATOM      4  S   UNL     1      -3.786  11.053  17.773  0.00  0.00    +0.000 S 
ATOM      5  C   UNL     1      -2.901  10.221  16.558  0.00  0.00    +0.000 A 
ATOM      6  C   UNL     1      -3.640   9.635  15.401  0.00  0.00    +0.000 C 
ATOM      7  C   UNL     1      -1.539  10.172  16.801  0.00  0.00    +0.000 A 
ATOM      8  C   UNL     1      -1.218  10.888  17.991  0.00  0.00    +0.000 A 
ATOM      9  N   UNL     1      -0.102  11.224  18.744  0.00  0.00    +0.000 N 
ENDROOT
BRANCH   1  14
ATOM     10  C   UNL     1       1.752  16.590  20.146  0.00  0.00    +0.000 C 
ATOM     11  C   UNL     1       1.549  15.999  21.551  0.00  0.00    +0.000 C 
ATOM     12  C   UNL     1       1.726  14.478  21.607  0.00  0.00    +0.000 C 
ATOM     13  N   UNL     1       0.960  13.815  20.555  0.00  0.00    +0.000 N 
ATOM     14  C   UNL     1       0.358  12.580  20.843  0.00  0.00    +0.000 C 
ATOM     15  O   UNL     1       0.525  12.038  21.935  0.00  0.00    +0.000 OA
ATOM     16  C   UNL     1       1.279  14.290  19.207  0.00  0.00    +0.000 C 
ATOM     17  C   UNL     1       0.977  15.782  19.095  0.00  0.00    +0.000 C 
BRANCH  10  19
ATOM     18  N   UNL     1       3.517  16.367  18.476  0.00  0.00    +0.000 N 
ATOM     19  C   UNL     1       3.232  16.686  19.788  0.00  0.00    +0.000 C 
ATOM     20  O   UNL     1       4.099  17.008  20.594  0.00  0.00    +0.000 OA
ATOM     21  H   UNL     1       2.769  16.141  17.834  0.00  0.00    +0.000 HD
BRANCH  18  22
ATOM     22  C   UNL     1       4.883  16.322  17.990  0.00  0.00    +0.000 C 
BRANCH  22  24
ATOM     23  C   UNL     1       6.822  14.736  18.240  0.00  0.00    +0.000 C 
ATOM     24  C   UNL     1       5.368  14.884  17.825  0.00  0.00    +0.000 C 
ENDBRANCH  22  24
ENDBRANCH  18  22
ENDBRANCH  10  19
ENDBRANCH   1  14
BRANCH   9  25
ATOM     25  C   UNL     1       1.228  10.692  18.467  0.00  0.00    +0.000 C 
BRANCH  25  26
ATOM     26  C   UNL     1       1.459   9.290  18.982  0.00  0.00    +0.000 A 
ATOM     27  C   UNL     1       2.098   8.331  18.184  0.00  0.00    +0.000 A 
ATOM     28  C   UNL     1       2.417   7.071  18.702  0.00  0.00    +0.000 A 
ATOM     29  C   UNL     1       2.112   6.750  20.025  0.00  0.00    +0.000 A 
ATOM     30  C   UNL     1       1.432   7.676  20.812  0.00  0.00    +0.000 A 
ATOM     31  C   UNL     1       1.111   8.937  20.294  0.00  0.00    +0.000 A 
BRANCH  29  32
ATOM     32  O   UNL     1       2.489   5.501  20.438  0.00  0.00    +0.000 OA
ATOM     33  C   UNL     1       1.447   4.528  20.455  0.00  0.00    +0.000 C 
ENDBRANCH  29  32
ENDBRANCH  25  26
ENDBRANCH   9  25
TORSDOF 7
ENDMDL
MODEL 7
REMARK VINA RESULT:      -6.3      3.557      7.205
REMARK  Name = 
REMARK  10 active torsions:
REMARK  status: ('A' for Active; 'I' for Inactive)
REMARK    1  A    between atoms: C_1  and  C_2
REMARK    2  A    between atoms: C_2  and  C_3
REMARK    3  A    between atoms: C_3  and  N_4
REMARK    4  A    between atoms: C_5  and  C_7
REMARK    5  A    between atoms: C_11  and  C_13
REMARK    6  A    between atoms: C_17  and  C_18
REMARK    7  A    between atoms: N_21  and  C_22
REMARK    8  A    between atoms: C_22  and  C_23
REMARK    9  A    between atoms: C_26  and  O_27
REMARK   10  A    between atoms: O_27  and  C_28
REMARK                            x       y       z     vdW  Elec       q    Type
REMARK                         _______ _______ _______ _____ _____    ______ ____
ROOT
ATOM      1  C   UNL     1      -0.767  12.353  19.960  0.00  0.00    +0.000 A 
ATOM      2  C   UNL     1      -2.154  12.251  19.969  0.00  0.00    +0.000 A 
ATOM      3  C   UNL     1      -2.530  11.612  18.765  0.00  0.00    +0.000 A 
ATOM      4  S   UNL     1      -3.976  11.189  17.923  0.00  0.00    +0.000 S 
ATOM      5  C   UNL     1      -3.041  10.428  16.698  0.00  0.00    +0.000 A 
ATOM      6  C   UNL     1      -3.745   9.794  15.544  0.00  0.00    +0.000 C 
ATOM      7  C   UNL     1      -1.678  10.478  16.930  0.00  0.00    +0.000 A 
ATOM      8  C   UNL     1      -1.401  11.211  18.121  0.00  0.00    +0.000 A 
ATOM      9  N   UNL     1      -0.307  11.625  18.867  0.00  0.00    +0.000 N 
ENDROOT
BRANCH   1  14
ATOM     10  C   UNL     1       1.001  17.163  20.375  0.00  0.00    +0.000 C 
ATOM     11  C   UNL     1       0.906  16.508  21.763  0.00  0.00    +0.000 C 
ATOM     12  C   UNL     1       1.248  15.014  21.761  0.00  0.00    +0.000 C 
ATOM     13  N   UNL     1       0.525  14.306  20.707  0.00  0.00    +0.000 N 
ATOM     14  C   UNL     1       0.069  13.004  20.968  0.00  0.00    +0.000 C 
ATOM     15  O   UNL     1       0.328  12.449  22.035  0.00  0.00    +0.000 OA
ATOM     16  C   UNL     1       0.749  14.855  19.369  0.00  0.00    +0.000 C 
ATOM     17  C   UNL     1       0.285  16.309  19.318  0.00  0.00    +0.000 C 
BRANCH  10  19
ATOM     18  N   UNL     1       3.306  17.585  21.050  0.00  0.00    +0.000 N 
ATOM     19  C   UNL     1       2.450  17.430  19.980  0.00  0.00    +0.000 C 
ATOM     20  O   UNL     1       2.824  17.510  18.814  0.00  0.00    +0.000 OA
ATOM     21  H   UNL     1       2.965  17.476  21.995  0.00  0.00    +0.000 HD
BRANCH  18  22
ATOM     22  C   UNL     1       4.702  17.930  20.855  0.00  0.00    +0.000 C 
BRANCH  22  24
ATOM     23  C   UNL     1       5.834  15.828  20.054  0.00  0.00    +0.000 C 
ATOM     24  C   UNL     1       5.620  16.768  21.228  0.00  0.00    +0.000 C 
ENDBRANCH  22  24
ENDBRANCH  18  22
ENDBRANCH  10  19
ENDBRANCH   1  14
BRANCH   9  25
ATOM     25  C   UNL     1       1.056  11.193  18.578  0.00  0.00    +0.000 C 
BRANCH  25  26
ATOM     26  C   UNL     1       1.353   9.762  18.964  0.00  0.00    +0.000 A 
ATOM     27  C   UNL     1       1.998   8.899  18.069  0.00  0.00    +0.000 A 
ATOM     28  C   UNL     1       2.377   7.612  18.468  0.00  0.00    +0.000 A 
ATOM     29  C   UNL     1       2.127   7.170  19.768  0.00  0.00    +0.000 A 
ATOM     30  C   UNL     1       1.440   8.000  20.650  0.00  0.00    +0.000 A 
ATOM     31  C   UNL     1       1.059   9.288  20.251  0.00  0.00    +0.000 A 
BRANCH  29  32
ATOM     32  O   UNL     1       2.559   5.905  20.061  0.00  0.00    +0.000 OA
ATOM     33  C   UNL     1       3.792   5.529  19.452  0.00  0.00    +0.000 C 
ENDBRANCH  29  32
ENDBRANCH  25  26
ENDBRANCH   9  25
TORSDOF 7
ENDMDL
MODEL 8
REMARK VINA RESULT:      -6.2      3.928      7.488
REMARK  Name = 
REMARK  10 active torsions:
REMARK  status: ('A' for Active; 'I' for Inactive)
REMARK    1  A    between atoms: C_1  and  C_2
REMARK    2  A    between atoms: C_2  and  C_3
REMARK    3  A    between atoms: C_3  and  N_4
REMARK    4  A    between atoms: C_5  and  C_7
REMARK    5  A    between atoms: C_11  and  C_13
REMARK    6  A    between atoms: C_17  and  C_18
REMARK    7  A    between atoms: N_21  and  C_22
REMARK    8  A    between atoms: C_22  and  C_23
REMARK    9  A    between atoms: C_26  and  O_27
REMARK   10  A    between atoms: O_27  and  C_28
REMARK                            x       y       z     vdW  Elec       q    Type
REMARK                         _______ _______ _______ _____ _____    ______ ____
ROOT
ATOM      1  C   UNL     1       2.493   6.518  19.239  0.00  0.00    +0.000 A 
ATOM      2  C   UNL     1       1.933   5.650  20.170  0.00  0.00    +0.000 A 
ATOM      3  C   UNL     1       2.755   4.500  20.209  0.00  0.00    +0.000 A 
ATOM      4  S   UNL     1       2.768   2.946  20.960  0.00  0.00    +0.000 S 
ATOM      5  C   UNL     1       4.295   2.614  20.247  0.00  0.00    +0.000 A 
ATOM      6  C   UNL     1       4.944   1.295  20.512  0.00  0.00    +0.000 C 
ATOM      7  C   UNL     1       4.788   3.655  19.480  0.00  0.00    +0.000 A 
ATOM      8  C   UNL     1       3.851   4.730  19.438  0.00  0.00    +0.000 A 
ATOM      9  N   UNL     1       3.723   5.987  18.866  0.00  0.00    +0.000 N 
ENDROOT
BRANCH   1  14
ATOM     10  C   UNL     1       1.005  10.672  21.877  0.00  0.00    +0.000 C 
ATOM     11  C   UNL     1       1.428  11.069  20.453  0.00  0.00    +0.000 C 
ATOM     12  C   UNL     1       1.059  10.027  19.392  0.00  0.00    +0.000 C 
ATOM     13  N   UNL     1       1.477   8.687  19.796  0.00  0.00    +0.000 N 
ATOM     14  C   UNL     1       1.952   7.808  18.809  0.00  0.00    +0.000 C 
ATOM     15  O   UNL     1       1.955   8.136  17.623  0.00  0.00    +0.000 OA
ATOM     16  C   UNL     1       0.939   8.269  21.092  0.00  0.00    +0.000 C 
ATOM     17  C   UNL     1       1.412   9.224  22.185  0.00  0.00    +0.000 C 
BRANCH  10  19
ATOM     18  N   UNL     1      -1.035  11.894  21.330  0.00  0.00    +0.000 N 
ATOM     19  C   UNL     1      -0.490  10.884  22.096  0.00  0.00    +0.000 C 
ATOM     20  O   UNL     1      -1.153  10.224  22.890  0.00  0.00    +0.000 OA
ATOM     21  H   UNL     1      -0.462  12.391  20.662  0.00  0.00    +0.000 HD
BRANCH  18  22
ATOM     22  C   UNL     1      -2.424  12.286  21.476  0.00  0.00    +0.000 C 
BRANCH  22  24
ATOM     23  C   UNL     1      -2.367  11.870  18.993  0.00  0.00    +0.000 C 
ATOM     24  C   UNL     1      -3.054  12.616  20.124  0.00  0.00    +0.000 C 
ENDBRANCH  22  24
ENDBRANCH  18  22
ENDBRANCH  10  19
ENDBRANCH   1  14
BRANCH   9  25
ATOM     25  C   UNL     1       4.808   6.640  18.141  0.00  0.00    +0.000 C 
BRANCH  25  26
ATOM     26  C   UNL     1       5.394   5.815  17.018  0.00  0.00    +0.000 A 
ATOM     27  C   UNL     1       4.565   5.066  16.173  0.00  0.00    +0.000 A 
ATOM     28  C   UNL     1       5.096   4.397  15.064  0.00  0.00    +0.000 A 
ATOM     29  C   UNL     1       6.460   4.472  14.776  0.00  0.00    +0.000 A 
ATOM     30  C   UNL     1       7.301   5.171  15.639  0.00  0.00    +0.000 A 
ATOM     31  C   UNL     1       6.771   5.839  16.750  0.00  0.00    +0.000 A 
BRANCH  29  32
ATOM     32  O   UNL     1       6.871   3.802  13.656  0.00  0.00    +0.000 OA
ATOM     33  C   UNL     1       5.858   3.577  12.678  0.00  0.00    +0.000 C 
ENDBRANCH  29  32
ENDBRANCH  25  26
ENDBRANCH   9  25
TORSDOF 7
ENDMDL
MODEL 9
REMARK VINA RESULT:      -6.1      3.782      7.094
REMARK  Name = 
REMARK  10 active torsions:
REMARK  status: ('A' for Active; 'I' for Inactive)
REMARK    1  A    between atoms: C_1  and  C_2
REMARK    2  A    between atoms: C_2  and  C_3
REMARK    3  A    between atoms: C_3  and  N_4
REMARK    4  A    between atoms: C_5  and  C_7
REMARK    5  A    between atoms: C_11  and  C_13
REMARK    6  A    between atoms: C_17  and  C_18
REMARK    7  A    between atoms: N_21  and  C_22
REMARK    8  A    between atoms: C_22  and  C_23
REMARK    9  A    between atoms: C_26  and  O_27
REMARK   10  A    between atoms: O_27  and  C_28
REMARK                            x       y       z     vdW  Elec       q    Type
REMARK                         _______ _______ _______ _____ _____    ______ ____
ROOT
ATOM      1  C   UNL     1       2.580   7.086  18.811  0.00  0.00    +0.000 A 
ATOM      2  C   UNL     1       1.877   6.297  19.715  0.00  0.00    +0.000 A 
ATOM      3  C   UNL     1       2.609   5.097  19.873  0.00  0.00    +0.000 A 
ATOM      4  S   UNL     1       2.442   3.579  20.675  0.00  0.00    +0.000 S 
ATOM      5  C   UNL     1       4.001   3.115  20.123  0.00  0.00    +0.000 A 
ATOM      6  C   UNL     1       4.527   1.767  20.494  0.00  0.00    +0.000 C 
ATOM      7  C   UNL     1       4.635   4.088  19.370  0.00  0.00    +0.000 A 
ATOM      8  C   UNL     1       3.784   5.220  19.201  0.00  0.00    +0.000 A 
ATOM      9  N   UNL     1       3.799   6.458  18.576  0.00  0.00    +0.000 N 
ENDROOT
BRANCH   1  14
ATOM     10  C   UNL     1       0.721  11.289  21.116  0.00  0.00    +0.000 C 
ATOM     11  C   UNL     1       1.431  11.670  19.806  0.00  0.00    +0.000 C 
ATOM     12  C   UNL     1       1.250  10.636  18.689  0.00  0.00    +0.000 C 
ATOM     13  N   UNL     1       1.539   9.285  19.164  0.00  0.00    +0.000 N 
ATOM     14  C   UNL     1       2.174   8.391  18.288  0.00  0.00    +0.000 C 
ATOM     15  O   UNL     1       2.423   8.716  17.127  0.00  0.00    +0.000 OA
ATOM     16  C   UNL     1       0.742   8.887  20.325  0.00  0.00    +0.000 C 
ATOM     17  C   UNL     1       1.016   9.830  21.494  0.00  0.00    +0.000 C 
BRANCH  10  19
ATOM     18  N   UNL     1      -1.334  12.031  22.201  0.00  0.00    +0.000 N 
ATOM     19  C   UNL     1      -0.780  11.546  21.035  0.00  0.00    +0.000 C 
ATOM     20  O   UNL     1      -1.444  11.332  20.026  0.00  0.00    +0.000 OA
ATOM     21  H   UNL     1      -0.746  12.228  23.000  0.00  0.00    +0.000 HD
BRANCH  18  22
ATOM     22  C   UNL     1      -2.763  12.250  22.325  0.00  0.00    +0.000 C 
BRANCH  22  24
ATOM     23  C   UNL     1      -4.641  12.793  23.911  0.00  0.00    +0.000 C 
ATOM     24  C   UNL     1      -3.177  12.409  23.786  0.00  0.00    +0.000 C 
ENDBRANCH  22  24
ENDBRANCH  18  22
ENDBRANCH  10  19
ENDBRANCH   1  14
BRANCH   9  25
ATOM     25  C   UNL     1       4.990   7.006  17.934  0.00  0.00    +0.000 C 
BRANCH  25  26
ATOM     26  C   UNL     1       5.553   6.148  16.826  0.00  0.00    +0.000 A 
ATOM     27  C   UNL     1       4.868   6.007  15.612  0.00  0.00    +0.000 A 
ATOM     28  C   UNL     1       5.445   5.308  14.545  0.00  0.00    +0.000 A 
ATOM     29  C   UNL     1       6.717   4.748  14.669  0.00  0.00    +0.000 A 
ATOM     30  C   UNL     1       7.385   4.837  15.887  0.00  0.00    +0.000 A 
ATOM     31  C   UNL     1       6.808   5.534  16.956  0.00  0.00    +0.000 A 
BRANCH  29  32
ATOM     32  O   UNL     1       7.197   4.107  13.559  0.00  0.00    +0.000 OA
ATOM     33  C   UNL     1       6.204   3.533  12.713  0.00  0.00    +0.000 C 
ENDBRANCH  29  32
ENDBRANCH  25  26
ENDBRANCH   9  25
TORSDOF 7
ENDMDL
