MODEL 1
REMARK VINA RESULT:      -7.7      0.000      0.000
REMARK  Name = 
REMARK  7 active torsions:
REMARK  status: ('A' for Active; 'I' for Inactive)
REMARK    1  A    between atoms: C_1  and  C_2
REMARK    2  A    between atoms: C_2  and  C_3
REMARK    3  A    between atoms: C_3  and  O_4
REMARK    4  A    between atoms: O_4  and  C_5
REMARK    5  A    between atoms: C_17  and  C_18
REMARK    6  A    between atoms: C_19  and  O_20
REMARK    7  A    between atoms: O_20  and  C_21
REMARK                            x       y       z     vdW  Elec       q    Type
REMARK                         _______ _______ _______ _____ _____    ______ ____
ROOT
ATOM      1  C   UNL     1      -0.402  10.636  20.523  0.00  0.00    +0.000 A 
ATOM      2  C   UNL     1      -0.312   9.636  21.488  0.00  0.00    +0.000 A 
ATOM      3  C   UNL     1       0.517   8.532  21.293  0.00  0.00    +0.000 A 
ATOM      4  C   UNL     1       1.265   8.380  20.120  0.00  0.00    +0.000 A 
ATOM      5  C   UNL     1       1.185   9.391  19.139  0.00  0.00    +0.000 A 
ATOM      6  C   UNL     1       0.343  10.503  19.346  0.00  0.00    +0.000 A 
ATOM      7  C   UNL     1       1.929   9.289  17.826  0.00  0.00    +0.000 C 
ATOM      8  C   UNL     1       3.038   8.238  17.825  0.00  0.00    +0.000 C 
ATOM      9  C   UNL     1       2.527   6.939  18.458  0.00  0.00    +0.000 C 
ATOM     10  C   UNL     1       2.218   7.202  19.957  0.00  0.00    +0.000 C 
ATOM     11  C   UNL     1       1.788   5.905  20.695  0.00  0.00    +0.000 C 
ATOM     12  C   UNL     1       2.741   4.719  20.462  0.00  0.00    +0.000 C 
ATOM     13  C   UNL     1       2.988   4.480  18.968  0.00  0.00    +0.000 C 
ATOM     14  C   UNL     1       1.681   3.958  18.317  0.00  0.00    +0.000 C 
ATOM     15  C   UNL     1       4.166   3.533  18.640  0.00  0.00    +0.000 C 
ATOM     16  C   UNL     1       4.565   3.947  17.205  0.00  0.00    +0.000 C 
ATOM     17  C   UNL     1       4.039   5.374  16.991  0.00  0.00    +0.000 C 
ATOM     18  C   UNL     1       3.533   5.792  18.365  0.00  0.00    +0.000 C 
ENDROOT
BRANCH  15  19
ATOM     19  O   UNL     1       3.792   2.163  18.722  0.00  0.00    +0.000 OA
ATOM     20  C   UNL     1       4.438   1.470  19.783  0.00  0.00    +0.000 C 
ENDBRANCH  15  19
BRANCH   1  21
ATOM     21  O   UNL     1      -1.170  11.769  20.633  0.00  0.00    +0.000 OA
BRANCH  21  22
ATOM     22  C   UNL     1      -1.546  12.365  19.390  0.00  0.00    +0.000 C 
BRANCH  22  24
ATOM     23  C   UNL     1      -2.955  11.265  17.648  0.00  0.00    +0.000 C 
ATOM     24  C   UNL     1      -2.959  11.945  19.009  0.00  0.00    +0.000 C 
ENDBRANCH  22  24
ENDBRANCH  21  22
ENDBRANCH   1  21
TORSDOF 4
ENDMDL
MODEL 2
REMARK VINA RESULT:      -7.7      0.939      1.362
REMARK  Name = 
REMARK  7 active torsions:
REMARK  status: ('A' for Active; 'I' for Inactive)
REMARK    1  A    between atoms: C_1  and  C_2
REMARK    2  A    between atoms: C_2  and  C_3
REMARK    3  A    between atoms: C_3  and  O_4
REMARK    4  A    between atoms: O_4  and  C_5
REMARK    5  A    between atoms: C_17  and  C_18
REMARK    6  A    between atoms: C_19  and  O_20
REMARK    7  A    between atoms: O_20  and  C_21
REMARK                            x       y       z     vdW  Elec       q    Type
REMARK                         _______ _______ _______ _____ _____    ______ ____
ROOT
ATOM      1  C   UNL     1      -0.383  10.874  20.246  0.00  0.00    +0.000 A 
ATOM      2  C   UNL     1      -0.354   9.958  21.295  0.00  0.00    +0.000 A 
ATOM      3  C   UNL     1       0.431   8.809  21.215  0.00  0.00    +0.000 A 
ATOM      4  C   UNL     1       1.194   8.526  20.076  0.00  0.00    +0.000 A 
ATOM      5  C   UNL     1       1.176   9.451  19.011  0.00  0.00    +0.000 A 
ATOM      6  C   UNL     1       0.379  10.610  19.103  0.00  0.00    +0.000 A 
ATOM      7  C   UNL     1       1.941   9.206  17.729  0.00  0.00    +0.000 C 
ATOM      8  C   UNL     1       3.004   8.114  17.843  0.00  0.00    +0.000 C 
ATOM      9  C   UNL     1       2.426   6.897  18.573  0.00  0.00    +0.000 C 
ATOM     10  C   UNL     1       2.100   7.301  20.037  0.00  0.00    +0.000 C 
ATOM     11  C   UNL     1       1.601   6.090  20.872  0.00  0.00    +0.000 C 
ATOM     12  C   UNL     1       2.507   4.851  20.764  0.00  0.00    +0.000 C 
ATOM     13  C   UNL     1       2.772   4.474  19.302  0.00  0.00    +0.000 C 
ATOM     14  C   UNL     1       1.458   3.952  18.667  0.00  0.00    +0.000 C 
ATOM     15  C   UNL     1       3.915   3.455  19.083  0.00  0.00    +0.000 C 
ATOM     16  C   UNL     1       4.360   3.727  17.627  0.00  0.00    +0.000 C 
ATOM     17  C   UNL     1       3.899   5.151  17.281  0.00  0.00    +0.000 C 
ATOM     18  C   UNL     1       3.385   5.706  18.602  0.00  0.00    +0.000 C 
ENDROOT
BRANCH  15  19
ATOM     19  O   UNL     1       3.482   2.114  19.273  0.00  0.00    +0.000 OA
ATOM     20  C   UNL     1       3.693   1.291  18.133  0.00  0.00    +0.000 C 
ENDBRANCH  15  19
BRANCH   1  21
ATOM     21  O   UNL     1      -1.104  12.042  20.242  0.00  0.00    +0.000 OA
BRANCH  21  22
ATOM     22  C   UNL     1      -1.011  12.803  19.035  0.00  0.00    +0.000 C 
BRANCH  22  24
ATOM     23  C   UNL     1       0.961  14.330  19.114  0.00  0.00    +0.000 C 
ATOM     24  C   UNL     1      -0.539  14.218  19.338  0.00  0.00    +0.000 C 
ENDBRANCH  22  24
ENDBRANCH  21  22
ENDBRANCH   1  21
TORSDOF 4
ENDMDL
MODEL 3
REMARK VINA RESULT:      -7.6      1.050      1.551
REMARK  Name = 
REMARK  7 active torsions:
REMARK  status: ('A' for Active; 'I' for Inactive)
REMARK    1  A    between atoms: C_1  and  C_2
REMARK    2  A    between atoms: C_2  and  C_3
REMARK    3  A    between atoms: C_3  and  O_4
REMARK    4  A    between atoms: O_4  and  C_5
REMARK    5  A    between atoms: C_17  and  C_18
REMARK    6  A    between atoms: C_19  and  O_20
REMARK    7  A    between atoms: O_20  and  C_21
REMARK                            x       y       z     vdW  Elec       q    Type
REMARK                         _______ _______ _______ _____ _____    ______ ____
ROOT
ATOM      1  C   UNL     1      -0.496  10.623  20.593  0.00  0.00    +0.000 A 
ATOM      2  C   UNL     1      -0.374   9.610  21.542  0.00  0.00    +0.000 A 
ATOM      3  C   UNL     1       0.479   8.529  21.323  0.00  0.00    +0.000 A 
ATOM      4  C   UNL     1       1.219   8.413  20.140  0.00  0.00    +0.000 A 
ATOM      5  C   UNL     1       1.106   9.437  19.176  0.00  0.00    +0.000 A 
ATOM      6  C   UNL     1       0.241  10.525  19.408  0.00  0.00    +0.000 A 
ATOM      7  C   UNL     1       1.840   9.373  17.855  0.00  0.00    +0.000 C 
ATOM      8  C   UNL     1       2.974   8.348  17.828  0.00  0.00    +0.000 C 
ATOM      9  C   UNL     1       2.499   7.028  18.445  0.00  0.00    +0.000 C 
ATOM     10  C   UNL     1       2.198   7.261  19.951  0.00  0.00    +0.000 C 
ATOM     11  C   UNL     1       1.806   5.942  20.671  0.00  0.00    +0.000 C 
ATOM     12  C   UNL     1       2.784   4.783  20.412  0.00  0.00    +0.000 C 
ATOM     13  C   UNL     1       3.022   4.573  18.912  0.00  0.00    +0.000 C 
ATOM     14  C   UNL     1       1.722   4.031  18.264  0.00  0.00    +0.000 C 
ATOM     15  C   UNL     1       4.219   3.659  18.559  0.00  0.00    +0.000 C 
ATOM     16  C   UNL     1       4.596   4.105  17.126  0.00  0.00    +0.000 C 
ATOM     17  C   UNL     1       4.034   5.522  16.940  0.00  0.00    +0.000 C 
ATOM     18  C   UNL     1       3.531   5.907  18.325  0.00  0.00    +0.000 C 
ENDROOT
BRANCH  15  19
ATOM     19  O   UNL     1       3.878   2.280  18.623  0.00  0.00    +0.000 OA
ATOM     20  C   UNL     1       4.387   1.631  19.782  0.00  0.00    +0.000 C 
ENDBRANCH  15  19
BRANCH   1  21
ATOM     21  O   UNL     1      -1.290  11.735  20.728  0.00  0.00    +0.000 OA
BRANCH  21  22
ATOM     22  C   UNL     1      -0.599  12.982  20.636  0.00  0.00    +0.000 C 
BRANCH  22  24
ATOM     23  C   UNL     1      -1.254  13.141  23.039  0.00  0.00    +0.000 C 
ATOM     24  C   UNL     1      -0.170  13.452  22.019  0.00  0.00    +0.000 C 
ENDBRANCH  22  24
ENDBRANCH  21  22
ENDBRANCH   1  21
TORSDOF 4
ENDMDL
MODEL 4
REMARK VINA RESULT:      -6.8      1.340      7.857
REMARK  Name = 
REMARK  7 active torsions:
REMARK  status: ('A' for Active; 'I' for Inactive)
REMARK    1  A    between atoms: C_1  and  C_2
REMARK    2  A    between atoms: C_2  and  C_3
REMARK    3  A    between atoms: C_3  and  O_4
REMARK    4  A    between atoms: O_4  and  C_5
REMARK    5  A    between atoms: C_17  and  C_18
REMARK    6  A    between atoms: C_19  and  O_20
REMARK    7  A    between atoms: O_20  and  C_21
REMARK                            x       y       z     vdW  Elec       q    Type
REMARK                         _______ _______ _______ _____ _____    ______ ____
ROOT
ATOM      1  C   UNL     1       3.747   4.703  18.220  0.00  0.00    +0.000 A 
ATOM      2  C   UNL     1       4.005   5.768  17.360  0.00  0.00    +0.000 A 
ATOM      3  C   UNL     1       3.509   7.041  17.636  0.00  0.00    +0.000 A 
ATOM      4  C   UNL     1       2.721   7.287  18.767  0.00  0.00    +0.000 A 
ATOM      5  C   UNL     1       2.460   6.215  19.646  0.00  0.00    +0.000 A 
ATOM      6  C   UNL     1       2.966   4.932  19.357  0.00  0.00    +0.000 A 
ATOM      7  C   UNL     1       1.587   6.383  20.870  0.00  0.00    +0.000 C 
ATOM      8  C   UNL     1       1.356   7.841  21.268  0.00  0.00    +0.000 C 
ATOM      9  C   UNL     1       1.013   8.673  20.028  0.00  0.00    +0.000 C 
ATOM     10  C   UNL     1       2.249   8.700  19.088  0.00  0.00    +0.000 C 
ATOM     11  C   UNL     1       2.013   9.609  17.851  0.00  0.00    +0.000 C 
ATOM     12  C   UNL     1       1.481  11.008  18.206  0.00  0.00    +0.000 C 
ATOM     13  C   UNL     1       0.243  10.927  19.108  0.00  0.00    +0.000 C 
ATOM     14  C   UNL     1      -0.940  10.344  18.292  0.00  0.00    +0.000 C 
ATOM     15  C   UNL     1      -0.171  12.258  19.776  0.00  0.00    +0.000 C 
ATOM     16  C   UNL     1      -0.968  11.799  21.019  0.00  0.00    +0.000 C 
ATOM     17  C   UNL     1      -0.533  10.356  21.318  0.00  0.00    +0.000 C 
ATOM     18  C   UNL     1       0.628  10.114  20.362  0.00  0.00    +0.000 C 
ENDROOT
BRANCH  15  19
ATOM     19  O   UNL     1      -0.947  13.076  18.909  0.00  0.00    +0.000 OA
ATOM     20  C   UNL     1      -0.359  14.348  18.665  0.00  0.00    +0.000 C 
ENDBRANCH  15  19
BRANCH   1  21
ATOM     21  O   UNL     1       4.209   3.422  18.046  0.00  0.00    +0.000 OA
BRANCH  21  22
ATOM     22  C   UNL     1       3.455   2.412  18.720  0.00  0.00    +0.000 C 
BRANCH  22  24
ATOM     23  C   UNL     1       0.968   2.207  18.723  0.00  0.00    +0.000 C 
ATOM     24  C   UNL     1       2.234   2.027  17.898  0.00  0.00    +0.000 C 
ENDBRANCH  22  24
ENDBRANCH  21  22
ENDBRANCH   1  21
TORSDOF 4
ENDMDL
MODEL 5
REMARK VINA RESULT:      -6.8      2.233      3.897
REMARK  Name = 
REMARK  7 active torsions:
REMARK  status: ('A' for Active; 'I' for Inactive)
REMARK    1  A    between atoms: C_1  and  C_2
REMARK    2  A    between atoms: C_2  and  C_3
REMARK    3  A    between atoms: C_3  and  O_4
REMARK    4  A    between atoms: O_4  and  C_5
REMARK    5  A    between atoms: C_17  and  C_18
REMARK    6  A    between atoms: C_19  and  O_20
REMARK    7  A    between atoms: O_20  and  C_21
REMARK                            x       y       z     vdW  Elec       q    Type
REMARK                         _______ _______ _______ _____ _____    ______ ____
ROOT
ATOM      1  C   UNL     1       0.650   8.936  21.106  0.00  0.00    +0.000 A 
ATOM      2  C   UNL     1       1.092   9.654  19.997  0.00  0.00    +0.000 A 
ATOM      3  C   UNL     1       1.826   9.028  18.991  0.00  0.00    +0.000 A 
ATOM      4  C   UNL     1       2.163   7.672  19.071  0.00  0.00    +0.000 A 
ATOM      5  C   UNL     1       1.715   6.935  20.187  0.00  0.00    +0.000 A 
ATOM      6  C   UNL     1       0.972   7.578  21.199  0.00  0.00    +0.000 A 
ATOM      7  C   UNL     1       2.064   5.475  20.372  0.00  0.00    +0.000 C 
ATOM      8  C   UNL     1       2.583   4.799  19.103  0.00  0.00    +0.000 C 
ATOM      9  C   UNL     1       3.616   5.699  18.417  0.00  0.00    +0.000 C 
ATOM     10  C   UNL     1       2.906   6.991  17.927  0.00  0.00    +0.000 C 
ATOM     11  C   UNL     1       3.869   7.912  17.131  0.00  0.00    +0.000 C 
ATOM     12  C   UNL     1       4.646   7.181  16.022  0.00  0.00    +0.000 C 
ATOM     13  C   UNL     1       5.355   5.933  16.562  0.00  0.00    +0.000 C 
ATOM     14  C   UNL     1       6.503   6.372  17.506  0.00  0.00    +0.000 C 
ATOM     15  C   UNL     1       5.889   4.963  15.482  0.00  0.00    +0.000 C 
ATOM     16  C   UNL     1       5.965   3.609  16.227  0.00  0.00    +0.000 C 
ATOM     17  C   UNL     1       5.012   3.709  17.427  0.00  0.00    +0.000 C 
ATOM     18  C   UNL     1       4.286   5.031  17.216  0.00  0.00    +0.000 C 
ENDROOT
BRANCH  15  19
ATOM     19  O   UNL     1       7.153   5.370  14.973  0.00  0.00    +0.000 OA
ATOM     20  C   UNL     1       7.385   4.935  13.639  0.00  0.00    +0.000 C 
ENDBRANCH  15  19
BRANCH   1  21
ATOM     21  O   UNL     1      -0.097   9.456  22.133  0.00  0.00    +0.000 OA
BRANCH  21  22
ATOM     22  C   UNL     1      -0.735  10.702  21.843  0.00  0.00    +0.000 C 
BRANCH  22  24
ATOM     23  C   UNL     1      -1.337  12.784  23.079  0.00  0.00    +0.000 C 
ATOM     24  C   UNL     1      -1.392  11.264  23.095  0.00  0.00    +0.000 C 
ENDBRANCH  22  24
ENDBRANCH  21  22
ENDBRANCH   1  21
TORSDOF 4
ENDMDL
MODEL 6
REMARK VINA RESULT:      -6.6      2.068      8.642
REMARK  Name = 
REMARK  7 active torsions:
REMARK  status: ('A' for Active; 'I' for Inactive)
REMARK    1  A    between atoms: C_1  and  C_2
REMARK    2  A    between atoms: C_2  and  C_3
REMARK    3  A    between atoms: C_3  and  O_4
REMARK    4  A    between atoms: O_4  and  C_5
REMARK    5  A    between atoms: C_17  and  C_18
REMARK    6  A    between atoms: C_19  and  O_20
REMARK    7  A    between atoms: O_20  and  C_21
REMARK                            x       y       z     vdW  Elec       q    Type
REMARK                         _______ _______ _______ _____ _____    ______ ____
ROOT
ATOM      1  C   UNL     1       2.429   7.533  18.453  0.00  0.00    +0.000 A 
ATOM      2  C   UNL     1       2.301   8.684  17.678  0.00  0.00    +0.000 A 
ATOM      3  C   UNL     1       1.667   9.817  18.186  0.00  0.00    +0.000 A 
ATOM      4  C   UNL     1       1.122   9.830  19.475  0.00  0.00    +0.000 A 
ATOM      5  C   UNL     1       1.252   8.672  20.270  0.00  0.00    +0.000 A 
ATOM      6  C   UNL     1       1.895   7.532  19.746  0.00  0.00    +0.000 A 
ATOM      7  C   UNL     1       0.660   8.587  21.659  0.00  0.00    +0.000 C 
ATOM      8  C   UNL     1       0.276   9.944  22.250  0.00  0.00    +0.000 C 
ATOM      9  C   UNL     1      -0.474  10.775  21.205  0.00  0.00    +0.000 C 
ATOM     10  C   UNL     1       0.496  11.102  20.036  0.00  0.00    +0.000 C 
ATOM     11  C   UNL     1      -0.163  12.030  18.980  0.00  0.00    +0.000 C 
ATOM     12  C   UNL     1      -0.836  13.274  19.586  0.00  0.00    +0.000 C 
ATOM     13  C   UNL     1      -1.807  12.896  20.711  0.00  0.00    +0.000 C 
ATOM     14  C   UNL     1      -3.024  12.154  20.101  0.00  0.00    +0.000 C 
ATOM     15  C   UNL     1      -2.284  14.076  21.590  0.00  0.00    +0.000 C 
ATOM     16  C   UNL     1      -2.692  13.390  22.915  0.00  0.00    +0.000 C 
ATOM     17  C   UNL     1      -1.959  12.041  22.960  0.00  0.00    +0.000 C 
ATOM     18  C   UNL     1      -1.018  12.090  21.764  0.00  0.00    +0.000 C 
ENDROOT
BRANCH  15  19
ATOM     19  O   UNL     1      -3.364  14.786  20.995  0.00  0.00    +0.000 OA
ATOM     20  C   UNL     1      -3.078  16.162  20.779  0.00  0.00    +0.000 C 
ENDBRANCH  15  19
BRANCH   1  21
ATOM     21  O   UNL     1       3.055   6.380  18.051  0.00  0.00    +0.000 OA
BRANCH  21  22
ATOM     22  C   UNL     1       2.604   5.191  18.703  0.00  0.00    +0.000 C 
BRANCH  22  24
ATOM     23  C   UNL     1       1.216   3.132  18.455  0.00  0.00    +0.000 C 
ATOM     24  C   UNL     1       1.866   4.295  17.720  0.00  0.00    +0.000 C 
ENDBRANCH  22  24
ENDBRANCH  21  22
ENDBRANCH   1  21
TORSDOF 4
ENDMDL
MODEL 7
REMARK VINA RESULT:      -6.5      1.569      3.082
REMARK  Name = 
REMARK  7 active torsions:
REMARK  status: ('A' for Active; 'I' for Inactive)
REMARK    1  A    between atoms: C_1  and  C_2
REMARK    2  A    between atoms: C_2  and  C_3
REMARK    3  A    between atoms: C_3  and  O_4
REMARK    4  A    between atoms: O_4  and  C_5
REMARK    5  A    between atoms: C_17  and  C_18
REMARK    6  A    between atoms: C_19  and  O_20
REMARK    7  A    between atoms: O_20  and  C_21
REMARK                            x       y       z     vdW  Elec       q    Type
REMARK                         _______ _______ _______ _____ _____    ______ ____
ROOT
ATOM      1  C   UNL     1       0.546  10.915  20.317  0.00  0.00    +0.000 A 
ATOM      2  C   UNL     1       1.090  11.026  19.039  0.00  0.00    +0.000 A 
ATOM      3  C   UNL     1       1.692   9.929  18.425  0.00  0.00    +0.000 A 
ATOM      4  C   UNL     1       1.792   8.694  19.076  0.00  0.00    +0.000 A 
ATOM      5  C   UNL     1       1.239   8.571  20.368  0.00  0.00    +0.000 A 
ATOM      6  C   UNL     1       0.632   9.687  20.979  0.00  0.00    +0.000 A 
ATOM      7  C   UNL     1       1.336   7.285  21.157  0.00  0.00    +0.000 C 
ATOM      8  C   UNL     1       1.713   6.068  20.312  0.00  0.00    +0.000 C 
ATOM      9  C   UNL     1       2.876   6.421  19.379  0.00  0.00    +0.000 C 
ATOM     10  C   UNL     1       2.391   7.489  18.360  0.00  0.00    +0.000 C 
ATOM     11  C   UNL     1       3.487   7.827  17.313  0.00  0.00    +0.000 C 
ATOM     12  C   UNL     1       4.112   6.586  16.652  0.00  0.00    +0.000 C 
ATOM     13  C   UNL     1       4.603   5.579  17.698  0.00  0.00    +0.000 C 
ATOM     14  C   UNL     1       5.823   6.178  18.444  0.00  0.00    +0.000 C 
ATOM     15  C   UNL     1       4.949   4.175  17.147  0.00  0.00    +0.000 C 
ATOM     16  C   UNL     1       4.801   3.261  18.386  0.00  0.00    +0.000 C 
ATOM     17  C   UNL     1       3.896   4.003  19.380  0.00  0.00    +0.000 C 
ATOM     18  C   UNL     1       3.405   5.216  18.601  0.00  0.00    +0.000 C 
ENDROOT
BRANCH  15  19
ATOM     19  O   UNL     1       6.257   4.124  16.591  0.00  0.00    +0.000 OA
ATOM     20  C   UNL     1       6.258   3.951  15.179  0.00  0.00    +0.000 C 
ENDBRANCH  15  19
BRANCH   1  21
ATOM     21  O   UNL     1      -0.086  11.929  20.993  0.00  0.00    +0.000 OA
BRANCH  21  22
ATOM     22  C   UNL     1      -1.458  12.123  20.642  0.00  0.00    +0.000 C 
BRANCH  22  24
ATOM     23  C   UNL     1      -1.799  11.622  23.063  0.00  0.00    +0.000 C 
ATOM     24  C   UNL     1      -2.279  12.450  21.881  0.00  0.00    +0.000 C 
ENDBRANCH  22  24
ENDBRANCH  21  22
ENDBRANCH   1  21
TORSDOF 4
ENDMDL
MODEL 8
REMARK VINA RESULT:      -6.4      1.605      8.104
REMARK  Name = 
REMARK  7 active torsions:
REMARK  status: ('A' for Active; 'I' for Inactive)
REMARK    1  A    between atoms: C_1  and  C_2
REMARK    2  A    between atoms: C_2  and  C_3
REMARK    3  A    between atoms: C_3  and  O_4
REMARK    4  A    between atoms: O_4  and  C_5
REMARK    5  A    between atoms: C_17  and  C_18
REMARK    6  A    between atoms: C_19  and  O_20
REMARK    7  A    between atoms: O_20  and  C_21
REMARK                            x       y       z     vdW  Elec       q    Type
REMARK                         _______ _______ _______ _____ _____    ______ ____
ROOT
ATOM      1  C   UNL     1       3.822   5.370  17.668  0.00  0.00    +0.000 A 
ATOM      2  C   UNL     1       3.955   6.566  16.966  0.00  0.00    +0.000 A 
ATOM      3  C   UNL     1       3.385   7.742  17.450  0.00  0.00    +0.000 A 
ATOM      4  C   UNL     1       2.644   7.757  18.638  0.00  0.00    +0.000 A 
ATOM      5  C   UNL     1       2.509   6.552  19.359  0.00  0.00    +0.000 A 
ATOM      6  C   UNL     1       3.090   5.369  18.860  0.00  0.00    +0.000 A 
ATOM      7  C   UNL     1       1.696   6.471  20.631  0.00  0.00    +0.000 C 
ATOM      8  C   UNL     1       1.382   7.832  21.252  0.00  0.00    +0.000 C 
ATOM      9  C   UNL     1       0.912   8.805  20.165  0.00  0.00    +0.000 C 
ATOM     10  C   UNL     1       2.090   9.067  19.186  0.00  0.00    +0.000 C 
ATOM     11  C   UNL     1       1.721  10.124  18.110  0.00  0.00    +0.000 C 
ATOM     12  C   UNL     1       1.109  11.410  18.693  0.00  0.00    +0.000 C 
ATOM     13  C   UNL     1      -0.067  11.100  19.626  0.00  0.00    +0.000 C 
ATOM     14  C   UNL     1      -1.248  10.551  18.785  0.00  0.00    +0.000 C 
ATOM     15  C   UNL     1      -0.539  12.284  20.503  0.00  0.00    +0.000 C 
ATOM     16  C   UNL     1      -1.232  11.587  21.697  0.00  0.00    +0.000 C 
ATOM     17  C   UNL     1      -0.678  10.155  21.758  0.00  0.00    +0.000 C 
ATOM     18  C   UNL     1       0.443  10.147  20.727  0.00  0.00    +0.000 C 
ENDROOT
BRANCH  15  19
ATOM     19  O   UNL     1      -1.419  13.154  19.802  0.00  0.00    +0.000 OA
ATOM     20  C   UNL     1      -2.531  13.573  20.583  0.00  0.00    +0.000 C 
ENDBRANCH  15  19
BRANCH   1  21
ATOM     21  O   UNL     1       4.366   4.169  17.284  0.00  0.00    +0.000 OA
BRANCH  21  22
ATOM     22  C   UNL     1       5.734   4.229  16.879  0.00  0.00    +0.000 C 
BRANCH  22  24
ATOM     23  C   UNL     1       5.878   4.710  14.434  0.00  0.00    +0.000 C 
ATOM     24  C   UNL     1       5.904   3.620  15.495  0.00  0.00    +0.000 C 
ENDBRANCH  22  24
ENDBRANCH  21  22
ENDBRANCH   1  21
TORSDOF 4
ENDMDL
MODEL 9
REMARK VINA RESULT:      -6.4      2.635      8.600
REMARK  Name = 
REMARK  7 active torsions:
REMARK  status: ('A' for Active; 'I' for Inactive)
REMARK    1  A    between atoms: C_1  and  C_2
REMARK    2  A    between atoms: C_2  and  C_3
REMARK    3  A    between atoms: C_3  and  O_4
REMARK    4  A    between atoms: O_4  and  C_5
REMARK    5  A    between atoms: C_17  and  C_18
REMARK    6  A    between atoms: C_19  and  O_20
REMARK    7  A    between atoms: O_20  and  C_21
REMARK                            x       y       z     vdW  Elec       q    Type
REMARK                         _______ _______ _______ _____ _____    ______ ____
ROOT
ATOM      1  C   UNL     1       2.221   8.006  18.716  0.00  0.00    +0.000 A 
ATOM      2  C   UNL     1       2.031   7.780  20.078  0.00  0.00    +0.000 A 
ATOM      3  C   UNL     1       1.090   8.516  20.796  0.00  0.00    +0.000 A 
ATOM      4  C   UNL     1       0.324   9.515  20.184  0.00  0.00    +0.000 A 
ATOM      5  C   UNL     1       0.505   9.747  18.804  0.00  0.00    +0.000 A 
ATOM      6  C   UNL     1       1.460   8.997  18.087  0.00  0.00    +0.000 A 
ATOM      7  C   UNL     1      -0.252  10.831  18.072  0.00  0.00    +0.000 C 
ATOM      8  C   UNL     1      -1.466  11.361  18.835  0.00  0.00    +0.000 C 
ATOM      9  C   UNL     1      -1.091  11.617  20.299  0.00  0.00    +0.000 C 
ATOM     10  C   UNL     1      -0.748  10.258  20.971  0.00  0.00    +0.000 C 
ATOM     11  C   UNL     1      -0.453  10.423  22.487  0.00  0.00    +0.000 C 
ATOM     12  C   UNL     1      -1.527  11.228  23.240  0.00  0.00    +0.000 C 
ATOM     13  C   UNL     1      -1.805  12.572  22.556  0.00  0.00    +0.000 C 
ATOM     14  C   UNL     1      -0.564  13.487  22.716  0.00  0.00    +0.000 C 
ATOM     15  C   UNL     1      -3.077  13.305  23.042  0.00  0.00    +0.000 C 
ATOM     16  C   UNL     1      -3.439  14.218  21.847  0.00  0.00    +0.000 C 
ATOM     17  C   UNL     1      -2.766  13.613  20.606  0.00  0.00    +0.000 C 
ATOM     18  C   UNL     1      -2.213  12.282  21.096  0.00  0.00    +0.000 C 
ENDROOT
BRANCH  15  19
ATOM     19  O   UNL     1      -2.849  14.043  24.236  0.00  0.00    +0.000 OA
ATOM     20  C   UNL     1      -3.607  15.244  24.305  0.00  0.00    +0.000 C 
ENDBRANCH  15  19
BRANCH   1  21
ATOM     21  O   UNL     1       3.104   7.319  17.921  0.00  0.00    +0.000 OA
BRANCH  21  22
ATOM     22  C   UNL     1       3.627   6.121  18.497  0.00  0.00    +0.000 C 
BRANCH  22  24
ATOM     23  C   UNL     1       1.827   4.553  17.771  0.00  0.00    +0.000 C 
ATOM     24  C   UNL     1       3.294   4.922  17.620  0.00  0.00    +0.000 C 
ENDBRANCH  22  24
ENDBRANCH  21  22
ENDBRANCH   1  21
TORSDOF 4
ENDMDL
