MODEL 1
REMARK VINA RESULT:      -8.6      0.000      0.000
REMARK  Name = 
REMARK  4 active torsions:
REMARK  status: ('A' for Active; 'I' for Inactive)
REMARK    1  A    between atoms: C_1  and  C_2
REMARK    2  A    between atoms: C_8  and  N_9
REMARK    3  A    between atoms: N_12  and  C_13
REMARK    4  A    between atoms: N_18  and  C_19
REMARK                            x       y       z     vdW  Elec       q    Type
REMARK                         _______ _______ _______ _____ _____    ______ ____
ROOT
ATOM      1  C   UNL     1      -6.261   9.776  11.074  0.00  0.00    +0.000 C 
ATOM      2  C   UNL     1      -5.016   9.741  11.861  0.00  0.00    +0.000 A 
ATOM      3  C   UNL     1      -4.791   9.861  13.213  0.00  0.00    +0.000 A 
ATOM      4  C   UNL     1      -3.391   9.810  13.366  0.00  0.00    +0.000 A 
ATOM      5  N   UNL     1      -2.704   9.970  14.507  0.00  0.00    +0.000 N 
ATOM      6  C   UNL     1      -3.107  10.492  15.755  0.00  0.00    +0.000 A 
ATOM      7  C   UNL     1      -2.112  10.883  16.620  0.00  0.00    +0.000 A 
ATOM      8  C   UNL     1      -2.470  11.461  17.814  0.00  0.00    +0.000 A 
ATOM      9  N   UNL     1      -3.759  11.616  18.130  0.00  0.00    +0.000 NA
ATOM     10  C   UNL     1      -4.683  11.186  17.261  0.00  0.00    +0.000 A 
ATOM     11  N   UNL     1      -6.038  11.314  17.588  0.00  0.00    +0.000 N 
ATOM     12  N   UNL     1      -4.400  10.644  16.074  0.00  0.00    +0.000 NA
ATOM     13  N   UNL     1      -2.780   9.604  12.197  0.00  0.00    +0.000 NA
ATOM     14  N   UNL     1      -3.780   9.591  11.303  0.00  0.00    +0.000 N 
ATOM     15  H   UNL     1      -1.701   9.892  14.399  0.00  0.00    +0.000 HD
ATOM     16  H   UNL     1      -6.608  10.976  16.824  0.00  0.00    +0.000 HD
ATOM     17  H   UNL     1      -3.541   9.485  10.322  0.00  0.00    +0.000 HD
ENDROOT
BRANCH   8  18
ATOM     18  N   UNL     1      -1.488  11.970  18.635  0.00  0.00    +0.000 N 
ATOM     19  C   UNL     1      -0.810  11.098  19.598  0.00  0.00    +0.000 C 
ATOM     20  C   UNL     1      -0.411  11.972  20.816  0.00  0.00    +0.000 C 
ATOM     21  N   UNL     1       0.409  13.157  20.447  0.00  0.00    +0.000 NA
ATOM     22  C   UNL     1       0.650  13.998  21.617  0.00  0.00    +0.000 C 
ATOM     23  C   UNL     1      -0.275  13.940  19.392  0.00  0.00    +0.000 C 
ATOM     24  C   UNL     1      -0.652  13.080  18.169  0.00  0.00    +0.000 C 
ENDBRANCH   8  18
BRANCH  11  25
ATOM     25  C   UNL     1      -6.615  11.205  18.862  0.00  0.00    +0.000 A 
ATOM     26  C   UNL     1      -6.956   9.938  19.355  0.00  0.00    +0.000 A 
ATOM     27  C   UNL     1      -7.607   9.800  20.586  0.00  0.00    +0.000 A 
ATOM     28  C   UNL     1      -7.905  10.928  21.349  0.00  0.00    +0.000 A 
ATOM     29  C   UNL     1      -7.542  12.187  20.884  0.00  0.00    +0.000 A 
ATOM     30 CL   UNL     1      -7.890  13.585  21.826  0.00  0.00    +0.000 Cl
ATOM     31  C   UNL     1      -6.904  12.327  19.653  0.00  0.00    +0.000 A 
ENDBRANCH  11  25
TORSDOF 2
ENDMDL
MODEL 2
REMARK VINA RESULT:      -8.4      0.620      1.062
REMARK  Name = 
REMARK  4 active torsions:
REMARK  status: ('A' for Active; 'I' for Inactive)
REMARK    1  A    between atoms: C_1  and  C_2
REMARK    2  A    between atoms: C_8  and  N_9
REMARK    3  A    between atoms: N_12  and  C_13
REMARK    4  A    between atoms: N_18  and  C_19
REMARK                            x       y       z     vdW  Elec       q    Type
REMARK                         _______ _______ _______ _____ _____    ______ ____
ROOT
ATOM      1  C   UNL     1      -6.018   9.942  11.110  0.00  0.00    +0.000 C 
ATOM      2  C   UNL     1      -4.803   9.824  11.936  0.00  0.00    +0.000 A 
ATOM      3  C   UNL     1      -4.613   9.926  13.294  0.00  0.00    +0.000 A 
ATOM      4  C   UNL     1      -3.225   9.784  13.491  0.00  0.00    +0.000 A 
ATOM      5  N   UNL     1      -2.565   9.896  14.655  0.00  0.00    +0.000 N 
ATOM      6  C   UNL     1      -2.973  10.440  15.891  0.00  0.00    +0.000 A 
ATOM      7  C   UNL     1      -1.982  10.764  16.788  0.00  0.00    +0.000 A 
ATOM      8  C   UNL     1      -2.339  11.362  17.973  0.00  0.00    +0.000 A 
ATOM      9  N   UNL     1      -3.624  11.601  18.249  0.00  0.00    +0.000 NA
ATOM     10  C   UNL     1      -4.547  11.234  17.350  0.00  0.00    +0.000 A 
ATOM     11  N   UNL     1      -5.900  11.450  17.634  0.00  0.00    +0.000 N 
ATOM     12  N   UNL     1      -4.262  10.677  16.169  0.00  0.00    +0.000 NA
ATOM     13  N   UNL     1      -2.593   9.540  12.342  0.00  0.00    +0.000 NA
ATOM     14  N   UNL     1      -3.562   9.594  11.417  0.00  0.00    +0.000 N 
ATOM     15  H   UNL     1      -1.567   9.752  14.578  0.00  0.00    +0.000 HD
ATOM     16  H   UNL     1      -6.466  11.151  16.852  0.00  0.00    +0.000 HD
ATOM     17  H   UNL     1      -3.300   9.475  10.443  0.00  0.00    +0.000 HD
ENDROOT
BRANCH   8  18
ATOM     18  N   UNL     1      -1.352  11.803  18.826  0.00  0.00    +0.000 N 
ATOM     19  C   UNL     1      -1.340  13.196  19.280  0.00  0.00    +0.000 C 
ATOM     20  C   UNL     1       0.142  13.597  19.512  0.00  0.00    +0.000 C 
ATOM     21  N   UNL     1       0.858  12.689  20.447  0.00  0.00    +0.000 NA
ATOM     22  C   UNL     1       2.271  13.049  20.529  0.00  0.00    +0.000 C 
ATOM     23  C   UNL     1       0.718  11.283  19.999  0.00  0.00    +0.000 C 
ATOM     24  C   UNL     1      -0.754  10.874  19.790  0.00  0.00    +0.000 C 
ENDBRANCH   8  18
BRANCH  11  25
ATOM     25  C   UNL     1      -6.522  11.377  18.890  0.00  0.00    +0.000 A 
ATOM     26  C   UNL     1      -6.876  10.123  19.408  0.00  0.00    +0.000 A 
ATOM     27  C   UNL     1      -7.571  10.019  20.618  0.00  0.00    +0.000 A 
ATOM     28  C   UNL     1      -7.901  11.168  21.335  0.00  0.00    +0.000 A 
ATOM     29  C   UNL     1      -7.528  12.415  20.845  0.00  0.00    +0.000 A 
ATOM     30 CL   UNL     1      -7.916  13.839  21.730  0.00  0.00    +0.000 Cl
ATOM     31  C   UNL     1      -6.846  12.521  19.634  0.00  0.00    +0.000 A 
ENDBRANCH  11  25
TORSDOF 2
ENDMDL
MODEL 3
REMARK VINA RESULT:      -7.4      7.323      9.996
REMARK  Name = 
REMARK  4 active torsions:
REMARK  status: ('A' for Active; 'I' for Inactive)
REMARK    1  A    between atoms: C_1  and  C_2
REMARK    2  A    between atoms: C_8  and  N_9
REMARK    3  A    between atoms: N_12  and  C_13
REMARK    4  A    between atoms: N_18  and  C_19
REMARK                            x       y       z     vdW  Elec       q    Type
REMARK                         _______ _______ _______ _____ _____    ______ ____
ROOT
ATOM      1  C   UNL     1      -0.921  12.342  21.704  0.00  0.00    +0.000 C 
ATOM      2  C   UNL     1      -0.207  12.004  20.459  0.00  0.00    +0.000 A 
ATOM      3  C   UNL     1       0.281  10.809  19.986  0.00  0.00    +0.000 A 
ATOM      4  C   UNL     1       0.921  11.120  18.770  0.00  0.00    +0.000 A 
ATOM      5  N   UNL     1       1.616  10.276  17.991  0.00  0.00    +0.000 N 
ATOM      6  C   UNL     1       2.136   8.993  18.266  0.00  0.00    +0.000 A 
ATOM      7  C   UNL     1       3.115   8.522  17.423  0.00  0.00    +0.000 A 
ATOM      8  C   UNL     1       3.694   7.308  17.703  0.00  0.00    +0.000 A 
ATOM      9  N   UNL     1       3.293   6.596  18.759  0.00  0.00    +0.000 NA
ATOM     10  C   UNL     1       2.312   7.091  19.525  0.00  0.00    +0.000 A 
ATOM     11  N   UNL     1       1.859   6.346  20.619  0.00  0.00    +0.000 N 
ATOM     12  N   UNL     1       1.731   8.277  19.324  0.00  0.00    +0.000 NA
ATOM     13  N   UNL     1       0.786  12.412  18.465  0.00  0.00    +0.000 NA
ATOM     14  N   UNL     1       0.123  12.928  19.510  0.00  0.00    +0.000 N 
ATOM     15  H   UNL     1       1.993  10.702  17.155  0.00  0.00    +0.000 HD
ATOM     16  H   UNL     1       1.144   6.863  21.113  0.00  0.00    +0.000 HD
ATOM     17  H   UNL     1      -0.061  13.926  19.514  0.00  0.00    +0.000 HD
ENDROOT
BRANCH   8  18
ATOM     18  N   UNL     1       4.759   6.880  16.941  0.00  0.00    +0.000 N 
ATOM     19  C   UNL     1       4.697   6.960  15.479  0.00  0.00    +0.000 C 
ATOM     20  C   UNL     1       5.548   5.792  14.913  0.00  0.00    +0.000 C 
ATOM     21  N   UNL     1       6.945   5.781  15.422  0.00  0.00    +0.000 NA
ATOM     22  C   UNL     1       7.655   4.595  14.947  0.00  0.00    +0.000 C 
ATOM     23  C   UNL     1       6.947   5.812  16.904  0.00  0.00    +0.000 C 
ATOM     24  C   UNL     1       6.121   6.985  17.470  0.00  0.00    +0.000 C 
ENDBRANCH   8  18
BRANCH  11  25
ATOM     25  C   UNL     1       1.762   4.949  20.710  0.00  0.00    +0.000 A 
ATOM     26  C   UNL     1       2.351   4.289  21.797  0.00  0.00    +0.000 A 
ATOM     27  C   UNL     1       2.344   2.892  21.876  0.00  0.00    +0.000 A 
ATOM     28  C   UNL     1       1.726   2.139  20.878  0.00  0.00    +0.000 A 
ATOM     29  C   UNL     1       1.112   2.785  19.811  0.00  0.00    +0.000 A 
ATOM     30 CL   UNL     1       0.333   1.866  18.582  0.00  0.00    +0.000 Cl
ATOM     31  C   UNL     1       1.129   4.176  19.725  0.00  0.00    +0.000 A 
ENDBRANCH  11  25
TORSDOF 2
ENDMDL
MODEL 4
REMARK VINA RESULT:      -6.9      6.326      9.432
REMARK  Name = 
REMARK  4 active torsions:
REMARK  status: ('A' for Active; 'I' for Inactive)
REMARK    1  A    between atoms: C_1  and  C_2
REMARK    2  A    between atoms: C_8  and  N_9
REMARK    3  A    between atoms: N_12  and  C_13
REMARK    4  A    between atoms: N_18  and  C_19
REMARK                            x       y       z     vdW  Elec       q    Type
REMARK                         _______ _______ _______ _____ _____    ______ ____
ROOT
ATOM      1  C   UNL     1      -4.575  15.482  24.001  0.00  0.00    +0.000 C 
ATOM      2  C   UNL     1      -3.957  14.147  23.903  0.00  0.00    +0.000 A 
ATOM      3  C   UNL     1      -2.783  13.729  23.320  0.00  0.00    +0.000 A 
ATOM      4  C   UNL     1      -2.757  12.331  23.493  0.00  0.00    +0.000 A 
ATOM      5  N   UNL     1      -1.835  11.482  23.012  0.00  0.00    +0.000 N 
ATOM      6  C   UNL     1      -0.852  11.664  22.017  0.00  0.00    +0.000 A 
ATOM      7  C   UNL     1      -0.302  10.530  21.466  0.00  0.00    +0.000 A 
ATOM      8  C   UNL     1       0.606  10.670  20.444  0.00  0.00    +0.000 A 
ATOM      9  N   UNL     1       0.959  11.885  20.016  0.00  0.00    +0.000 NA
ATOM     10  C   UNL     1       0.415  12.953  20.613  0.00  0.00    +0.000 A 
ATOM     11  N   UNL     1       0.795  14.234  20.197  0.00  0.00    +0.000 N 
ATOM     12  N   UNL     1      -0.494  12.883  21.589  0.00  0.00    +0.000 NA
ATOM     13  N   UNL     1      -3.808  11.906  24.196  0.00  0.00    +0.000 NA
ATOM     14  N   UNL     1      -4.529  13.017  24.409  0.00  0.00    +0.000 N 
ATOM     15  H   UNL     1      -1.999  10.513  23.255  0.00  0.00    +0.000 HD
ATOM     16  H   UNL     1       0.277  14.930  20.718  0.00  0.00    +0.000 HD
ATOM     17  H   UNL     1      -5.412  12.925  24.902  0.00  0.00    +0.000 HD
ENDROOT
BRANCH   8  18
ATOM     18  N   UNL     1       1.072   9.545  19.800  0.00  0.00    +0.000 N 
ATOM     19  C   UNL     1       1.011   8.240  20.464  0.00  0.00    +0.000 C 
ATOM     20  C   UNL     1       2.208   7.399  19.946  0.00  0.00    +0.000 C 
ATOM     21  N   UNL     1       2.247   7.281  18.464  0.00  0.00    +0.000 NA
ATOM     22  C   UNL     1       3.457   6.582  18.037  0.00  0.00    +0.000 C 
ATOM     23  C   UNL     1       2.194   8.626  17.845  0.00  0.00    +0.000 C 
ATOM     24  C   UNL     1       0.993   9.457  18.340  0.00  0.00    +0.000 C 
ENDBRANCH   8  18
BRANCH  11  25
ATOM     25  C   UNL     1       2.061  14.637  19.749  0.00  0.00    +0.000 A 
ATOM     26  C   UNL     1       2.282  14.802  18.375  0.00  0.00    +0.000 A 
ATOM     27  C   UNL     1       3.554  15.123  17.887  0.00  0.00    +0.000 A 
ATOM     28  C   UNL     1       4.616  15.305  18.772  0.00  0.00    +0.000 A 
ATOM     29  C   UNL     1       4.401  15.175  20.139  0.00  0.00    +0.000 A 
ATOM     30 CL   UNL     1       5.701  15.413  21.242  0.00  0.00    +0.000 Cl
ATOM     31  C   UNL     1       3.137  14.843  20.626  0.00  0.00    +0.000 A 
ENDBRANCH  11  25
TORSDOF 2
ENDMDL
MODEL 5
REMARK VINA RESULT:      -6.9      4.555      8.812
REMARK  Name = 
REMARK  4 active torsions:
REMARK  status: ('A' for Active; 'I' for Inactive)
REMARK    1  A    between atoms: C_1  and  C_2
REMARK    2  A    between atoms: C_8  and  N_9
REMARK    3  A    between atoms: N_12  and  C_13
REMARK    4  A    between atoms: N_18  and  C_19
REMARK                            x       y       z     vdW  Elec       q    Type
REMARK                         _______ _______ _______ _____ _____    ______ ____
ROOT
ATOM      1  C   UNL     1       6.263  14.985  17.679  0.00  0.00    +0.000 C 
ATOM      2  C   UNL     1       4.853  15.095  18.096  0.00  0.00    +0.000 A 
ATOM      3  C   UNL     1       3.933  14.138  18.455  0.00  0.00    +0.000 A 
ATOM      4  C   UNL     1       2.735  14.839  18.692  0.00  0.00    +0.000 A 
ATOM      5  N   UNL     1       1.539  14.306  18.989  0.00  0.00    +0.000 N 
ATOM      6  C   UNL     1       1.074  12.979  18.874  0.00  0.00    +0.000 A 
ATOM      7  C   UNL     1      -0.288  12.791  18.893  0.00  0.00    +0.000 A 
ATOM      8  C   UNL     1      -0.778  11.520  18.711  0.00  0.00    +0.000 A 
ATOM      9  N   UNL     1       0.057  10.492  18.543  0.00  0.00    +0.000 NA
ATOM     10  C   UNL     1       1.375  10.731  18.567  0.00  0.00    +0.000 A 
ATOM     11  N   UNL     1       2.265   9.662  18.421  0.00  0.00    +0.000 N 
ATOM     12  N   UNL     1       1.912  11.946  18.709  0.00  0.00    +0.000 NA
ATOM     13  N   UNL     1       2.906  16.156  18.558  0.00  0.00    +0.000 NA
ATOM     14  N   UNL     1       4.185  16.282  18.175  0.00  0.00    +0.000 N 
ATOM     15  H   UNL     1       0.806  14.989  19.126  0.00  0.00    +0.000 HD
ATOM     16  H   UNL     1       3.217  10.006  18.428  0.00  0.00    +0.000 HD
ATOM     17  H   UNL     1       4.533  17.214  17.972  0.00  0.00    +0.000 HD
ENDROOT
BRANCH   8  18
ATOM     18  N   UNL     1      -2.139  11.334  18.604  0.00  0.00    +0.000 N 
ATOM     19  C   UNL     1      -2.669  10.190  17.858  0.00  0.00    +0.000 C 
ATOM     20  C   UNL     1      -4.030  10.621  17.250  0.00  0.00    +0.000 C 
ATOM     21  N   UNL     1      -4.992  11.133  18.263  0.00  0.00    +0.000 NA
ATOM     22  C   UNL     1      -6.203  11.630  17.615  0.00  0.00    +0.000 C 
ATOM     23  C   UNL     1      -4.364  12.212  19.061  0.00  0.00    +0.000 C 
ATOM     24  C   UNL     1      -3.022  11.780  19.686  0.00  0.00    +0.000 C 
ENDBRANCH   8  18
BRANCH  11  25
ATOM     25  C   UNL     1       2.096   8.351  18.889  0.00  0.00    +0.000 A 
ATOM     26  C   UNL     1       1.665   8.142  20.207  0.00  0.00    +0.000 A 
ATOM     27  C   UNL     1       1.565   6.849  20.731  0.00  0.00    +0.000 A 
ATOM     28  C   UNL     1       1.873   5.746  19.936  0.00  0.00    +0.000 A 
ATOM     29  C   UNL     1       2.271   5.940  18.618  0.00  0.00    +0.000 A 
ATOM     30 CL   UNL     1       2.639   4.586  17.621  0.00  0.00    +0.000 Cl
ATOM     31  C   UNL     1       2.384   7.229  18.097  0.00  0.00    +0.000 A 
ENDBRANCH  11  25
TORSDOF 2
ENDMDL
MODEL 6
REMARK VINA RESULT:      -6.8      7.567     10.203
REMARK  Name = 
REMARK  4 active torsions:
REMARK  status: ('A' for Active; 'I' for Inactive)
REMARK    1  A    between atoms: C_1  and  C_2
REMARK    2  A    between atoms: C_8  and  N_9
REMARK    3  A    between atoms: N_12  and  C_13
REMARK    4  A    between atoms: N_18  and  C_19
REMARK                            x       y       z     vdW  Elec       q    Type
REMARK                         _______ _______ _______ _____ _____    ______ ____
ROOT
ATOM      1  C   UNL     1      -0.254  12.424  21.457  0.00  0.00    +0.000 C 
ATOM      2  C   UNL     1       0.433  11.989  20.228  0.00  0.00    +0.000 A 
ATOM      3  C   UNL     1       0.822  10.743  19.796  0.00  0.00    +0.000 A 
ATOM      4  C   UNL     1       1.490  10.960  18.575  0.00  0.00    +0.000 A 
ATOM      5  N   UNL     1       2.114  10.037  17.827  0.00  0.00    +0.000 N 
ATOM      6  C   UNL     1       2.524   8.725  18.145  0.00  0.00    +0.000 A 
ATOM      7  C   UNL     1       3.464   8.148  17.324  0.00  0.00    +0.000 A 
ATOM      8  C   UNL     1       3.939   6.899  17.645  0.00  0.00    +0.000 A 
ATOM      9  N   UNL     1       3.477   6.257  18.721  0.00  0.00    +0.000 NA
ATOM     10  C   UNL     1       2.538   6.856  19.465  0.00  0.00    +0.000 A 
ATOM     11  N   UNL     1       2.020   6.186  20.580  0.00  0.00    +0.000 N 
ATOM     12  N   UNL     1       2.058   8.079  19.223  0.00  0.00    +0.000 NA
ATOM     13  N   UNL     1       1.463  12.249  18.228  0.00  0.00    +0.000 NA
ATOM     14  N   UNL     1       0.842  12.851  19.253  0.00  0.00    +0.000 N 
ATOM     15  H   UNL     1       2.529  10.403  16.980  0.00  0.00    +0.000 HD
ATOM     16  H   UNL     1       1.349   6.777  21.053  0.00  0.00    +0.000 HD
ATOM     17  H   UNL     1       0.742  13.861  19.224  0.00  0.00    +0.000 HD
ENDROOT
BRANCH   8  18
ATOM     18  N   UNL     1       4.967   6.360  16.904  0.00  0.00    +0.000 N 
ATOM     19  C   UNL     1       6.358   6.697  17.220  0.00  0.00    +0.000 C 
ATOM     20  C   UNL     1       7.162   6.648  15.894  0.00  0.00    +0.000 C 
ATOM     21  N   UNL     1       7.041   5.349  15.180  0.00  0.00    +0.000 NA
ATOM     22  C   UNL     1       7.720   5.409  13.888  0.00  0.00    +0.000 C 
ATOM     23  C   UNL     1       5.612   5.006  14.986  0.00  0.00    +0.000 C 
ATOM     24  C   UNL     1       4.815   5.031  16.305  0.00  0.00    +0.000 C 
ENDBRANCH   8  18
BRANCH  11  25
ATOM     25  C   UNL     1       1.807   4.806  20.714  0.00  0.00    +0.000 A 
ATOM     26  C   UNL     1       2.256   4.151  21.869  0.00  0.00    +0.000 A 
ATOM     27  C   UNL     1       2.132   2.763  21.999  0.00  0.00    +0.000 A 
ATOM     28  C   UNL     1       1.538   2.017  20.982  0.00  0.00    +0.000 A 
ATOM     29  C   UNL     1       1.061   2.660  19.846  0.00  0.00    +0.000 A 
ATOM     30 CL   UNL     1       0.310   1.751  18.593  0.00  0.00    +0.000 Cl
ATOM     31  C   UNL     1       1.194   4.041  19.710  0.00  0.00    +0.000 A 
ENDBRANCH  11  25
TORSDOF 2
ENDMDL
MODEL 7
REMARK VINA RESULT:      -6.8      6.447      9.481
REMARK  Name = 
REMARK  4 active torsions:
REMARK  status: ('A' for Active; 'I' for Inactive)
REMARK    1  A    between atoms: C_1  and  C_2
REMARK    2  A    between atoms: C_8  and  N_9
REMARK    3  A    between atoms: N_12  and  C_13
REMARK    4  A    between atoms: N_18  and  C_19
REMARK                            x       y       z     vdW  Elec       q    Type
REMARK                         _______ _______ _______ _____ _____    ______ ____
ROOT
ATOM      1  C   UNL     1      -4.834  15.479  24.162  0.00  0.00    +0.000 C 
ATOM      2  C   UNL     1      -4.239  14.132  24.091  0.00  0.00    +0.000 A 
ATOM      3  C   UNL     1      -3.037  13.695  23.585  0.00  0.00    +0.000 A 
ATOM      4  C   UNL     1      -3.051  12.295  23.743  0.00  0.00    +0.000 A 
ATOM      5  N   UNL     1      -2.117  11.431  23.315  0.00  0.00    +0.000 N 
ATOM      6  C   UNL     1      -1.064  11.603  22.391  0.00  0.00    +0.000 A 
ATOM      7  C   UNL     1      -0.502  10.463  21.866  0.00  0.00    +0.000 A 
ATOM      8  C   UNL     1       0.476  10.593  20.910  0.00  0.00    +0.000 A 
ATOM      9  N   UNL     1       0.883  11.805  20.521  0.00  0.00    +0.000 NA
ATOM     10  C   UNL     1       0.322  12.878  21.092  0.00  0.00    +0.000 A 
ATOM     11  N   UNL     1       0.755  14.155  20.718  0.00  0.00    +0.000 N 
ATOM     12  N   UNL     1      -0.654  12.818  22.003  0.00  0.00    +0.000 NA
ATOM     13  N   UNL     1      -4.157  11.886  24.368  0.00  0.00    +0.000 NA
ATOM     14  N   UNL     1      -4.867  13.010  24.545  0.00  0.00    +0.000 N 
ATOM     15  H   UNL     1      -2.317  10.464  23.535  0.00  0.00    +0.000 HD
ATOM     16  H   UNL     1       0.218  14.857  21.210  0.00  0.00    +0.000 HD
ATOM     17  H   UNL     1      -5.784  12.933  24.975  0.00  0.00    +0.000 HD
ENDROOT
BRANCH   8  18
ATOM     18  N   UNL     1       0.961   9.465  20.286  0.00  0.00    +0.000 N 
ATOM     19  C   UNL     1       0.763   8.146  20.894  0.00  0.00    +0.000 C 
ATOM     20  C   UNL     1       1.972   7.261  20.488  0.00  0.00    +0.000 C 
ATOM     21  N   UNL     1       2.178   7.184  19.018  0.00  0.00    +0.000 NA
ATOM     22  C   UNL     1       3.396   6.438  18.709  0.00  0.00    +0.000 C 
ATOM     23  C   UNL     1       2.260   8.547  18.443  0.00  0.00    +0.000 C 
ATOM     24  C   UNL     1       1.049   9.422  18.824  0.00  0.00    +0.000 C 
ENDBRANCH   8  18
BRANCH  11  25
ATOM     25  C   UNL     1       2.058  14.535  20.361  0.00  0.00    +0.000 A 
ATOM     26  C   UNL     1       3.057  14.568  21.344  0.00  0.00    +0.000 A 
ATOM     27  C   UNL     1       4.346  15.020  21.041  0.00  0.00    +0.000 A 
ATOM     28  C   UNL     1       4.656  15.425  19.744  0.00  0.00    +0.000 A 
ATOM     29  C   UNL     1       3.682  15.367  18.754  0.00  0.00    +0.000 A 
ATOM     30 CL   UNL     1       4.059  15.849  17.145  0.00  0.00    +0.000 Cl
ATOM     31  C   UNL     1       2.394  14.928  19.057  0.00  0.00    +0.000 A 
ENDBRANCH  11  25
TORSDOF 2
ENDMDL
MODEL 8
REMARK VINA RESULT:      -6.5      6.412      9.076
REMARK  Name = 
REMARK  4 active torsions:
REMARK  status: ('A' for Active; 'I' for Inactive)
REMARK    1  A    between atoms: C_1  and  C_2
REMARK    2  A    between atoms: C_8  and  N_9
REMARK    3  A    between atoms: N_12  and  C_13
REMARK    4  A    between atoms: N_18  and  C_19
REMARK                            x       y       z     vdW  Elec       q    Type
REMARK                         _______ _______ _______ _____ _____    ______ ____
ROOT
ATOM      1  C   UNL     1      -5.024  12.130  24.746  0.00  0.00    +0.000 C 
ATOM      2  C   UNL     1      -4.137  13.146  24.151  0.00  0.00    +0.000 A 
ATOM      3  C   UNL     1      -3.089  13.033  23.267  0.00  0.00    +0.000 A 
ATOM      4  C   UNL     1      -2.586  14.340  23.113  0.00  0.00    +0.000 A 
ATOM      5  N   UNL     1      -1.506  14.704  22.405  0.00  0.00    +0.000 N 
ATOM      6  C   UNL     1      -0.449  13.930  21.881  0.00  0.00    +0.000 A 
ATOM      7  C   UNL     1       0.701  14.597  21.530  0.00  0.00    +0.000 A 
ATOM      8  C   UNL     1       1.775  13.865  21.084  0.00  0.00    +0.000 A 
ATOM      9  N   UNL     1       1.689  12.537  20.975  0.00  0.00    +0.000 NA
ATOM     10  C   UNL     1       0.532  11.945  21.301  0.00  0.00    +0.000 A 
ATOM     11  N   UNL     1       0.414  10.558  21.166  0.00  0.00    +0.000 N 
ATOM     12  N   UNL     1      -0.536  12.597  21.769  0.00  0.00    +0.000 NA
ATOM     13  N   UNL     1      -3.311  15.225  23.800  0.00  0.00    +0.000 NA
ATOM     14  N   UNL     1      -4.224  14.477  24.436  0.00  0.00    +0.000 N 
ATOM     15  H   UNL     1      -1.318  15.698  22.421  0.00  0.00    +0.000 HD
ATOM     16  H   UNL     1      -0.501  10.260  21.479  0.00  0.00    +0.000 HD
ATOM     17  H   UNL     1      -4.873  14.945  25.062  0.00  0.00    +0.000 HD
ENDROOT
BRANCH   8  18
ATOM     18  N   UNL     1       2.972  14.505  20.846  0.00  0.00    +0.000 N 
ATOM     19  C   UNL     1       3.934  14.693  21.934  0.00  0.00    +0.000 C 
ATOM     20  C   UNL     1       4.710  16.007  21.647  0.00  0.00    +0.000 C 
ATOM     21  N   UNL     1       5.356  16.028  20.308  0.00  0.00    +0.000 NA
ATOM     22  C   UNL     1       5.966  17.330  20.053  0.00  0.00    +0.000 C 
ATOM     23  C   UNL     1       4.357  15.722  19.257  0.00  0.00    +0.000 C 
ATOM     24  C   UNL     1       3.601  14.406  19.526  0.00  0.00    +0.000 C 
ENDBRANCH   8  18
BRANCH  11  25
ATOM     25  C   UNL     1       1.006   9.750  20.183  0.00  0.00    +0.000 A 
ATOM     26  C   UNL     1       1.028  10.192  18.854  0.00  0.00    +0.000 A 
ATOM     27  C   UNL     1       1.536   9.377  17.836  0.00  0.00    +0.000 A 
ATOM     28  C   UNL     1       2.048   8.117  18.141  0.00  0.00    +0.000 A 
ATOM     29  C   UNL     1       2.059   7.681  19.461  0.00  0.00    +0.000 A 
ATOM     30 CL   UNL     1       2.704   6.133  19.850  0.00  0.00    +0.000 Cl
ATOM     31  C   UNL     1       1.542   8.487  20.474  0.00  0.00    +0.000 A 
ENDBRANCH  11  25
TORSDOF 2
ENDMDL
MODEL 9
REMARK VINA RESULT:      -6.4      6.523      9.252
REMARK  Name = 
REMARK  4 active torsions:
REMARK  status: ('A' for Active; 'I' for Inactive)
REMARK    1  A    between atoms: C_1  and  C_2
REMARK    2  A    between atoms: C_8  and  N_9
REMARK    3  A    between atoms: N_12  and  C_13
REMARK    4  A    between atoms: N_18  and  C_19
REMARK                            x       y       z     vdW  Elec       q    Type
REMARK                         _______ _______ _______ _____ _____    ______ ____
ROOT
ATOM      1  C   UNL     1      -4.711  12.254  24.935  0.00  0.00    +0.000 C 
ATOM      2  C   UNL     1      -3.816  13.256  24.330  0.00  0.00    +0.000 A 
ATOM      3  C   UNL     1      -2.799  13.132  23.412  0.00  0.00    +0.000 A 
ATOM      4  C   UNL     1      -2.267  14.427  23.265  0.00  0.00    +0.000 A 
ATOM      5  N   UNL     1      -1.199  14.776  22.529  0.00  0.00    +0.000 N 
ATOM      6  C   UNL     1      -0.180  13.983  21.960  0.00  0.00    +0.000 A 
ATOM      7  C   UNL     1       0.976  14.627  21.585  0.00  0.00    +0.000 A 
ATOM      8  C   UNL     1       2.016  13.875  21.093  0.00  0.00    +0.000 A 
ATOM      9  N   UNL     1       1.891  12.551  20.965  0.00  0.00    +0.000 NA
ATOM     10  C   UNL     1       0.729  11.985  21.316  0.00  0.00    +0.000 A 
ATOM     11  N   UNL     1       0.570  10.603  21.162  0.00  0.00    +0.000 N 
ATOM     12  N   UNL     1      -0.306  12.656  21.828  0.00  0.00    +0.000 NA
ATOM     13  N   UNL     1      -2.946  15.319  23.988  0.00  0.00    +0.000 NA
ATOM     14  N   UNL     1      -3.859  14.584  24.640  0.00  0.00    +0.000 N 
ATOM     15  H   UNL     1      -0.985  15.764  22.556  0.00  0.00    +0.000 HD
ATOM     16  H   UNL     1      -0.342  10.324  21.498  0.00  0.00    +0.000 HD
ATOM     17  H   UNL     1      -4.476  15.058  25.293  0.00  0.00    +0.000 HD
ENDROOT
BRANCH   8  18
ATOM     18  N   UNL     1       3.221  14.487  20.829  0.00  0.00    +0.000 N 
ATOM     19  C   UNL     1       3.453  15.128  19.532  0.00  0.00    +0.000 C 
ATOM     20  C   UNL     1       4.968  15.010  19.219  0.00  0.00    +0.000 C 
ATOM     21  N   UNL     1       5.836  15.567  20.290  0.00  0.00    +0.000 NA
ATOM     22  C   UNL     1       7.244  15.320  19.990  0.00  0.00    +0.000 C 
ATOM     23  C   UNL     1       5.482  14.965  21.597  0.00  0.00    +0.000 C 
ATOM     24  C   UNL     1       3.981  15.101  21.922  0.00  0.00    +0.000 C 
ENDBRANCH   8  18
BRANCH  11  25
ATOM     25  C   UNL     1       1.110   9.797  20.148  0.00  0.00    +0.000 A 
ATOM     26  C   UNL     1       1.185  10.298  18.841  0.00  0.00    +0.000 A 
ATOM     27  C   UNL     1       1.640   9.493  17.791  0.00  0.00    +0.000 A 
ATOM     28  C   UNL     1       2.048   8.184  18.040  0.00  0.00    +0.000 A 
ATOM     29  C   UNL     1       2.007   7.687  19.338  0.00  0.00    +0.000 A 
ATOM     30 CL   UNL     1       2.524   6.078  19.661  0.00  0.00    +0.000 Cl
ATOM     31  C   UNL     1       1.542   8.484  20.384  0.00  0.00    +0.000 A 
ENDBRANCH  11  25
TORSDOF 2
ENDMDL
