MODEL 1
REMARK VINA RESULT:      -7.3      0.000      0.000
REMARK  Name = 
REMARK  4 active torsions:
REMARK  status: ('A' for Active; 'I' for Inactive)
REMARK    1  A    between atoms: C_1  and  O_2
REMARK    2  A    between atoms: O_2  and  C_3
REMARK    3  A    between atoms: C_6  and  N_7
REMARK    4  A    between atoms: C_8  and  C_9
REMARK                            x       y       z     vdW  Elec       q    Type
REMARK                         _______ _______ _______ _____ _____    ______ ____
ROOT
ATOM      1  N   UNL     1       3.428   4.944  18.595  0.00  0.00    +0.000 N 
ATOM      2  C   UNL     1       2.313   5.533  19.267  0.00  0.00    +0.000 A 
ATOM      3  C   UNL     1       1.535   4.469  19.695  0.00  0.00    +0.000 A 
ATOM      4  N   UNL     1       2.113   3.338  19.217  0.00  0.00    +0.000 N 
ATOM      5  C   UNL     1       3.227   3.625  18.550  0.00  0.00    +0.000 A 
ATOM      6  C   UNL     1       3.945   2.400  18.105  0.00  0.00    +0.000 C 
ATOM      7  C   UNL     1       3.046   1.250  18.617  0.00  0.00    +0.000 C 
ATOM      8  C   UNL     1       1.828   1.917  19.310  0.00  0.00    +0.000 C 
ENDROOT
BRANCH   2   9
ATOM      9  C   UNL     1       1.999   6.983  19.494  0.00  0.00    +0.000 A 
ATOM     10  C   UNL     1       1.629   7.428  20.766  0.00  0.00    +0.000 A 
ATOM     11  C   UNL     1       1.202   8.744  20.955  0.00  0.00    +0.000 A 
ATOM     12  C   UNL     1       1.171   9.619  19.876  0.00  0.00    +0.000 A 
ATOM     13 BR   UNL     1       0.541  11.383  20.111  0.00  0.00    +0.000 Br
ATOM     14  C   UNL     1       1.592   9.199  18.612  0.00  0.00    +0.000 A 
ATOM     15  C   UNL     1       2.018   7.881  18.420  0.00  0.00    +0.000 A 
ENDBRANCH   2   9
BRANCH   1  19
ATOM     16  C   UNL     1       6.871   7.065  17.328  0.00  0.00    +0.000 A 
ATOM     17  C   UNL     1       6.896   6.319  18.504  0.00  0.00    +0.000 A 
ATOM     18  C   UNL     1       5.788   5.564  18.883  0.00  0.00    +0.000 A 
ATOM     19  C   UNL     1       4.630   5.615  18.110  0.00  0.00    +0.000 A 
ATOM     20  C   UNL     1       4.584   6.347  16.932  0.00  0.00    +0.000 A 
ATOM     21  C   UNL     1       5.716   7.073  16.538  0.00  0.00    +0.000 A 
BRANCH  16  23
ATOM     22  C   UNL     1       8.204   8.936  17.876  0.00  0.00    +0.000 C 
ATOM     23  O   UNL     1       8.014   7.772  17.086  0.00  0.00    +0.000 OA
ENDBRANCH  16  23
ENDBRANCH   1  19
TORSDOF 3
ENDMDL
MODEL 2
REMARK VINA RESULT:      -7.3      1.534      2.054
REMARK  Name = 
REMARK  4 active torsions:
REMARK  status: ('A' for Active; 'I' for Inactive)
REMARK    1  A    between atoms: C_1  and  O_2
REMARK    2  A    between atoms: O_2  and  C_3
REMARK    3  A    between atoms: C_6  and  N_7
REMARK    4  A    between atoms: C_8  and  C_9
REMARK                            x       y       z     vdW  Elec       q    Type
REMARK                         _______ _______ _______ _____ _____    ______ ____
ROOT
ATOM      1  N   UNL     1       3.308   5.115  19.419  0.00  0.00    +0.000 N 
ATOM      2  C   UNL     1       2.362   6.028  19.977  0.00  0.00    +0.000 A 
ATOM      3  C   UNL     1       1.720   5.326  20.985  0.00  0.00    +0.000 A 
ATOM      4  N   UNL     1       2.198   4.055  20.947  0.00  0.00    +0.000 N 
ATOM      5  C   UNL     1       3.128   3.930  20.005  0.00  0.00    +0.000 A 
ATOM      6  C   UNL     1       3.750   2.579  20.009  0.00  0.00    +0.000 C 
ATOM      7  C   UNL     1       3.010   1.845  21.152  0.00  0.00    +0.000 C 
ATOM      8  C   UNL     1       1.967   2.846  21.717  0.00  0.00    +0.000 C 
ENDROOT
BRANCH   2   9
ATOM      9  C   UNL     1       2.080   7.453  19.599  0.00  0.00    +0.000 A 
ATOM     10  C   UNL     1       1.532   8.331  20.538  0.00  0.00    +0.000 A 
ATOM     11  C   UNL     1       1.138   9.615  20.157  0.00  0.00    +0.000 A 
ATOM     12  C   UNL     1       1.318  10.027  18.841  0.00  0.00    +0.000 A 
ATOM     13 BR   UNL     1       0.737  11.741  18.303  0.00  0.00    +0.000 Br
ATOM     14  C   UNL     1       1.916   9.177  17.909  0.00  0.00    +0.000 A 
ATOM     15  C   UNL     1       2.309   7.889  18.289  0.00  0.00    +0.000 A 
ENDBRANCH   2   9
BRANCH   1  19
ATOM     16  C   UNL     1       6.408   5.738  16.596  0.00  0.00    +0.000 A 
ATOM     17  C   UNL     1       5.158   5.282  16.182  0.00  0.00    +0.000 A 
ATOM     18  C   UNL     1       4.118   5.146  17.099  0.00  0.00    +0.000 A 
ATOM     19  C   UNL     1       4.358   5.406  18.446  0.00  0.00    +0.000 A 
ATOM     20  C   UNL     1       5.593   5.867  18.881  0.00  0.00    +0.000 A 
ATOM     21  C   UNL     1       6.623   6.036  17.945  0.00  0.00    +0.000 A 
BRANCH  16  23
ATOM     22  C   UNL     1       7.113   4.968  14.477  0.00  0.00    +0.000 C 
ATOM     23  O   UNL     1       7.340   5.806  15.600  0.00  0.00    +0.000 OA
ENDBRANCH  16  23
ENDBRANCH   1  19
TORSDOF 3
ENDMDL
MODEL 3
REMARK VINA RESULT:      -7.3      1.591      2.305
REMARK  Name = 
REMARK  4 active torsions:
REMARK  status: ('A' for Active; 'I' for Inactive)
REMARK    1  A    between atoms: C_1  and  O_2
REMARK    2  A    between atoms: O_2  and  C_3
REMARK    3  A    between atoms: C_6  and  N_7
REMARK    4  A    between atoms: C_8  and  C_9
REMARK                            x       y       z     vdW  Elec       q    Type
REMARK                         _______ _______ _______ _____ _____    ______ ____
ROOT
ATOM      1  N   UNL     1       3.345   5.120  19.345  0.00  0.00    +0.000 N 
ATOM      2  C   UNL     1       2.372   6.023  19.873  0.00  0.00    +0.000 A 
ATOM      3  C   UNL     1       1.761   5.340  20.914  0.00  0.00    +0.000 A 
ATOM      4  N   UNL     1       2.282   4.086  20.924  0.00  0.00    +0.000 N 
ATOM      5  C   UNL     1       3.209   3.954  19.980  0.00  0.00    +0.000 A 
ATOM      6  C   UNL     1       3.877   2.626  20.034  0.00  0.00    +0.000 C 
ATOM      7  C   UNL     1       3.171   1.915  21.212  0.00  0.00    +0.000 C 
ATOM      8  C   UNL     1       2.098   2.903  21.744  0.00  0.00    +0.000 C 
ENDROOT
BRANCH   2   9
ATOM      9  C   UNL     1       2.039   7.420  19.439  0.00  0.00    +0.000 A 
ATOM     10  C   UNL     1       2.377   7.854  18.154  0.00  0.00    +0.000 A 
ATOM     11  C   UNL     1       2.196   9.190  17.792  0.00  0.00    +0.000 A 
ATOM     12  C   UNL     1       1.653  10.084  18.707  0.00  0.00    +0.000 A 
ATOM     13 BR   UNL     1       1.458  11.904  18.244  0.00  0.00    +0.000 Br
ATOM     14  C   UNL     1       1.261   9.647  19.974  0.00  0.00    +0.000 A 
ATOM     15  C   UNL     1       1.442   8.310  20.341  0.00  0.00    +0.000 A 
ENDBRANCH   2   9
BRANCH   1  19
ATOM     16  C   UNL     1       6.409   5.733  16.481  0.00  0.00    +0.000 A 
ATOM     17  C   UNL     1       5.193   5.168  16.103  0.00  0.00    +0.000 A 
ATOM     18  C   UNL     1       4.161   5.033  17.028  0.00  0.00    +0.000 A 
ATOM     19  C   UNL     1       4.378   5.406  18.353  0.00  0.00    +0.000 A 
ATOM     20  C   UNL     1       5.579   5.976  18.751  0.00  0.00    +0.000 A 
ATOM     21  C   UNL     1       6.598   6.143  17.805  0.00  0.00    +0.000 A 
BRANCH  16  23
ATOM     22  C   UNL     1       7.101   4.947  14.364  0.00  0.00    +0.000 C 
ATOM     23  O   UNL     1       7.339   5.788  15.482  0.00  0.00    +0.000 OA
ENDBRANCH  16  23
ENDBRANCH   1  19
TORSDOF 3
ENDMDL
MODEL 4
REMARK VINA RESULT:      -7.0      3.360      5.046
REMARK  Name = 
REMARK  4 active torsions:
REMARK  status: ('A' for Active; 'I' for Inactive)
REMARK    1  A    between atoms: C_1  and  O_2
REMARK    2  A    between atoms: O_2  and  C_3
REMARK    3  A    between atoms: C_6  and  N_7
REMARK    4  A    between atoms: C_8  and  C_9
REMARK                            x       y       z     vdW  Elec       q    Type
REMARK                         _______ _______ _______ _____ _____    ______ ____
ROOT
ATOM      1  N   UNL     1       6.156   5.097  16.029  0.00  0.00    +0.000 N 
ATOM      2  C   UNL     1       5.085   4.196  16.315  0.00  0.00    +0.000 A 
ATOM      3  C   UNL     1       4.948   3.413  15.180  0.00  0.00    +0.000 A 
ATOM      4  N   UNL     1       5.821   3.895  14.258  0.00  0.00    +0.000 N 
ATOM      5  C   UNL     1       6.524   4.906  14.760  0.00  0.00    +0.000 A 
ATOM      6  C   UNL     1       7.566   5.388  13.814  0.00  0.00    +0.000 C 
ATOM      7  C   UNL     1       7.377   4.478  12.577  0.00  0.00    +0.000 C 
ATOM      8  C   UNL     1       6.188   3.534  12.901  0.00  0.00    +0.000 C 
ENDROOT
BRANCH   2   9
ATOM      9  C   UNL     1       4.253   4.074  17.558  0.00  0.00    +0.000 A 
ATOM     10  C   UNL     1       4.726   3.337  18.647  0.00  0.00    +0.000 A 
ATOM     11  C   UNL     1       3.902   3.103  19.750  0.00  0.00    +0.000 A 
ATOM     12  C   UNL     1       2.616   3.630  19.772  0.00  0.00    +0.000 A 
ATOM     13 BR   UNL     1       1.476   3.271  21.234  0.00  0.00    +0.000 Br
ATOM     14  C   UNL     1       2.155   4.414  18.713  0.00  0.00    +0.000 A 
ATOM     15  C   UNL     1       2.977   4.648  17.606  0.00  0.00    +0.000 A 
ENDBRANCH   2   9
BRANCH   1  19
ATOM     16  C   UNL     1       8.253   7.766  18.568  0.00  0.00    +0.000 A 
ATOM     17  C   UNL     1       7.549   8.247  17.466  0.00  0.00    +0.000 A 
ATOM     18  C   UNL     1       6.801   7.379  16.674  0.00  0.00    +0.000 A 
ATOM     19  C   UNL     1       6.818   6.014  16.953  0.00  0.00    +0.000 A 
ATOM     20  C   UNL     1       7.507   5.513  18.048  0.00  0.00    +0.000 A 
ATOM     21  C   UNL     1       8.226   6.398  18.862  0.00  0.00    +0.000 A 
BRANCH  16  23
ATOM     22  C   UNL     1       8.939  10.022  18.684  0.00  0.00    +0.000 C 
ATOM     23  O   UNL     1       8.959   8.718  19.245  0.00  0.00    +0.000 OA
ENDBRANCH  16  23
ENDBRANCH   1  19
TORSDOF 3
ENDMDL
MODEL 5
REMARK VINA RESULT:      -6.9      0.322      1.049
REMARK  Name = 
REMARK  4 active torsions:
REMARK  status: ('A' for Active; 'I' for Inactive)
REMARK    1  A    between atoms: C_1  and  O_2
REMARK    2  A    between atoms: O_2  and  C_3
REMARK    3  A    between atoms: C_6  and  N_7
REMARK    4  A    between atoms: C_8  and  C_9
REMARK                            x       y       z     vdW  Elec       q    Type
REMARK                         _______ _______ _______ _____ _____    ______ ____
ROOT
ATOM      1  N   UNL     1       3.399   5.014  18.785  0.00  0.00    +0.000 N 
ATOM      2  C   UNL     1       2.234   5.543  19.421  0.00  0.00    +0.000 A 
ATOM      3  C   UNL     1       1.439   4.445  19.710  0.00  0.00    +0.000 A 
ATOM      4  N   UNL     1       2.061   3.358  19.186  0.00  0.00    +0.000 N 
ATOM      5  C   UNL     1       3.216   3.701  18.623  0.00  0.00    +0.000 A 
ATOM      6  C   UNL     1       3.975   2.519  18.136  0.00  0.00    +0.000 C 
ATOM      7  C   UNL     1       3.054   1.328  18.492  0.00  0.00    +0.000 C 
ATOM      8  C   UNL     1       1.784   1.933  19.149  0.00  0.00    +0.000 C 
ENDROOT
BRANCH   2   9
ATOM      9  C   UNL     1       1.891   6.969  19.738  0.00  0.00    +0.000 A 
ATOM     10  C   UNL     1       1.516   7.327  21.036  0.00  0.00    +0.000 A 
ATOM     11  C   UNL     1       1.062   8.619  21.307  0.00  0.00    +0.000 A 
ATOM     12  C   UNL     1       1.009   9.559  20.284  0.00  0.00    +0.000 A 
ATOM     13 BR   UNL     1       0.343  11.291  20.629  0.00  0.00    +0.000 Br
ATOM     14  C   UNL     1       1.434   9.226  18.996  0.00  0.00    +0.000 A 
ATOM     15  C   UNL     1       1.887   7.932  18.722  0.00  0.00    +0.000 A 
ENDBRANCH   2   9
BRANCH   1  19
ATOM     16  C   UNL     1       6.988   6.937  17.609  0.00  0.00    +0.000 A 
ATOM     17  C   UNL     1       5.791   7.216  16.953  0.00  0.00    +0.000 A 
ATOM     18  C   UNL     1       4.599   6.638  17.386  0.00  0.00    +0.000 A 
ATOM     19  C   UNL     1       4.625   5.727  18.439  0.00  0.00    +0.000 A 
ATOM     20  C   UNL     1       5.805   5.438  19.111  0.00  0.00    +0.000 A 
ATOM     21  C   UNL     1       6.993   6.052  18.693  0.00  0.00    +0.000 A 
BRANCH  16  23
ATOM     22  C   UNL     1       8.362   8.856  17.554  0.00  0.00    +0.000 C 
ATOM     23  O   UNL     1       8.081   7.552  17.071  0.00  0.00    +0.000 OA
ENDBRANCH  16  23
ENDBRANCH   1  19
TORSDOF 3
ENDMDL
MODEL 6
REMARK VINA RESULT:      -6.8      2.752      4.914
REMARK  Name = 
REMARK  4 active torsions:
REMARK  status: ('A' for Active; 'I' for Inactive)
REMARK    1  A    between atoms: C_1  and  O_2
REMARK    2  A    between atoms: O_2  and  C_3
REMARK    3  A    between atoms: C_6  and  N_7
REMARK    4  A    between atoms: C_8  and  C_9
REMARK                            x       y       z     vdW  Elec       q    Type
REMARK                         _______ _______ _______ _____ _____    ______ ____
ROOT
ATOM      1  N   UNL     1       4.229   5.143  17.289  0.00  0.00    +0.000 N 
ATOM      2  C   UNL     1       3.982   6.545  17.165  0.00  0.00    +0.000 A 
ATOM      3  C   UNL     1       4.712   6.953  16.060  0.00  0.00    +0.000 A 
ATOM      4  N   UNL     1       5.415   5.873  15.630  0.00  0.00    +0.000 N 
ATOM      5  C   UNL     1       5.138   4.805  16.373  0.00  0.00    +0.000 A 
ATOM      6  C   UNL     1       5.808   3.579  15.862  0.00  0.00    +0.000 C 
ATOM      7  C   UNL     1       6.594   4.085  14.629  0.00  0.00    +0.000 C 
ATOM      8  C   UNL     1       6.336   5.613  14.538  0.00  0.00    +0.000 C 
ENDROOT
BRANCH   2   9
ATOM      9  C   UNL     1       3.125   7.437  18.015  0.00  0.00    +0.000 A 
ATOM     10  C   UNL     1       2.819   7.070  19.328  0.00  0.00    +0.000 A 
ATOM     11  C   UNL     1       1.912   7.823  20.077  0.00  0.00    +0.000 A 
ATOM     12  C   UNL     1       1.333   8.957  19.518  0.00  0.00    +0.000 A 
ATOM     13 BR   UNL     1       0.063   9.948  20.503  0.00  0.00    +0.000 Br
ATOM     14  C   UNL     1       1.676   9.362  18.227  0.00  0.00    +0.000 A 
ATOM     15  C   UNL     1       2.582   8.609  17.474  0.00  0.00    +0.000 A 
ENDBRANCH   2   9
BRANCH   1  19
ATOM     16  C   UNL     1       2.217   2.579  19.999  0.00  0.00    +0.000 A 
ATOM     17  C   UNL     1       1.532   3.152  18.928  0.00  0.00    +0.000 A 
ATOM     18  C   UNL     1       2.209   3.936  17.998  0.00  0.00    +0.000 A 
ATOM     19  C   UNL     1       3.564   4.199  18.183  0.00  0.00    +0.000 A 
ATOM     20  C   UNL     1       4.268   3.635  19.239  0.00  0.00    +0.000 A 
ATOM     21  C   UNL     1       3.587   2.817  20.150  0.00  0.00    +0.000 A 
BRANCH  16  23
ATOM     22  C   UNL     1       1.205   2.420  22.127  0.00  0.00    +0.000 C 
ATOM     23  O   UNL     1       1.430   1.852  20.846  0.00  0.00    +0.000 OA
ENDBRANCH  16  23
ENDBRANCH   1  19
TORSDOF 3
ENDMDL
MODEL 7
REMARK VINA RESULT:      -6.8      0.313      1.055
REMARK  Name = 
REMARK  4 active torsions:
REMARK  status: ('A' for Active; 'I' for Inactive)
REMARK    1  A    between atoms: C_1  and  O_2
REMARK    2  A    between atoms: O_2  and  C_3
REMARK    3  A    between atoms: C_6  and  N_7
REMARK    4  A    between atoms: C_8  and  C_9
REMARK                            x       y       z     vdW  Elec       q    Type
REMARK                         _______ _______ _______ _____ _____    ______ ____
ROOT
ATOM      1  N   UNL     1       3.468   4.889  18.490  0.00  0.00    +0.000 N 
ATOM      2  C   UNL     1       2.290   5.471  19.050  0.00  0.00    +0.000 A 
ATOM      3  C   UNL     1       1.527   4.404  19.498  0.00  0.00    +0.000 A 
ATOM      4  N   UNL     1       2.179   3.271  19.132  0.00  0.00    +0.000 N 
ATOM      5  C   UNL     1       3.322   3.562  18.518  0.00  0.00    +0.000 A 
ATOM      6  C   UNL     1       4.114   2.344  18.201  0.00  0.00    +0.000 C 
ATOM      7  C   UNL     1       3.228   1.191  18.730  0.00  0.00    +0.000 C 
ATOM      8  C   UNL     1       1.943   1.848  19.301  0.00  0.00    +0.000 C 
ENDROOT
BRANCH   2   9
ATOM      9  C   UNL     1       1.906   6.918  19.160  0.00  0.00    +0.000 A 
ATOM     10  C   UNL     1       1.907   7.731  18.024  0.00  0.00    +0.000 A 
ATOM     11  C   UNL     1       1.687   9.106  18.141  0.00  0.00    +0.000 A 
ATOM     12  C   UNL     1       1.439   9.658  19.392  0.00  0.00    +0.000 A 
ATOM     13 BR   UNL     1       1.196  11.523  19.566  0.00  0.00    +0.000 Br
ATOM     14  C   UNL     1       1.380   8.845  20.525  0.00  0.00    +0.000 A 
ATOM     15  C   UNL     1       1.603   7.469  20.411  0.00  0.00    +0.000 A 
ENDBRANCH   2   9
BRANCH   1  19
ATOM     16  C   UNL     1       6.907   7.067  17.311  0.00  0.00    +0.000 A 
ATOM     17  C   UNL     1       6.902   6.350  18.506  0.00  0.00    +0.000 A 
ATOM     18  C   UNL     1       5.798   5.576  18.858  0.00  0.00    +0.000 A 
ATOM     19  C   UNL     1       4.672   5.579  18.037  0.00  0.00    +0.000 A 
ATOM     20  C   UNL     1       4.657   6.281  16.840  0.00  0.00    +0.000 A 
ATOM     21  C   UNL     1       5.786   7.027  16.475  0.00  0.00    +0.000 A 
BRANCH  16  23
ATOM     22  C   UNL     1       8.196   8.954  17.905  0.00  0.00    +0.000 C 
ATOM     23  O   UNL     1       8.041   7.797  17.098  0.00  0.00    +0.000 OA
ENDBRANCH  16  23
ENDBRANCH   1  19
TORSDOF 3
ENDMDL
MODEL 8
REMARK VINA RESULT:      -6.7      3.293      5.406
REMARK  Name = 
REMARK  4 active torsions:
REMARK  status: ('A' for Active; 'I' for Inactive)
REMARK    1  A    between atoms: C_1  and  O_2
REMARK    2  A    between atoms: O_2  and  C_3
REMARK    3  A    between atoms: C_6  and  N_7
REMARK    4  A    between atoms: C_8  and  C_9
REMARK                            x       y       z     vdW  Elec       q    Type
REMARK                         _______ _______ _______ _____ _____    ______ ____
ROOT
ATOM      1  N   UNL     1       3.595   4.840  19.098  0.00  0.00    +0.000 N 
ATOM      2  C   UNL     1       4.405   3.905  18.385  0.00  0.00    +0.000 A 
ATOM      3  C   UNL     1       4.240   2.695  19.042  0.00  0.00    +0.000 A 
ATOM      4  N   UNL     1       3.459   2.938  20.126  0.00  0.00    +0.000 N 
ATOM      5  C   UNL     1       3.092   4.216  20.166  0.00  0.00    +0.000 A 
ATOM      6  C   UNL     1       2.147   4.493  21.280  0.00  0.00    +0.000 C 
ATOM      7  C   UNL     1       1.989   3.116  21.969  0.00  0.00    +0.000 C 
ATOM      8  C   UNL     1       2.904   2.129  21.196  0.00  0.00    +0.000 C 
ENDROOT
BRANCH   2   9
ATOM      9  C   UNL     1       5.268   4.123  17.176  0.00  0.00    +0.000 A 
ATOM     10  C   UNL     1       6.587   4.560  17.328  0.00  0.00    +0.000 A 
ATOM     11  C   UNL     1       7.350   4.898  16.209  0.00  0.00    +0.000 A 
ATOM     12  C   UNL     1       6.801   4.773  14.938  0.00  0.00    +0.000 A 
ATOM     13 BR   UNL     1       7.806   5.281  13.423  0.00  0.00    +0.000 Br
ATOM     14  C   UNL     1       5.503   4.284  14.774  0.00  0.00    +0.000 A 
ATOM     15  C   UNL     1       4.736   3.947  15.894  0.00  0.00    +0.000 A 
ENDBRANCH   2   9
BRANCH   1  19
ATOM     16  C   UNL     1       2.484   8.747  17.886  0.00  0.00    +0.000 A 
ATOM     17  C   UNL     1       1.899   8.163  19.008  0.00  0.00    +0.000 A 
ATOM     18  C   UNL     1       2.316   6.909  19.448  0.00  0.00    +0.000 A 
ATOM     19  C   UNL     1       3.276   6.213  18.717  0.00  0.00    +0.000 A 
ATOM     20  C   UNL     1       3.876   6.776  17.600  0.00  0.00    +0.000 A 
ATOM     21  C   UNL     1       3.478   8.054  17.186  0.00  0.00    +0.000 A 
BRANCH  16  23
ATOM     22  C   UNL     1       1.354  10.691  18.607  0.00  0.00    +0.000 C 
ATOM     23  O   UNL     1       1.970   9.967  17.553  0.00  0.00    +0.000 OA
ENDBRANCH  16  23
ENDBRANCH   1  19
TORSDOF 3
ENDMDL
MODEL 9
REMARK VINA RESULT:      -6.7      4.310      7.064
REMARK  Name = 
REMARK  4 active torsions:
REMARK  status: ('A' for Active; 'I' for Inactive)
REMARK    1  A    between atoms: C_1  and  O_2
REMARK    2  A    between atoms: O_2  and  C_3
REMARK    3  A    between atoms: C_6  and  N_7
REMARK    4  A    between atoms: C_8  and  C_9
REMARK                            x       y       z     vdW  Elec       q    Type
REMARK                         _______ _______ _______ _____ _____    ______ ____
ROOT
ATOM      1  N   UNL     1      -0.085  10.795  18.603  0.00  0.00    +0.000 N 
ATOM      2  C   UNL     1       0.165  12.188  18.799  0.00  0.00    +0.000 A 
ATOM      3  C   UNL     1      -1.053  12.815  18.584  0.00  0.00    +0.000 A 
ATOM      4  N   UNL     1      -1.929  11.855  18.193  0.00  0.00    +0.000 N 
ATOM      5  C   UNL     1      -1.346  10.660  18.188  0.00  0.00    +0.000 A 
ATOM      6  C   UNL     1      -2.307   9.570  17.870  0.00  0.00    +0.000 C 
ATOM      7  C   UNL     1      -3.643  10.319  17.653  0.00  0.00    +0.000 C 
ATOM      8  C   UNL     1      -3.337  11.829  17.838  0.00  0.00    +0.000 C 
ENDROOT
BRANCH   2   9
ATOM      9  C   UNL     1       1.445  12.882  19.163  0.00  0.00    +0.000 A 
ATOM     10  C   UNL     1       1.759  13.112  20.505  0.00  0.00    +0.000 A 
ATOM     11  C   UNL     1       2.876  13.877  20.846  0.00  0.00    +0.000 A 
ATOM     12  C   UNL     1       3.691  14.389  19.843  0.00  0.00    +0.000 A 
ATOM     13 BR   UNL     1       5.171  15.472  20.292  0.00  0.00    +0.000 Br
ATOM     14  C   UNL     1       3.416  14.117  18.501  0.00  0.00    +0.000 A 
ATOM     15  C   UNL     1       2.297  13.353  18.157  0.00  0.00    +0.000 A 
ENDBRANCH   2   9
BRANCH   1  19
ATOM     16  C   UNL     1       2.381   7.424  19.322  0.00  0.00    +0.000 A 
ATOM     17  C   UNL     1       2.297   7.977  18.046  0.00  0.00    +0.000 A 
ATOM     18  C   UNL     1       1.544   9.127  17.825  0.00  0.00    +0.000 A 
ATOM     19  C   UNL     1       0.820   9.682  18.878  0.00  0.00    +0.000 A 
ATOM     20  C   UNL     1       0.892   9.152  20.158  0.00  0.00    +0.000 A 
ATOM     21  C   UNL     1       1.682   8.016  20.380  0.00  0.00    +0.000 A 
BRANCH  16  23
ATOM     22  C   UNL     1       3.022   5.395  18.298  0.00  0.00    +0.000 C 
ATOM     23  O   UNL     1       3.135   6.288  19.395  0.00  0.00    +0.000 OA
ENDBRANCH  16  23
ENDBRANCH   1  19
TORSDOF 3
ENDMDL
