MODEL 1
REMARK VINA RESULT:      -7.0      0.000      0.000
REMARK  Name = 
REMARK  7 active torsions:
REMARK  status: ('A' for Active; 'I' for Inactive)
REMARK    1  A    between atoms: C_1  and  C_2
REMARK    2  A    between atoms: C_2  and  C_3
REMARK    3  A    between atoms: C_6  and  N_7
REMARK    4  A    between atoms: C_8  and  C_10
REMARK    5  A    between atoms: C_10  and  C_11
REMARK    6  A    between atoms: N_17  and  C_18
REMARK    7  A    between atoms: C_18  and  C_19
REMARK                            x       y       z     vdW  Elec       q    Type
REMARK                         _______ _______ _______ _____ _____    ______ ____
ROOT
ATOM      1  N   UNL     1       5.464   4.561  18.501  0.00  0.00    +0.000 N 
ATOM      2  C   UNL     1       4.745   3.912  17.508  0.00  0.00    +0.000 C 
ATOM      3  O   UNL     1       4.771   4.194  16.311  0.00  0.00    +0.000 OA
ATOM      4  H   UNL     1       5.392   4.213  19.448  0.00  0.00    +0.000 HD
ENDROOT
BRANCH   1   8
ATOM      5  C   UNL     1       7.861   8.035  17.914  0.00  0.00    +0.000 A 
ATOM      6  C   UNL     1       8.295   7.024  18.771  0.00  0.00    +0.000 A 
ATOM      7  C   UNL     1       7.525   5.871  18.965  0.00  0.00    +0.000 A 
ATOM      8  C   UNL     1       6.304   5.694  18.311  0.00  0.00    +0.000 A 
ATOM      9  C   UNL     1       5.889   6.690  17.416  0.00  0.00    +0.000 A 
ATOM     10  C   UNL     1       6.659   7.849  17.221  0.00  0.00    +0.000 A 
BRANCH   5  12
ATOM     11  C   UNL     1       9.087   9.907  19.085  0.00  0.00    +0.000 C 
ATOM     12  C   UNL     1       8.677   9.294  17.755  0.00  0.00    +0.000 C 
ENDBRANCH   5  12
ENDBRANCH   1   8
BRANCH   2  13
ATOM     13  C   UNL     1       3.849   2.781  17.983  0.00  0.00    +0.000 C 
BRANCH  13  14
ATOM     14  C   UNL     1       3.140   3.073  19.311  0.00  0.00    +0.000 C 
ATOM     15  C   UNL     1       1.846   2.259  19.508  0.00  0.00    +0.000 C 
ATOM     16  O   UNL     1       1.279   1.611  18.639  0.00  0.00    +0.000 OA
ATOM     17  O   UNL     1       1.336   2.340  20.776  0.00  0.00    +0.000 OA
ATOM     18  C   UNL     1       1.948   3.293  21.662  0.00  0.00    +0.000 C 
ATOM     19  C   UNL     1       2.186   4.628  20.944  0.00  0.00    +0.000 C 
ATOM     20  N   UNL     1       2.877   4.519  19.622  0.00  0.00    +0.000 NA
BRANCH  20  21
ATOM     21  C   UNL     1       2.079   5.301  18.648  0.00  0.00    +0.000 C 
ATOM     22  C   UNL     1       2.420   6.769  18.429  0.00  0.00    +0.000 C 
ENDBRANCH  20  21
ENDBRANCH  13  14
ENDBRANCH   2  13
TORSDOF 5
ENDMDL
MODEL 2
REMARK VINA RESULT:      -7.0      3.179      5.690
REMARK  Name = 
REMARK  7 active torsions:
REMARK  status: ('A' for Active; 'I' for Inactive)
REMARK    1  A    between atoms: C_1  and  C_2
REMARK    2  A    between atoms: C_2  and  C_3
REMARK    3  A    between atoms: C_6  and  N_7
REMARK    4  A    between atoms: C_8  and  C_10
REMARK    5  A    between atoms: C_10  and  C_11
REMARK    6  A    between atoms: N_17  and  C_18
REMARK    7  A    between atoms: C_18  and  C_19
REMARK                            x       y       z     vdW  Elec       q    Type
REMARK                         _______ _______ _______ _____ _____    ______ ____
ROOT
ATOM      1  N   UNL     1       9.064   8.994  19.048  0.00  0.00    +0.000 N 
ATOM      2  C   UNL     1       8.166   8.466  18.133  0.00  0.00    +0.000 C 
ATOM      3  O   UNL     1       7.556   9.111  17.282  0.00  0.00    +0.000 OA
ATOM      4  H   UNL     1       9.536   8.357  19.677  0.00  0.00    +0.000 HD
ENDROOT
BRANCH   1   8
ATOM      5  C   UNL     1      10.091  13.091  19.612  0.00  0.00    +0.000 A 
ATOM      6  C   UNL     1      10.062  12.550  18.327  0.00  0.00    +0.000 A 
ATOM      7  C   UNL     1       9.715  11.208  18.124  0.00  0.00    +0.000 A 
ATOM      8  C   UNL     1       9.386  10.373  19.194  0.00  0.00    +0.000 A 
ATOM      9  C   UNL     1       9.371  10.929  20.481  0.00  0.00    +0.000 A 
ATOM     10  C   UNL     1       9.721  12.274  20.687  0.00  0.00    +0.000 A 
BRANCH   5  12
ATOM     11  C   UNL     1      12.020  14.717  19.714  0.00  0.00    +0.000 C 
ATOM     12  C   UNL     1      10.515  14.524  19.820  0.00  0.00    +0.000 C 
ENDBRANCH   5  12
ENDBRANCH   1   8
BRANCH   2  13
ATOM     13  C   UNL     1       7.928   6.970  18.239  0.00  0.00    +0.000 C 
BRANCH  13  14
ATOM     14  C   UNL     1       6.494   6.548  17.895  0.00  0.00    +0.000 C 
ATOM     15  C   UNL     1       5.905   5.518  18.878  0.00  0.00    +0.000 C 
ATOM     16  O   UNL     1       6.541   4.899  19.720  0.00  0.00    +0.000 OA
ATOM     17  O   UNL     1       4.561   5.313  18.716  0.00  0.00    +0.000 OA
ATOM     18  C   UNL     1       3.946   5.919  17.567  0.00  0.00    +0.000 C 
ATOM     19  C   UNL     1       4.815   5.722  16.317  0.00  0.00    +0.000 C 
ATOM     20  N   UNL     1       6.254   6.092  16.485  0.00  0.00    +0.000 NA
BRANCH  20  21
ATOM     21  C   UNL     1       7.058   4.953  15.980  0.00  0.00    +0.000 C 
ATOM     22  C   UNL     1       6.539   4.156  14.791  0.00  0.00    +0.000 C 
ENDBRANCH  20  21
ENDBRANCH  13  14
ENDBRANCH   2  13
TORSDOF 5
ENDMDL
MODEL 3
REMARK VINA RESULT:      -6.8      3.159      5.654
REMARK  Name = 
REMARK  7 active torsions:
REMARK  status: ('A' for Active; 'I' for Inactive)
REMARK    1  A    between atoms: C_1  and  C_2
REMARK    2  A    between atoms: C_2  and  C_3
REMARK    3  A    between atoms: C_6  and  N_7
REMARK    4  A    between atoms: C_8  and  C_10
REMARK    5  A    between atoms: C_10  and  C_11
REMARK    6  A    between atoms: N_17  and  C_18
REMARK    7  A    between atoms: C_18  and  C_19
REMARK                            x       y       z     vdW  Elec       q    Type
REMARK                         _______ _______ _______ _____ _____    ______ ____
ROOT
ATOM      1  N   UNL     1       9.081   8.999  19.080  0.00  0.00    +0.000 N 
ATOM      2  C   UNL     1       8.172   8.505  18.157  0.00  0.00    +0.000 C 
ATOM      3  O   UNL     1       7.538   9.185  17.350  0.00  0.00    +0.000 OA
ATOM      4  H   UNL     1       9.573   8.336  19.667  0.00  0.00    +0.000 HD
ENDROOT
BRANCH   1   8
ATOM      5  C   UNL     1       9.953  13.141  19.571  0.00  0.00    +0.000 A 
ATOM      6  C   UNL     1       9.596  12.367  20.675  0.00  0.00    +0.000 A 
ATOM      7  C   UNL     1       9.318  11.002  20.533  0.00  0.00    +0.000 A 
ATOM      8  C   UNL     1       9.390  10.372  19.288  0.00  0.00    +0.000 A 
ATOM      9  C   UNL     1       9.792  11.140  18.186  0.00  0.00    +0.000 A 
ATOM     10  C   UNL     1      10.069  12.511  18.327  0.00  0.00    +0.000 A 
BRANCH   5  12
ATOM     11  C   UNL     1       9.814  15.423  18.500  0.00  0.00    +0.000 C 
ATOM     12  C   UNL     1      10.199  14.620  19.733  0.00  0.00    +0.000 C 
ENDBRANCH   5  12
ENDBRANCH   1   8
BRANCH   2  13
ATOM     13  C   UNL     1       7.954   7.003  18.192  0.00  0.00    +0.000 C 
BRANCH  13  14
ATOM     14  C   UNL     1       6.522   6.580  17.839  0.00  0.00    +0.000 C 
ATOM     15  C   UNL     1       5.968   5.468  18.751  0.00  0.00    +0.000 C 
ATOM     16  O   UNL     1       6.629   4.801  19.534  0.00  0.00    +0.000 OA
ATOM     17  O   UNL     1       4.626   5.249  18.594  0.00  0.00    +0.000 OA
ATOM     18  C   UNL     1       3.981   5.928  17.503  0.00  0.00    +0.000 C 
ATOM     19  C   UNL     1       4.832   5.841  16.229  0.00  0.00    +0.000 C 
ATOM     20  N   UNL     1       6.267   6.226  16.402  0.00  0.00    +0.000 NA
BRANCH  20  21
ATOM     21  C   UNL     1       7.084   5.144  15.802  0.00  0.00    +0.000 C 
ATOM     22  C   UNL     1       6.380   4.025  15.045  0.00  0.00    +0.000 C 
ENDBRANCH  20  21
ENDBRANCH  13  14
ENDBRANCH   2  13
TORSDOF 5
ENDMDL
MODEL 4
REMARK VINA RESULT:      -6.8      2.865      6.077
REMARK  Name = 
REMARK  7 active torsions:
REMARK  status: ('A' for Active; 'I' for Inactive)
REMARK    1  A    between atoms: C_1  and  C_2
REMARK    2  A    between atoms: C_2  and  C_3
REMARK    3  A    between atoms: C_6  and  N_7
REMARK    4  A    between atoms: C_8  and  C_10
REMARK    5  A    between atoms: C_10  and  C_11
REMARK    6  A    between atoms: N_17  and  C_18
REMARK    7  A    between atoms: C_18  and  C_19
REMARK                            x       y       z     vdW  Elec       q    Type
REMARK                         _______ _______ _______ _____ _____    ______ ____
ROOT
ATOM      1  N   UNL     1       3.038   7.152  18.224  0.00  0.00    +0.000 N 
ATOM      2  C   UNL     1       2.787   5.877  17.741  0.00  0.00    +0.000 C 
ATOM      3  O   UNL     1       1.744   5.246  17.908  0.00  0.00    +0.000 OA
ATOM      4  H   UNL     1       3.922   7.586  17.989  0.00  0.00    +0.000 HD
ENDROOT
BRANCH   1   8
ATOM      5  C   UNL     1       0.487   9.420  20.775  0.00  0.00    +0.000 A 
ATOM      6  C   UNL     1       0.669   9.807  19.448  0.00  0.00    +0.000 A 
ATOM      7  C   UNL     1       1.494   9.065  18.593  0.00  0.00    +0.000 A 
ATOM      8  C   UNL     1       2.158   7.919  19.037  0.00  0.00    +0.000 A 
ATOM      9  C   UNL     1       1.940   7.506  20.359  0.00  0.00    +0.000 A 
ATOM     10  C   UNL     1       1.113   8.250  21.219  0.00  0.00    +0.000 A 
BRANCH   5  12
ATOM     11  C   UNL     1      -0.329   9.774  23.138  0.00  0.00    +0.000 C 
ATOM     12  C   UNL     1      -0.365  10.257  21.696  0.00  0.00    +0.000 C 
ENDBRANCH   5  12
ENDBRANCH   1   8
BRANCH   2  13
ATOM     13  C   UNL     1       3.926   5.233  16.969  0.00  0.00    +0.000 C 
BRANCH  13  14
ATOM     14  C   UNL     1       5.301   5.437  17.617  0.00  0.00    +0.000 C 
ATOM     15  C   UNL     1       6.459   4.832  16.800  0.00  0.00    +0.000 C 
ATOM     16  O   UNL     1       6.333   4.065  15.855  0.00  0.00    +0.000 OA
ATOM     17  O   UNL     1       7.698   5.205  17.247  0.00  0.00    +0.000 OA
ATOM     18  C   UNL     1       7.749   5.929  18.488  0.00  0.00    +0.000 C 
ATOM     19  C   UNL     1       6.822   5.288  19.530  0.00  0.00    +0.000 C 
ATOM     20  N   UNL     1       5.429   5.022  19.054  0.00  0.00    +0.000 NA
BRANCH  20  21
ATOM     21  C   UNL     1       5.112   3.616  19.399  0.00  0.00    +0.000 C 
ATOM     22  C   UNL     1       3.796   3.309  20.101  0.00  0.00    +0.000 C 
ENDBRANCH  20  21
ENDBRANCH  13  14
ENDBRANCH   2  13
TORSDOF 5
ENDMDL
MODEL 5
REMARK VINA RESULT:      -6.8      3.690      6.859
REMARK  Name = 
REMARK  7 active torsions:
REMARK  status: ('A' for Active; 'I' for Inactive)
REMARK    1  A    between atoms: C_1  and  C_2
REMARK    2  A    between atoms: C_2  and  C_3
REMARK    3  A    between atoms: C_6  and  N_7
REMARK    4  A    between atoms: C_8  and  C_10
REMARK    5  A    between atoms: C_10  and  C_11
REMARK    6  A    between atoms: N_17  and  C_18
REMARK    7  A    between atoms: C_18  and  C_19
REMARK                            x       y       z     vdW  Elec       q    Type
REMARK                         _______ _______ _______ _____ _____    ______ ____
ROOT
ATOM      1  N   UNL     1       2.032   8.200  18.895  0.00  0.00    +0.000 N 
ATOM      2  C   UNL     1       2.594   6.933  18.927  0.00  0.00    +0.000 C 
ATOM      3  O   UNL     1       2.517   6.145  19.868  0.00  0.00    +0.000 OA
ATOM      4  H   UNL     1       2.130   8.745  18.047  0.00  0.00    +0.000 HD
ENDROOT
BRANCH   1   8
ATOM      5  C   UNL     1      -0.203  10.079  21.998  0.00  0.00    +0.000 A 
ATOM      6  C   UNL     1       0.696   9.058  22.306  0.00  0.00    +0.000 A 
ATOM      7  C   UNL     1       1.447   8.439  21.299  0.00  0.00    +0.000 A 
ATOM      8  C   UNL     1       1.324   8.821  19.961  0.00  0.00    +0.000 A 
ATOM      9  C   UNL     1       0.453   9.878  19.658  0.00  0.00    +0.000 A 
ATOM     10  C   UNL     1      -0.302  10.499  20.667  0.00  0.00    +0.000 A 
BRANCH   5  12
ATOM     11  C   UNL     1      -1.242  12.198  22.898  0.00  0.00    +0.000 C 
ATOM     12  C   UNL     1      -1.041  10.702  23.087  0.00  0.00    +0.000 C 
ENDBRANCH   5  12
ENDBRANCH   1   8
BRANCH   2  13
ATOM     13  C   UNL     1       3.380   6.534  17.690  0.00  0.00    +0.000 C 
BRANCH  13  14
ATOM     14  C   UNL     1       4.901   6.557  17.892  0.00  0.00    +0.000 C 
ATOM     15  C   UNL     1       5.692   6.670  16.574  0.00  0.00    +0.000 C 
ATOM     16  O   UNL     1       5.224   6.529  15.453  0.00  0.00    +0.000 OA
ATOM     17  O   UNL     1       7.026   6.921  16.757  0.00  0.00    +0.000 OA
ATOM     18  C   UNL     1       7.519   6.855  18.106  0.00  0.00    +0.000 C 
ATOM     19  C   UNL     1       6.960   5.624  18.831  0.00  0.00    +0.000 C 
ATOM     20  N   UNL     1       5.477   5.454  18.732  0.00  0.00    +0.000 NA
BRANCH  20  21
ATOM     21  C   UNL     1       5.226   4.057  18.307  0.00  0.00    +0.000 C 
ATOM     22  C   UNL     1       4.313   3.181  19.156  0.00  0.00    +0.000 C 
ENDBRANCH  20  21
ENDBRANCH  13  14
ENDBRANCH   2  13
TORSDOF 5
ENDMDL
MODEL 6
REMARK VINA RESULT:      -6.8      3.137      6.396
REMARK  Name = 
REMARK  7 active torsions:
REMARK  status: ('A' for Active; 'I' for Inactive)
REMARK    1  A    between atoms: C_1  and  C_2
REMARK    2  A    between atoms: C_2  and  C_3
REMARK    3  A    between atoms: C_6  and  N_7
REMARK    4  A    between atoms: C_8  and  C_10
REMARK    5  A    between atoms: C_10  and  C_11
REMARK    6  A    between atoms: N_17  and  C_18
REMARK    7  A    between atoms: C_18  and  C_19
REMARK                            x       y       z     vdW  Elec       q    Type
REMARK                         _______ _______ _______ _____ _____    ______ ____
ROOT
ATOM      1  N   UNL     1       2.661   7.089  18.328  0.00  0.00    +0.000 N 
ATOM      2  C   UNL     1       2.625   5.703  18.364  0.00  0.00    +0.000 C 
ATOM      3  O   UNL     1       1.958   5.029  19.148  0.00  0.00    +0.000 OA
ATOM      4  H   UNL     1       3.219   7.533  17.610  0.00  0.00    +0.000 HD
ENDROOT
BRANCH   1   8
ATOM      5  C   UNL     1       0.531   9.735  20.901  0.00  0.00    +0.000 A 
ATOM      6  C   UNL     1       1.100   8.570  21.415  0.00  0.00    +0.000 A 
ATOM      7  C   UNL     1       1.813   7.696  20.585  0.00  0.00    +0.000 A 
ATOM      8  C   UNL     1       1.980   7.960  19.223  0.00  0.00    +0.000 A 
ATOM      9  C   UNL     1       1.445   9.153  18.716  0.00  0.00    +0.000 A 
ATOM     10  C   UNL     1       0.727  10.030  19.547  0.00  0.00    +0.000 A 
BRANCH   5  12
ATOM     11  C   UNL     1      -0.648   9.987  23.120  0.00  0.00    +0.000 C 
ATOM     12  C   UNL     1      -0.278  10.640  21.797  0.00  0.00    +0.000 C 
ENDBRANCH   5  12
ENDBRANCH   1   8
BRANCH   2  13
ATOM     13  C   UNL     1       3.513   4.999  17.353  0.00  0.00    +0.000 C 
BRANCH  13  14
ATOM     14  C   UNL     1       4.995   5.381  17.462  0.00  0.00    +0.000 C 
ATOM     15  C   UNL     1       5.358   6.657  16.678  0.00  0.00    +0.000 C 
ATOM     16  O   UNL     1       4.640   7.212  15.858  0.00  0.00    +0.000 OA
ATOM     17  O   UNL     1       6.613   7.130  16.954  0.00  0.00    +0.000 OA
ATOM     18  C   UNL     1       7.458   6.295  17.763  0.00  0.00    +0.000 C 
ATOM     19  C   UNL     1       7.375   4.832  17.305  0.00  0.00    +0.000 C 
ATOM     20  N   UNL     1       5.986   4.298  17.150  0.00  0.00    +0.000 NA
BRANCH  20  21
ATOM     21  C   UNL     1       5.913   3.657  15.815  0.00  0.00    +0.000 C 
ATOM     22  C   UNL     1       6.666   4.290  14.652  0.00  0.00    +0.000 C 
ENDBRANCH  20  21
ENDBRANCH  13  14
ENDBRANCH   2  13
TORSDOF 5
ENDMDL
MODEL 7
REMARK VINA RESULT:      -6.7      3.141      6.239
REMARK  Name = 
REMARK  7 active torsions:
REMARK  status: ('A' for Active; 'I' for Inactive)
REMARK    1  A    between atoms: C_1  and  C_2
REMARK    2  A    between atoms: C_2  and  C_3
REMARK    3  A    between atoms: C_6  and  N_7
REMARK    4  A    between atoms: C_8  and  C_10
REMARK    5  A    between atoms: C_10  and  C_11
REMARK    6  A    between atoms: N_17  and  C_18
REMARK    7  A    between atoms: C_18  and  C_19
REMARK                            x       y       z     vdW  Elec       q    Type
REMARK                         _______ _______ _______ _____ _____    ______ ____
ROOT
ATOM      1  N   UNL     1       2.460   6.952  19.517  0.00  0.00    +0.000 N 
ATOM      2  C   UNL     1       2.279   5.622  19.864  0.00  0.00    +0.000 C 
ATOM      3  O   UNL     1       1.419   5.200  20.635  0.00  0.00    +0.000 OA
ATOM      4  H   UNL     1       3.179   7.176  18.840  0.00  0.00    +0.000 HD
ENDROOT
BRANCH   1   8
ATOM      5  C   UNL     1       0.178  10.258  20.940  0.00  0.00    +0.000 A 
ATOM      6  C   UNL     1       0.574   9.252  21.821  0.00  0.00    +0.000 A 
ATOM      7  C   UNL     1       1.334   8.165  21.371  0.00  0.00    +0.000 A 
ATOM      8  C   UNL     1       1.722   8.053  20.034  0.00  0.00    +0.000 A 
ATOM      9  C   UNL     1       1.362   9.086  19.158  0.00  0.00    +0.000 A 
ATOM     10  C   UNL     1       0.597  10.177  19.607  0.00  0.00    +0.000 A 
BRANCH   5  12
ATOM     11  C   UNL     1      -1.085  11.251  22.888  0.00  0.00    +0.000 C 
ATOM     12  C   UNL     1      -0.683  11.396  21.428  0.00  0.00    +0.000 C 
ENDBRANCH   5  12
ENDBRANCH   1   8
BRANCH   2  13
ATOM     13  C   UNL     1       3.257   4.643  19.239  0.00  0.00    +0.000 C 
BRANCH  13  14
ATOM     14  C   UNL     1       4.059   5.234  18.072  0.00  0.00    +0.000 C 
ATOM     15  C   UNL     1       4.457   4.191  17.010  0.00  0.00    +0.000 C 
ATOM     16  O   UNL     1       4.371   2.978  17.144  0.00  0.00    +0.000 OA
ATOM     17  O   UNL     1       4.966   4.742  15.865  0.00  0.00    +0.000 OA
ATOM     18  C   UNL     1       5.228   6.155  15.886  0.00  0.00    +0.000 C 
ATOM     19  C   UNL     1       5.920   6.561  17.194  0.00  0.00    +0.000 C 
ATOM     20  N   UNL     1       5.257   6.061  18.439  0.00  0.00    +0.000 NA
BRANCH  20  21
ATOM     21  C   UNL     1       6.309   5.425  19.267  0.00  0.00    +0.000 C 
ATOM     22  C   UNL     1       7.771   5.695  18.936  0.00  0.00    +0.000 C 
ENDBRANCH  20  21
ENDBRANCH  13  14
ENDBRANCH   2  13
TORSDOF 5
ENDMDL
MODEL 8
REMARK VINA RESULT:      -6.6      3.295      6.393
REMARK  Name = 
REMARK  7 active torsions:
REMARK  status: ('A' for Active; 'I' for Inactive)
REMARK    1  A    between atoms: C_1  and  C_2
REMARK    2  A    between atoms: C_2  and  C_3
REMARK    3  A    between atoms: C_6  and  N_7
REMARK    4  A    between atoms: C_8  and  C_10
REMARK    5  A    between atoms: C_10  and  C_11
REMARK    6  A    between atoms: N_17  and  C_18
REMARK    7  A    between atoms: C_18  and  C_19
REMARK                            x       y       z     vdW  Elec       q    Type
REMARK                         _______ _______ _______ _____ _____    ______ ____
ROOT
ATOM      1  N   UNL     1       2.461   7.087  19.893  0.00  0.00    +0.000 N 
ATOM      2  C   UNL     1       2.222   5.735  20.088  0.00  0.00    +0.000 C 
ATOM      3  O   UNL     1       1.183   5.255  20.541  0.00  0.00    +0.000 OA
ATOM      4  H   UNL     1       3.342   7.361  19.476  0.00  0.00    +0.000 HD
ENDROOT
BRANCH   1   8
ATOM      5  C   UNL     1      -0.143  10.256  21.048  0.00  0.00    +0.000 A 
ATOM      6  C   UNL     1       0.322  10.179  19.736  0.00  0.00    +0.000 A 
ATOM      7  C   UNL     1       1.169   9.137  19.337  0.00  0.00    +0.000 A 
ATOM      8  C   UNL     1       1.572   8.145  20.234  0.00  0.00    +0.000 A 
ATOM      9  C   UNL     1       1.068   8.198  21.541  0.00  0.00    +0.000 A 
ATOM     10  C   UNL     1       0.220   9.244  21.943  0.00  0.00    +0.000 A 
BRANCH   5  12
ATOM     11  C   UNL     1      -1.246  11.456  22.977  0.00  0.00    +0.000 C 
ATOM     12  C   UNL     1      -1.014  11.412  21.475  0.00  0.00    +0.000 C 
ENDBRANCH   5  12
ENDBRANCH   1   8
BRANCH   2  13
ATOM     13  C   UNL     1       3.368   4.808  19.723  0.00  0.00    +0.000 C 
BRANCH  13  14
ATOM     14  C   UNL     1       4.066   5.180  18.409  0.00  0.00    +0.000 C 
ATOM     15  C   UNL     1       4.295   3.977  17.474  0.00  0.00    +0.000 C 
ATOM     16  O   UNL     1       4.165   2.802  17.789  0.00  0.00    +0.000 OA
ATOM     17  O   UNL     1       4.704   4.331  16.216  0.00  0.00    +0.000 OA
ATOM     18  C   UNL     1       5.036   5.714  16.007  0.00  0.00    +0.000 C 
ATOM     19  C   UNL     1       5.884   6.251  17.167  0.00  0.00    +0.000 C 
ATOM     20  N   UNL     1       5.336   5.972  18.531  0.00  0.00    +0.000 NA
BRANCH  20  21
ATOM     21  C   UNL     1       6.439   5.391  19.333  0.00  0.00    +0.000 C 
ATOM     22  C   UNL     1       7.869   5.527  18.826  0.00  0.00    +0.000 C 
ENDBRANCH  20  21
ENDBRANCH  13  14
ENDBRANCH   2  13
TORSDOF 5
ENDMDL
MODEL 9
REMARK VINA RESULT:      -6.6      3.231      5.113
REMARK  Name = 
REMARK  7 active torsions:
REMARK  status: ('A' for Active; 'I' for Inactive)
REMARK    1  A    between atoms: C_1  and  C_2
REMARK    2  A    between atoms: C_2  and  C_3
REMARK    3  A    between atoms: C_6  and  N_7
REMARK    4  A    between atoms: C_8  and  C_10
REMARK    5  A    between atoms: C_10  and  C_11
REMARK    6  A    between atoms: N_17  and  C_18
REMARK    7  A    between atoms: C_18  and  C_19
REMARK                            x       y       z     vdW  Elec       q    Type
REMARK                         _______ _______ _______ _____ _____    ______ ____
ROOT
ATOM      1  N   UNL     1       2.646   6.824  19.278  0.00  0.00    +0.000 N 
ATOM      2  C   UNL     1       3.659   6.325  18.473  0.00  0.00    +0.000 C 
ATOM      3  O   UNL     1       4.190   6.928  17.542  0.00  0.00    +0.000 OA
ATOM      4  H   UNL     1       2.314   6.247  20.041  0.00  0.00    +0.000 HD
ENDROOT
BRANCH   1   8
ATOM      5  C   UNL     1       0.790  10.646  18.961  0.00  0.00    +0.000 A 
ATOM      6  C   UNL     1       1.382  10.064  17.841  0.00  0.00    +0.000 A 
ATOM      7  C   UNL     1       1.986   8.803  17.926  0.00  0.00    +0.000 A 
ATOM      8  C   UNL     1       2.014   8.089  19.126  0.00  0.00    +0.000 A 
ATOM      9  C   UNL     1       1.379   8.655  20.241  0.00  0.00    +0.000 A 
ATOM     10  C   UNL     1       0.774   9.921  20.158  0.00  0.00    +0.000 A 
BRANCH   5  12
ATOM     11  C   UNL     1      -1.249  12.014  18.367  0.00  0.00    +0.000 C 
ATOM     12  C   UNL     1       0.188  12.026  18.866  0.00  0.00    +0.000 C 
ENDBRANCH   5  12
ENDBRANCH   1   8
BRANCH   2  13
ATOM     13  C   UNL     1       4.105   4.907  18.786  0.00  0.00    +0.000 C 
BRANCH  13  14
ATOM     14  C   UNL     1       3.284   4.233  19.893  0.00  0.00    +0.000 C 
ATOM     15  C   UNL     1       3.876   2.890  20.364  0.00  0.00    +0.000 C 
ATOM     16  O   UNL     1       4.766   2.272  19.797  0.00  0.00    +0.000 OA
ATOM     17  O   UNL     1       3.286   2.400  21.498  0.00  0.00    +0.000 OA
ATOM     18  C   UNL     1       2.111   3.084  21.966  0.00  0.00    +0.000 C 
ATOM     19  C   UNL     1       1.167   3.404  20.799  0.00  0.00    +0.000 C 
ATOM     20  N   UNL     1       1.816   4.071  19.628  0.00  0.00    +0.000 NA
BRANCH  20  21
ATOM     21  C   UNL     1       1.410   3.317  18.418  0.00  0.00    +0.000 C 
ATOM     22  C   UNL     1       0.669   1.997  18.586  0.00  0.00    +0.000 C 
ENDBRANCH  20  21
ENDBRANCH  13  14
ENDBRANCH   2  13
TORSDOF 5
ENDMDL
