MODEL 1
REMARK VINA RESULT:      -8.1      0.000      0.000
REMARK  Name = 
REMARK  5 active torsions:
REMARK  status: ('A' for Active; 'I' for Inactive)
REMARK    1  A    between atoms: N_2  and  C_4
REMARK    2  A    between atoms: C_7  and  O_8
REMARK    3  A    between atoms: O_8  and  N_9
REMARK    4  A    between atoms: N_10  and  N_12
REMARK    5  A    between atoms: C_24  and  N_25
REMARK                            x       y       z     vdW  Elec       q    Type
REMARK                         _______ _______ _______ _____ _____    ______ ____
ROOT
ATOM      1  N   UNL     1       2.968   6.600  19.059  0.00  0.00    +0.000 NA
ATOM      2  N   UNL     1       2.092   6.746  19.972  0.00  0.00    +0.000 N 
ATOM      3  O   UNL     1       1.730   5.848  20.793  0.00  0.00    +0.000 OA
ENDROOT
BRANCH   2   4
ATOM      4  N   UNL     1       1.555   8.028  20.123  0.00  0.00    +0.000 N 
ATOM      5  C   UNL     1       1.639   9.002  19.029  0.00  0.00    +0.000 C 
ATOM      6  C   UNL     1       0.484  10.038  19.089  0.00  0.00    +0.000 C 
ATOM      7  N   UNL     1       0.367  10.564  20.451  0.00  0.00    +0.000 N 
ATOM      8  C   UNL     1       0.034  11.873  20.691  0.00  0.00    +0.000 A 
ATOM      9  N   UNL     1      -0.082  12.723  19.659  0.00  0.00    +0.000 NA
ATOM     10  C   UNL     1      -0.315  14.019  19.939  0.00  0.00    +0.000 A 
ATOM     11  C   UNL     1      -0.432  14.514  21.213  0.00  0.00    +0.000 A 
ATOM     12  C   UNL     1      -0.311  13.580  22.205  0.00  0.00    +0.000 A 
ATOM     13  N   UNL     1      -0.088  12.274  21.968  0.00  0.00    +0.000 NA
ATOM     14  C   UNL     1       0.199   9.574  21.510  0.00  0.00    +0.000 C 
ATOM     15  C   UNL     1       1.380   8.591  21.463  0.00  0.00    +0.000 C 
ENDBRANCH   2   4
BRANCH   1  16
ATOM     16  O   UNL     1       3.561   5.325  19.119  0.00  0.00    +0.000 OA
BRANCH  16  20
ATOM     17  C   UNL     1       5.973   4.919  15.708  0.00  0.00    +0.000 A 
ATOM     18  C   UNL     1       6.179   5.992  16.584  0.00  0.00    +0.000 A 
ATOM     19  C   UNL     1       5.390   6.115  17.732  0.00  0.00    +0.000 A 
ATOM     20  C   UNL     1       4.377   5.183  18.015  0.00  0.00    +0.000 A 
ATOM     21  C   UNL     1       4.222   4.096  17.148  0.00  0.00    +0.000 A 
ATOM     22  C   UNL     1       4.998   3.954  15.986  0.00  0.00    +0.000 A 
BRANCH  17  24
ATOM     23  O   UNL     1       7.813   5.511  14.427  0.00  0.00    +0.000 OA
ATOM     24  N   UNL     1       6.800   4.804  14.501  0.00  0.00    +0.000 N 
ATOM     25  O   UNL     1       6.429   4.005  13.626  0.00  0.00    +0.000 OA
ENDBRANCH  17  24
BRANCH  21  26
ATOM     26  N   UNL     1       3.248   3.065  17.437  0.00  0.00    +0.000 N 
ATOM     27  O   UNL     1       3.657   2.048  18.010  0.00  0.00    +0.000 OA
ATOM     28  O   UNL     1       2.097   3.255  17.028  0.00  0.00    +0.000 OA
ENDBRANCH  21  26
ENDBRANCH  16  20
ENDBRANCH   1  16
TORSDOF 5
ENDMDL
MODEL 2
REMARK VINA RESULT:      -7.9      1.939      3.107
REMARK  Name = 
REMARK  5 active torsions:
REMARK  status: ('A' for Active; 'I' for Inactive)
REMARK    1  A    between atoms: N_2  and  C_4
REMARK    2  A    between atoms: C_7  and  O_8
REMARK    3  A    between atoms: O_8  and  N_9
REMARK    4  A    between atoms: N_10  and  N_12
REMARK    5  A    between atoms: C_24  and  N_25
REMARK                            x       y       z     vdW  Elec       q    Type
REMARK                         _______ _______ _______ _____ _____    ______ ____
ROOT
ATOM      1  N   UNL     1       3.626   5.473  17.756  0.00  0.00    +0.000 NA
ATOM      2  N   UNL     1       3.418   5.842  18.957  0.00  0.00    +0.000 N 
ATOM      3  O   UNL     1       3.933   5.309  19.989  0.00  0.00    +0.000 OA
ENDROOT
BRANCH   2   4
ATOM      4  N   UNL     1       2.620   6.976  19.134  0.00  0.00    +0.000 N 
ATOM      5  C   UNL     1       1.843   7.153  20.365  0.00  0.00    +0.000 C 
ATOM      6  C   UNL     1       1.590   8.652  20.678  0.00  0.00    +0.000 C 
ATOM      7  N   UNL     1       1.106   9.330  19.474  0.00  0.00    +0.000 N 
ATOM      8  C   UNL     1       0.168  10.329  19.538  0.00  0.00    +0.000 A 
ATOM      9  N   UNL     1      -0.402  10.622  20.716  0.00  0.00    +0.000 NA
ATOM     10  C   UNL     1      -1.387  11.541  20.724  0.00  0.00    +0.000 A 
ATOM     11  C   UNL     1      -1.838  12.182  19.599  0.00  0.00    +0.000 A 
ATOM     12  C   UNL     1      -1.197  11.833  18.443  0.00  0.00    +0.000 A 
ATOM     13  N   UNL     1      -0.202  10.928  18.392  0.00  0.00    +0.000 NA
ATOM     14  C   UNL     1       1.945   9.207  18.286  0.00  0.00    +0.000 C 
ATOM     15  C   UNL     1       2.138   7.716  17.966  0.00  0.00    +0.000 C 
ENDBRANCH   2   4
BRANCH   1  16
ATOM     16  O   UNL     1       4.579   4.439  17.697  0.00  0.00    +0.000 OA
BRANCH  16  20
ATOM     17  C   UNL     1       6.929   4.924  14.253  0.00  0.00    +0.000 A 
ATOM     18  C   UNL     1       5.595   4.514  14.135  0.00  0.00    +0.000 A 
ATOM     19  C   UNL     1       4.806   4.374  15.281  0.00  0.00    +0.000 A 
ATOM     20  C   UNL     1       5.337   4.624  16.558  0.00  0.00    +0.000 A 
ATOM     21  C   UNL     1       6.658   5.074  16.644  0.00  0.00    +0.000 A 
ATOM     22  C   UNL     1       7.473   5.217  15.510  0.00  0.00    +0.000 A 
BRANCH  17  24
ATOM     23  O   UNL     1       7.429   4.397  12.050  0.00  0.00    +0.000 OA
ATOM     24  N   UNL     1       7.752   5.059  13.045  0.00  0.00    +0.000 N 
ATOM     25  O   UNL     1       8.724   5.829  13.097  0.00  0.00    +0.000 OA
ENDBRANCH  17  24
BRANCH  21  26
ATOM     26  N   UNL     1       7.227   5.423  17.929  0.00  0.00    +0.000 N 
ATOM     27  O   UNL     1       7.220   6.619  18.243  0.00  0.00    +0.000 OA
ATOM     28  O   UNL     1       7.736   4.503  18.581  0.00  0.00    +0.000 OA
ENDBRANCH  21  26
ENDBRANCH  16  20
ENDBRANCH   1  16
TORSDOF 5
ENDMDL
MODEL 3
REMARK VINA RESULT:      -7.7      2.551      4.066
REMARK  Name = 
REMARK  5 active torsions:
REMARK  status: ('A' for Active; 'I' for Inactive)
REMARK    1  A    between atoms: N_2  and  C_4
REMARK    2  A    between atoms: C_7  and  O_8
REMARK    3  A    between atoms: O_8  and  N_9
REMARK    4  A    between atoms: N_10  and  N_12
REMARK    5  A    between atoms: C_24  and  N_25
REMARK                            x       y       z     vdW  Elec       q    Type
REMARK                         _______ _______ _______ _____ _____    ______ ____
ROOT
ATOM      1  N   UNL     1       1.995   8.373  18.590  0.00  0.00    +0.000 NA
ATOM      2  N   UNL     1       1.824   9.624  18.426  0.00  0.00    +0.000 N 
ATOM      3  O   UNL     1       2.376  10.330  17.526  0.00  0.00    +0.000 OA
ENDROOT
BRANCH   2   4
ATOM      4  N   UNL     1       0.888  10.242  19.261  0.00  0.00    +0.000 N 
ATOM      5  C   UNL     1       0.717   9.792  20.647  0.00  0.00    +0.000 C 
ATOM      6  C   UNL     1       0.195  10.931  21.562  0.00  0.00    +0.000 C 
ATOM      7  N   UNL     1      -0.947  11.590  20.924  0.00  0.00    +0.000 N 
ATOM      8  C   UNL     1      -2.011  12.054  21.655  0.00  0.00    +0.000 A 
ATOM      9  N   UNL     1      -2.063  11.807  22.973  0.00  0.00    +0.000 NA
ATOM     10  C   UNL     1      -3.168  12.194  23.639  0.00  0.00    +0.000 A 
ATOM     11  C   UNL     1      -4.235  12.817  23.045  0.00  0.00    +0.000 A 
ATOM     12  C   UNL     1      -4.096  13.041  21.703  0.00  0.00    +0.000 A 
ATOM     13  N   UNL     1      -3.006  12.679  21.002  0.00  0.00    +0.000 NA
ATOM     14  C   UNL     1      -0.721  12.103  19.577  0.00  0.00    +0.000 C 
ATOM     15  C   UNL     1      -0.255  10.948  18.677  0.00  0.00    +0.000 C 
ENDBRANCH   2   4
BRANCH   1  16
ATOM     16  O   UNL     1       2.819   7.834  17.584  0.00  0.00    +0.000 OA
BRANCH  16  20
ATOM     17  C   UNL     1       3.770   3.900  18.697  0.00  0.00    +0.000 A 
ATOM     18  C   UNL     1       2.528   4.443  19.047  0.00  0.00    +0.000 A 
ATOM     19  C   UNL     1       2.202   5.745  18.657  0.00  0.00    +0.000 A 
ATOM     20  C   UNL     1       3.113   6.530  17.929  0.00  0.00    +0.000 A 
ATOM     21  C   UNL     1       4.329   5.949  17.554  0.00  0.00    +0.000 A 
ATOM     22  C   UNL     1       4.681   4.645  17.938  0.00  0.00    +0.000 A 
BRANCH  17  24
ATOM     23  O   UNL     1       3.571   1.597  18.514  0.00  0.00    +0.000 OA
ATOM     24  N   UNL     1       4.106   2.535  19.118  0.00  0.00    +0.000 N 
ATOM     25  O   UNL     1       4.906   2.406  20.059  0.00  0.00    +0.000 OA
ENDBRANCH  17  24
BRANCH  21  26
ATOM     26  N   UNL     1       5.268   6.686  16.735  0.00  0.00    +0.000 N 
ATOM     27  O   UNL     1       5.110   6.632  15.510  0.00  0.00    +0.000 OA
ATOM     28  O   UNL     1       6.193   7.257  17.325  0.00  0.00    +0.000 OA
ENDBRANCH  21  26
ENDBRANCH  16  20
ENDBRANCH   1  16
TORSDOF 5
ENDMDL
MODEL 4
REMARK VINA RESULT:      -7.7      1.035      1.813
REMARK  Name = 
REMARK  5 active torsions:
REMARK  status: ('A' for Active; 'I' for Inactive)
REMARK    1  A    between atoms: N_2  and  C_4
REMARK    2  A    between atoms: C_7  and  O_8
REMARK    3  A    between atoms: O_8  and  N_9
REMARK    4  A    between atoms: N_10  and  N_12
REMARK    5  A    between atoms: C_24  and  N_25
REMARK                            x       y       z     vdW  Elec       q    Type
REMARK                         _______ _______ _______ _____ _____    ______ ____
ROOT
ATOM      1  N   UNL     1       2.707   7.103  18.759  0.00  0.00    +0.000 NA
ATOM      2  N   UNL     1       1.937   7.403  19.727  0.00  0.00    +0.000 N 
ATOM      3  O   UNL     1       1.568   6.608  20.646  0.00  0.00    +0.000 OA
ENDROOT
BRANCH   2   4
ATOM      4  N   UNL     1       1.539   8.741  19.819  0.00  0.00    +0.000 N 
ATOM      5  C   UNL     1       0.749   9.204  20.965  0.00  0.00    +0.000 C 
ATOM      6  C   UNL     1       0.971  10.714  21.246  0.00  0.00    +0.000 C 
ATOM      7  N   UNL     1       0.850  11.469  19.997  0.00  0.00    +0.000 N 
ATOM      8  C   UNL     1       0.286  12.719  19.962  0.00  0.00    +0.000 A 
ATOM      9  N   UNL     1      -0.266  13.223  21.077  0.00  0.00    +0.000 NA
ATOM     10  C   UNL     1      -0.893  14.411  20.982  0.00  0.00    +0.000 A 
ATOM     11  C   UNL     1      -1.003  15.123  19.815  0.00  0.00    +0.000 A 
ATOM     12  C   UNL     1      -0.405  14.544  18.730  0.00  0.00    +0.000 A 
ATOM     13  N   UNL     1       0.241  13.364  18.784  0.00  0.00    +0.000 NA
ATOM     14  C   UNL     1       1.710  11.038  18.900  0.00  0.00    +0.000 C 
ATOM     15  C   UNL     1       1.436   9.554  18.606  0.00  0.00    +0.000 C 
ENDBRANCH   2   4
BRANCH   1  16
ATOM     16  O   UNL     1       3.181   5.783  18.872  0.00  0.00    +0.000 OA
BRANCH  16  20
ATOM     17  C   UNL     1       5.745   5.031  15.635  0.00  0.00    +0.000 A 
ATOM     18  C   UNL     1       5.260   6.326  15.854  0.00  0.00    +0.000 A 
ATOM     19  C   UNL     1       4.423   6.581  16.945  0.00  0.00    +0.000 A 
ATOM     20  C   UNL     1       4.046   5.550  17.822  0.00  0.00    +0.000 A 
ATOM     21  C   UNL     1       4.581   4.275  17.607  0.00  0.00    +0.000 A 
ATOM     22  C   UNL     1       5.418   3.993  16.516  0.00  0.00    +0.000 A 
BRANCH  17  24
ATOM     23  O   UNL     1       6.263   3.900  13.678  0.00  0.00    +0.000 OA
ATOM     24  N   UNL     1       6.616   4.772  14.482  0.00  0.00    +0.000 N 
ATOM     25  O   UNL     1       7.655   5.443  14.386  0.00  0.00    +0.000 OA
ENDBRANCH  17  24
BRANCH  21  26
ATOM     26  N   UNL     1       4.289   3.197  18.527  0.00  0.00    +0.000 N 
ATOM     27  O   UNL     1       4.968   3.136  19.559  0.00  0.00    +0.000 OA
ATOM     28  O   UNL     1       3.426   2.382  18.176  0.00  0.00    +0.000 OA
ENDBRANCH  21  26
ENDBRANCH  16  20
ENDBRANCH   1  16
TORSDOF 5
ENDMDL
MODEL 5
REMARK VINA RESULT:      -7.7      0.902      1.771
REMARK  Name = 
REMARK  5 active torsions:
REMARK  status: ('A' for Active; 'I' for Inactive)
REMARK    1  A    between atoms: N_2  and  C_4
REMARK    2  A    between atoms: C_7  and  O_8
REMARK    3  A    between atoms: O_8  and  N_9
REMARK    4  A    between atoms: N_10  and  N_12
REMARK    5  A    between atoms: C_24  and  N_25
REMARK                            x       y       z     vdW  Elec       q    Type
REMARK                         _______ _______ _______ _____ _____    ______ ____
ROOT
ATOM      1  N   UNL     1       3.510   6.403  19.082  0.00  0.00    +0.000 NA
ATOM      2  N   UNL     1       2.571   6.408  19.942  0.00  0.00    +0.000 N 
ATOM      3  O   UNL     1       2.277   5.443  20.714  0.00  0.00    +0.000 OA
ENDROOT
BRANCH   2   4
ATOM      4  N   UNL     1       1.868   7.607  20.094  0.00  0.00    +0.000 N 
ATOM      5  C   UNL     1       1.022   7.828  21.272  0.00  0.00    +0.000 C 
ATOM      6  C   UNL     1       0.884   9.337  21.607  0.00  0.00    +0.000 C 
ATOM      7  N   UNL     1       0.552  10.083  20.391  0.00  0.00    +0.000 N 
ATOM      8  C   UNL     1      -0.295  11.162  20.417  0.00  0.00    +0.000 A 
ATOM      9  N   UNL     1      -0.920  11.481  21.560  0.00  0.00    +0.000 NA
ATOM     10  C   UNL     1      -1.816  12.487  21.524  0.00  0.00    +0.000 A 
ATOM     11  C   UNL     1      -2.125  13.190  20.388  0.00  0.00    +0.000 A 
ATOM     12  C   UNL     1      -1.436  12.808  19.271  0.00  0.00    +0.000 A 
ATOM     13  N   UNL     1      -0.525  11.816  19.265  0.00  0.00    +0.000 NA
ATOM     14  C   UNL     1       1.460   9.908  19.262  0.00  0.00    +0.000 C 
ATOM     15  C   UNL     1       1.540   8.413  18.916  0.00  0.00    +0.000 C 
ENDBRANCH   2   4
BRANCH   1  16
ATOM     16  O   UNL     1       4.255   5.211  19.145  0.00  0.00    +0.000 OA
BRANCH  16  20
ATOM     17  C   UNL     1       6.249   4.823  15.472  0.00  0.00    +0.000 A 
ATOM     18  C   UNL     1       6.699   5.755  16.415  0.00  0.00    +0.000 A 
ATOM     19  C   UNL     1       6.049   5.869  17.647  0.00  0.00    +0.000 A 
ATOM     20  C   UNL     1       4.933   5.069  17.951  0.00  0.00    +0.000 A 
ATOM     21  C   UNL     1       4.531   4.116  17.010  0.00  0.00    +0.000 A 
ATOM     22  C   UNL     1       5.165   3.986  15.764  0.00  0.00    +0.000 A 
BRANCH  17  24
ATOM     23  O   UNL     1       6.523   3.867  13.377  0.00  0.00    +0.000 OA
ATOM     24  N   UNL     1       6.933   4.717  14.178  0.00  0.00    +0.000 N 
ATOM     25  O   UNL     1       7.883   5.487  13.967  0.00  0.00    +0.000 OA
ENDBRANCH  17  24
BRANCH  21  26
ATOM     26  N   UNL     1       3.440   3.212  17.307  0.00  0.00    +0.000 N 
ATOM     27  O   UNL     1       2.300   3.586  17.005  0.00  0.00    +0.000 OA
ATOM     28  O   UNL     1       3.728   2.166  17.901  0.00  0.00    +0.000 OA
ENDBRANCH  21  26
ENDBRANCH  16  20
ENDBRANCH   1  16
TORSDOF 5
ENDMDL
MODEL 6
REMARK VINA RESULT:      -7.6      1.835      2.917
REMARK  Name = 
REMARK  5 active torsions:
REMARK  status: ('A' for Active; 'I' for Inactive)
REMARK    1  A    between atoms: N_2  and  C_4
REMARK    2  A    between atoms: C_7  and  O_8
REMARK    3  A    between atoms: O_8  and  N_9
REMARK    4  A    between atoms: N_10  and  N_12
REMARK    5  A    between atoms: C_24  and  N_25
REMARK                            x       y       z     vdW  Elec       q    Type
REMARK                         _______ _______ _______ _____ _____    ______ ____
ROOT
ATOM      1  N   UNL     1       4.281   6.118  18.842  0.00  0.00    +0.000 NA
ATOM      2  N   UNL     1       3.033   5.955  19.039  0.00  0.00    +0.000 N 
ATOM      3  O   UNL     1       2.422   4.843  18.999  0.00  0.00    +0.000 OA
ENDROOT
BRANCH   2   4
ATOM      4  N   UNL     1       2.306   7.091  19.408  0.00  0.00    +0.000 N 
ATOM      5  C   UNL     1       1.590   7.130  20.688  0.00  0.00    +0.000 C 
ATOM      6  C   UNL     1       1.432   8.581  21.216  0.00  0.00    +0.000 C 
ATOM      7  N   UNL     1       0.936   9.443  20.141  0.00  0.00    +0.000 N 
ATOM      8  C   UNL     1       0.056  10.467  20.387  0.00  0.00    +0.000 A 
ATOM      9  N   UNL     1      -0.449  10.619  21.621  0.00  0.00    +0.000 NA
ATOM     10  C   UNL     1      -1.381  11.574  21.803  0.00  0.00    +0.000 A 
ATOM     11  C   UNL     1      -1.843  12.387  20.799  0.00  0.00    +0.000 A 
ATOM     12  C   UNL     1      -1.269  12.173  19.577  0.00  0.00    +0.000 A 
ATOM     13  N   UNL     1      -0.328  11.237  19.354  0.00  0.00    +0.000 NA
ATOM     14  C   UNL     1       1.717   9.448  18.909  0.00  0.00    +0.000 C 
ATOM     15  C   UNL     1       1.816   8.009  18.378  0.00  0.00    +0.000 C 
ENDBRANCH   2   4
BRANCH   1  16
ATOM     16  O   UNL     1       4.934   4.885  18.653  0.00  0.00    +0.000 OA
BRANCH  16  20
ATOM     17  C   UNL     1       6.561   4.762  14.786  0.00  0.00    +0.000 A 
ATOM     18  C   UNL     1       5.216   4.427  14.988  0.00  0.00    +0.000 A 
ATOM     19  C   UNL     1       4.668   4.489  16.273  0.00  0.00    +0.000 A 
ATOM     20  C   UNL     1       5.454   4.870  17.375  0.00  0.00    +0.000 A 
ATOM     21  C   UNL     1       6.781   5.243  17.139  0.00  0.00    +0.000 A 
ATOM     22  C   UNL     1       7.356   5.184  15.859  0.00  0.00    +0.000 A 
BRANCH  17  24
ATOM     23  O   UNL     1       6.692   3.812  12.675  0.00  0.00    +0.000 OA
ATOM     24  N   UNL     1       7.129   4.685  13.435  0.00  0.00    +0.000 N 
ATOM     25  O   UNL     1       8.017   5.500  13.139  0.00  0.00    +0.000 OA
ENDBRANCH  17  24
BRANCH  21  26
ATOM     26  N   UNL     1       7.608   5.720  18.227  0.00  0.00    +0.000 N 
ATOM     27  O   UNL     1       8.060   4.873  19.006  0.00  0.00    +0.000 OA
ATOM     28  O   UNL     1       7.743   6.946  18.328  0.00  0.00    +0.000 OA
ENDBRANCH  21  26
ENDBRANCH  16  20
ENDBRANCH   1  16
TORSDOF 5
ENDMDL
MODEL 7
REMARK VINA RESULT:      -7.5      2.873      9.350
REMARK  Name = 
REMARK  5 active torsions:
REMARK  status: ('A' for Active; 'I' for Inactive)
REMARK    1  A    between atoms: N_2  and  C_4
REMARK    2  A    between atoms: C_7  and  O_8
REMARK    3  A    between atoms: O_8  and  N_9
REMARK    4  A    between atoms: N_10  and  N_12
REMARK    5  A    between atoms: C_24  and  N_25
REMARK                            x       y       z     vdW  Elec       q    Type
REMARK                         _______ _______ _______ _____ _____    ______ ____
ROOT
ATOM      1  N   UNL     1       2.750   7.523  18.923  0.00  0.00    +0.000 NA
ATOM      2  N   UNL     1       3.326   6.392  19.027  0.00  0.00    +0.000 N 
ATOM      3  O   UNL     1       3.190   5.584  19.997  0.00  0.00    +0.000 OA
ENDROOT
BRANCH   2   4
ATOM      4  N   UNL     1       4.105   5.985  17.939  0.00  0.00    +0.000 N 
ATOM      5  C   UNL     1       5.080   6.902  17.339  0.00  0.00    +0.000 C 
ATOM      6  C   UNL     1       6.249   6.138  16.662  0.00  0.00    +0.000 C 
ATOM      7  N   UNL     1       5.714   5.075  15.810  0.00  0.00    +0.000 N 
ATOM      8  C   UNL     1       6.305   4.740  14.619  0.00  0.00    +0.000 A 
ATOM      9  N   UNL     1       7.336   5.471  14.166  0.00  0.00    +0.000 NA
ATOM     10  C   UNL     1       7.829   5.173  12.949  0.00  0.00    +0.000 A 
ATOM     11  C   UNL     1       7.333   4.174  12.152  0.00  0.00    +0.000 A 
ATOM     12  C   UNL     1       6.292   3.471  12.691  0.00  0.00    +0.000 A 
ATOM     13  N   UNL     1       5.776   3.730  13.907  0.00  0.00    +0.000 NA
ATOM     14  C   UNL     1       4.812   4.127  16.456  0.00  0.00    +0.000 C 
ATOM     15  C   UNL     1       3.636   4.901  17.073  0.00  0.00    +0.000 C 
ENDBRANCH   2   4
BRANCH   1  16
ATOM     16  O   UNL     1       1.860   7.743  19.991  0.00  0.00    +0.000 OA
BRANCH  16  20
ATOM     17  C   UNL     1      -0.285  11.259  19.183  0.00  0.00    +0.000 A 
ATOM     18  C   UNL     1       0.397  10.605  18.149  0.00  0.00    +0.000 A 
ATOM     19  C   UNL     1       1.093   9.421  18.414  0.00  0.00    +0.000 A 
ATOM     20  C   UNL     1       1.134   8.883  19.712  0.00  0.00    +0.000 A 
ATOM     21  C   UNL     1       0.408   9.531  20.716  0.00  0.00    +0.000 A 
ATOM     22  C   UNL     1      -0.294  10.723  20.477  0.00  0.00    +0.000 A 
BRANCH  17  24
ATOM     23  O   UNL     1      -0.461  13.327  18.148  0.00  0.00    +0.000 OA
ATOM     24  N   UNL     1      -1.005  12.505  18.897  0.00  0.00    +0.000 N 
ATOM     25  O   UNL     1      -2.117  12.659  19.427  0.00  0.00    +0.000 OA
ENDBRANCH  17  24
BRANCH  21  26
ATOM     26  N   UNL     1       0.351   8.973  22.051  0.00  0.00    +0.000 N 
ATOM     27  O   UNL     1      -0.594   8.217  22.306  0.00  0.00    +0.000 OA
ATOM     28  O   UNL     1       1.216   9.351  22.850  0.00  0.00    +0.000 OA
ENDBRANCH  21  26
ENDBRANCH  16  20
ENDBRANCH   1  16
TORSDOF 5
ENDMDL
MODEL 8
REMARK VINA RESULT:      -7.5      2.097      2.863
REMARK  Name = 
REMARK  5 active torsions:
REMARK  status: ('A' for Active; 'I' for Inactive)
REMARK    1  A    between atoms: N_2  and  C_4
REMARK    2  A    between atoms: C_7  and  O_8
REMARK    3  A    between atoms: O_8  and  N_9
REMARK    4  A    between atoms: N_10  and  N_12
REMARK    5  A    between atoms: C_24  and  N_25
REMARK                            x       y       z     vdW  Elec       q    Type
REMARK                         _______ _______ _______ _____ _____    ______ ____
ROOT
ATOM      1  N   UNL     1       2.054   7.629  18.902  0.00  0.00    +0.000 NA
ATOM      2  N   UNL     1       1.795   8.762  18.381  0.00  0.00    +0.000 N 
ATOM      3  O   UNL     1       1.834   9.025  17.139  0.00  0.00    +0.000 OA
ENDROOT
BRANCH   2   4
ATOM      4  N   UNL     1       1.356   9.764  19.250  0.00  0.00    +0.000 N 
ATOM      5  C   UNL     1       0.482   9.436  20.381  0.00  0.00    +0.000 C 
ATOM      6  C   UNL     1       0.643  10.447  21.548  0.00  0.00    +0.000 C 
ATOM      7  N   UNL     1       0.582  11.814  21.025  0.00  0.00    +0.000 N 
ATOM      8  C   UNL     1      -0.013  12.829  21.731  0.00  0.00    +0.000 A 
ATOM      9  N   UNL     1      -0.648  12.548  22.879  0.00  0.00    +0.000 NA
ATOM     10  C   UNL     1      -1.301  13.553  23.495  0.00  0.00    +0.000 A 
ATOM     11  C   UNL     1      -1.355  14.834  23.010  0.00  0.00    +0.000 A 
ATOM     12  C   UNL     1      -0.673  15.037  21.843  0.00  0.00    +0.000 A 
ATOM     13  N   UNL     1       0.000  14.064  21.201  0.00  0.00    +0.000 NA
ATOM     14  C   UNL     1       1.522  12.136  19.957  0.00  0.00    +0.000 C 
ATOM     15  C   UNL     1       1.308  11.155  18.793  0.00  0.00    +0.000 C 
ENDBRANCH   2   4
BRANCH   1  16
ATOM     16  O   UNL     1       2.312   6.659  17.915  0.00  0.00    +0.000 OA
BRANCH  16  20
ATOM     17  C   UNL     1       6.285   5.352  18.270  0.00  0.00    +0.000 A 
ATOM     18  C   UNL     1       5.990   6.487  17.504  0.00  0.00    +0.000 A 
ATOM     19  C   UNL     1       4.669   6.935  17.404  0.00  0.00    +0.000 A 
ATOM     20  C   UNL     1       3.624   6.252  18.051  0.00  0.00    +0.000 A 
ATOM     21  C   UNL     1       3.952   5.149  18.845  0.00  0.00    +0.000 A 
ATOM     22  C   UNL     1       5.269   4.676  18.958  0.00  0.00    +0.000 A 
BRANCH  17  24
ATOM     23  O   UNL     1       8.134   4.256  17.400  0.00  0.00    +0.000 OA
ATOM     24  N   UNL     1       7.673   4.884  18.362  0.00  0.00    +0.000 N 
ATOM     25  O   UNL     1       8.299   5.146  19.401  0.00  0.00    +0.000 OA
ENDBRANCH  17  24
BRANCH  21  26
ATOM     26  N   UNL     1       2.924   4.461  19.597  0.00  0.00    +0.000 N 
ATOM     27  O   UNL     1       2.724   4.841  20.757  0.00  0.00    +0.000 OA
ATOM     28  O   UNL     1       2.374   3.503  19.040  0.00  0.00    +0.000 OA
ENDBRANCH  21  26
ENDBRANCH  16  20
ENDBRANCH   1  16
TORSDOF 5
ENDMDL
MODEL 9
REMARK VINA RESULT:      -7.5      1.750      2.490
REMARK  Name = 
REMARK  5 active torsions:
REMARK  status: ('A' for Active; 'I' for Inactive)
REMARK    1  A    between atoms: N_2  and  C_4
REMARK    2  A    between atoms: C_7  and  O_8
REMARK    3  A    between atoms: O_8  and  N_9
REMARK    4  A    between atoms: N_10  and  N_12
REMARK    5  A    between atoms: C_24  and  N_25
REMARK                            x       y       z     vdW  Elec       q    Type
REMARK                         _______ _______ _______ _____ _____    ______ ____
ROOT
ATOM      1  N   UNL     1       4.169   6.266  18.349  0.00  0.00    +0.000 NA
ATOM      2  N   UNL     1       2.933   6.191  18.648  0.00  0.00    +0.000 N 
ATOM      3  O   UNL     1       2.260   5.117  18.726  0.00  0.00    +0.000 OA
ENDROOT
BRANCH   2   4
ATOM      4  N   UNL     1       2.301   7.388  18.997  0.00  0.00    +0.000 N 
ATOM      5  C   UNL     1       2.376   8.554  18.110  0.00  0.00    +0.000 C 
ATOM      6  C   UNL     1       1.151   9.491  18.283  0.00  0.00    +0.000 C 
ATOM      7  N   UNL     1       0.924   9.744  19.707  0.00  0.00    +0.000 N 
ATOM      8  C   UNL     1       0.489  10.963  20.162  0.00  0.00    +0.000 A 
ATOM      9  N   UNL     1       0.370  11.983  19.299  0.00  0.00    +0.000 NA
ATOM     10  C   UNL     1       0.032  13.189  19.797  0.00  0.00    +0.000 A 
ATOM     11  C   UNL     1      -0.187  13.427  21.129  0.00  0.00    +0.000 A 
ATOM     12  C   UNL     1      -0.055  12.332  21.938  0.00  0.00    +0.000 A 
ATOM     13  N   UNL     1       0.270  11.109  21.480  0.00  0.00    +0.000 NA
ATOM     14  C   UNL     1       0.767   8.564  20.552  0.00  0.00    +0.000 C 
ATOM     15  C   UNL     1       2.015   7.678  20.404  0.00  0.00    +0.000 C 
ENDBRANCH   2   4
BRANCH   1  16
ATOM     16  O   UNL     1       4.735   4.987  18.192  0.00  0.00    +0.000 OA
BRANCH  16  20
ATOM     17  C   UNL     1       6.617   4.761  14.447  0.00  0.00    +0.000 A 
ATOM     18  C   UNL     1       5.242   4.518  14.552  0.00  0.00    +0.000 A 
ATOM     19  C   UNL     1       4.611   4.615  15.796  0.00  0.00    +0.000 A 
ATOM     20  C   UNL     1       5.341   4.939  16.953  0.00  0.00    +0.000 A 
ATOM     21  C   UNL     1       6.704   5.221  16.812  0.00  0.00    +0.000 A 
ATOM     22  C   UNL     1       7.361   5.125  15.576  0.00  0.00    +0.000 A 
BRANCH  17  24
ATOM     23  O   UNL     1       8.149   5.475  12.859  0.00  0.00    +0.000 OA
ATOM     24  N   UNL     1       7.271   4.648  13.138  0.00  0.00    +0.000 N 
ATOM     25  O   UNL     1       6.902   3.729  12.390  0.00  0.00    +0.000 OA
ENDBRANCH  17  24
BRANCH  21  26
ATOM     26  N   UNL     1       7.484   5.638  17.958  0.00  0.00    +0.000 N 
ATOM     27  O   UNL     1       7.687   6.851  18.091  0.00  0.00    +0.000 OA
ATOM     28  O   UNL     1       7.941   4.742  18.678  0.00  0.00    +0.000 OA
ENDBRANCH  21  26
ENDBRANCH  16  20
ENDBRANCH   1  16
TORSDOF 5
ENDMDL
