MODEL 1
REMARK VINA RESULT:      -8.0      0.000      0.000
REMARK  Name = 
REMARK  7 active torsions:
REMARK  status: ('A' for Active; 'I' for Inactive)
REMARK    1  A    between atoms: C_1  and  C_2
REMARK    2  A    between atoms: C_2  and  C_3
REMARK    3  A    between atoms: C_3  and  N_4
REMARK    4  A    between atoms: C_3  and  C_14
REMARK    5  A    between atoms: N_4  and  S_5
REMARK    6  A    between atoms: S_5  and  N_8
REMARK    7  A    between atoms: C_16  and  C_17
REMARK                            x       y       z     vdW  Elec       q    Type
REMARK                         _______ _______ _______ _____ _____    ______ ____
ROOT
ATOM      1  C   UNL     1       2.707   5.424  19.738  0.00  0.00    +0.000 C 
ENDROOT
BRANCH   1   2
ATOM      2  C   UNL     1       2.127   6.806  19.771  0.00  0.00    +0.000 A 
ATOM      3  N   UNL     1       1.437   7.354  20.753  0.00  0.00    +0.000 NA
ATOM      4  C   UNL     1       1.196   8.648  20.359  0.00  0.00    +0.000 A 
ATOM      5  C   UNL     1       1.725   8.879  19.109  0.00  0.00    +0.000 A 
ATOM      6  N   UNL     1       2.313   7.698  18.746  0.00  0.00    +0.000 N 
ATOM      7  H   UNL     1       2.862   7.538  17.913  0.00  0.00    +0.000 HD
BRANCH   4   8
ATOM      8  C   UNL     1       0.517   9.620  21.192  0.00  0.00    +0.000 A 
ATOM      9  C   UNL     1      -0.083   9.237  22.398  0.00  0.00    +0.000 A 
ATOM     10  C   UNL     1      -0.787  10.167  23.161  0.00  0.00    +0.000 A 
ATOM     11  C   UNL     1      -0.887  11.490  22.733  0.00  0.00    +0.000 A 
ATOM     12  C   UNL     1      -0.280  11.885  21.541  0.00  0.00    +0.000 A 
ATOM     13  C   UNL     1       0.418  10.952  20.770  0.00  0.00    +0.000 A 
ENDBRANCH   4   8
ENDBRANCH   1   2
BRANCH   1  15
ATOM     14  C   UNL     1       1.191   3.564  20.650  0.00  0.00    +0.000 C 
ATOM     15  C   UNL     1       2.254   4.609  20.969  0.00  0.00    +0.000 C 
ENDBRANCH   1  15
BRANCH   1  16
ATOM     16  N   UNL     1       4.194   5.521  19.791  0.00  0.00    +0.000 NA
ATOM     17  H   UNL     1       4.464   6.484  19.597  0.00  0.00    +0.000 HD
BRANCH  16  18
ATOM     18  S   UNL     1       5.059   4.495  18.791  0.00  0.00    +0.000 S 
ATOM     19  O   UNL     1       6.435   4.486  19.251  0.00  0.00    +0.000 OA
ATOM     20  O   UNL     1       4.325   3.269  18.649  0.00  0.00    +0.000 OA
BRANCH  18  21
ATOM     21  N   UNL     1       4.957   5.356  17.355  0.00  0.00    +0.000 NA
ATOM     22  C   UNL     1       5.354   4.634  16.107  0.00  0.00    +0.000 C 
ATOM     23  C   UNL     1       6.877   4.618  15.907  0.00  0.00    +0.000 C 
ATOM     24  O   UNL     1       7.451   5.931  15.968  0.00  0.00    +0.000 OA
ATOM     25  C   UNL     1       7.098   6.635  17.166  0.00  0.00    +0.000 C 
ATOM     26  C   UNL     1       5.579   6.713  17.348  0.00  0.00    +0.000 C 
ENDBRANCH  18  21
ENDBRANCH  16  18
ENDBRANCH   1  16
TORSDOF 6
ENDMDL
MODEL 2
REMARK VINA RESULT:      -8.0      0.379      1.056
REMARK  Name = 
REMARK  7 active torsions:
REMARK  status: ('A' for Active; 'I' for Inactive)
REMARK    1  A    between atoms: C_1  and  C_2
REMARK    2  A    between atoms: C_2  and  C_3
REMARK    3  A    between atoms: C_3  and  N_4
REMARK    4  A    between atoms: C_3  and  C_14
REMARK    5  A    between atoms: N_4  and  S_5
REMARK    6  A    between atoms: S_5  and  N_8
REMARK    7  A    between atoms: C_16  and  C_17
REMARK                            x       y       z     vdW  Elec       q    Type
REMARK                         _______ _______ _______ _____ _____    ______ ____
ROOT
ATOM      1  C   UNL     1       2.875   5.486  19.668  0.00  0.00    +0.000 C 
ENDROOT
BRANCH   1   2
ATOM      2  C   UNL     1       2.223   6.835  19.678  0.00  0.00    +0.000 A 
ATOM      3  N   UNL     1       1.502   7.361  20.651  0.00  0.00    +0.000 NA
ATOM      4  C   UNL     1       1.194   8.635  20.237  0.00  0.00    +0.000 A 
ATOM      5  C   UNL     1       1.713   8.874  18.984  0.00  0.00    +0.000 A 
ATOM      6  N   UNL     1       2.363   7.720  18.640  0.00  0.00    +0.000 N 
ATOM      7  H   UNL     1       2.922   7.576  17.810  0.00  0.00    +0.000 HD
BRANCH   4   8
ATOM      8  C   UNL     1       0.463   9.582  21.053  0.00  0.00    +0.000 A 
ATOM      9  C   UNL     1       0.290  10.907  20.634  0.00  0.00    +0.000 A 
ATOM     10  C   UNL     1      -0.362  11.826  21.455  0.00  0.00    +0.000 A 
ATOM     11  C   UNL     1      -0.857  11.427  22.696  0.00  0.00    +0.000 A 
ATOM     12  C   UNL     1      -0.703  10.105  23.115  0.00  0.00    +0.000 A 
ATOM     13  C   UNL     1      -0.042   9.186  22.298  0.00  0.00    +0.000 A 
ENDBRANCH   4   8
ENDBRANCH   1   2
BRANCH   1  15
ATOM     14  C   UNL     1       1.084   3.686  20.049  0.00  0.00    +0.000 C 
ATOM     15  C   UNL     1       2.186   4.534  20.672  0.00  0.00    +0.000 C 
ENDBRANCH   1  15
BRANCH   1  16
ATOM     16  N   UNL     1       4.296   5.631  20.095  0.00  0.00    +0.000 NA
ATOM     17  H   UNL     1       4.536   6.620  20.092  0.00  0.00    +0.000 HD
BRANCH  16  18
ATOM     18  S   UNL     1       5.444   4.783  19.219  0.00  0.00    +0.000 S 
ATOM     19  O   UNL     1       6.752   5.215  19.671  0.00  0.00    +0.000 OA
ATOM     20  O   UNL     1       5.086   3.392  19.224  0.00  0.00    +0.000 OA
BRANCH  18  21
ATOM     21  N   UNL     1       5.147   5.412  17.692  0.00  0.00    +0.000 NA
ATOM     22  C   UNL     1       5.463   4.530  16.527  0.00  0.00    +0.000 C 
ATOM     23  C   UNL     1       6.956   4.554  16.170  0.00  0.00    +0.000 C 
ATOM     24  O   UNL     1       7.451   5.886  15.978  0.00  0.00    +0.000 OA
ATOM     25  C   UNL     1       7.175   6.746  17.092  0.00  0.00    +0.000 C 
ATOM     26  C   UNL     1       5.680   6.780  17.421  0.00  0.00    +0.000 C 
ENDBRANCH  18  21
ENDBRANCH  16  18
ENDBRANCH   1  16
TORSDOF 6
ENDMDL
MODEL 3
REMARK VINA RESULT:      -7.9      4.562      8.690
REMARK  Name = 
REMARK  7 active torsions:
REMARK  status: ('A' for Active; 'I' for Inactive)
REMARK    1  A    between atoms: C_1  and  C_2
REMARK    2  A    between atoms: C_2  and  C_3
REMARK    3  A    between atoms: C_3  and  N_4
REMARK    4  A    between atoms: C_3  and  C_14
REMARK    5  A    between atoms: N_4  and  S_5
REMARK    6  A    between atoms: S_5  and  N_8
REMARK    7  A    between atoms: C_16  and  C_17
REMARK                            x       y       z     vdW  Elec       q    Type
REMARK                         _______ _______ _______ _____ _____    ______ ____
ROOT
ATOM      1  C   UNL     1       6.148   5.473  17.424  0.00  0.00    +0.000 C 
ENDROOT
BRANCH   1   2
ATOM      2  C   UNL     1       6.460   5.062  16.017  0.00  0.00    +0.000 A 
ATOM      3  N   UNL     1       5.739   4.272  15.243  0.00  0.00    +0.000 NA
ATOM      4  C   UNL     1       6.380   4.260  14.028  0.00  0.00    +0.000 A 
ATOM      5  C   UNL     1       7.520   5.031  14.074  0.00  0.00    +0.000 A 
ATOM      6  N   UNL     1       7.558   5.534  15.346  0.00  0.00    +0.000 N 
ATOM      7  H   UNL     1       8.227   6.203  15.702  0.00  0.00    +0.000 HD
BRANCH   4   8
ATOM      8  C   UNL     1       5.871   3.558  12.867  0.00  0.00    +0.000 A 
ATOM      9  C   UNL     1       4.597   3.842  12.358  0.00  0.00    +0.000 A 
ATOM     10  C   UNL     1       4.092   3.119  11.279  0.00  0.00    +0.000 A 
ATOM     11  C   UNL     1       4.859   2.113  10.691  0.00  0.00    +0.000 A 
ATOM     12  C   UNL     1       6.135   1.834  11.180  0.00  0.00    +0.000 A 
ATOM     13  C   UNL     1       6.638   2.551  12.268  0.00  0.00    +0.000 A 
ENDBRANCH   4   8
ENDBRANCH   1   2
BRANCH   1  15
ATOM     14  C   UNL     1       8.018   5.901  19.132  0.00  0.00    +0.000 C 
ATOM     15  C   UNL     1       7.215   6.454  17.959  0.00  0.00    +0.000 C 
ENDBRANCH   1  15
BRANCH   1  16
ATOM     16  N   UNL     1       6.175   4.266  18.299  0.00  0.00    +0.000 NA
ATOM     17  H   UNL     1       6.398   3.454  17.726  0.00  0.00    +0.000 HD
BRANCH  16  18
ATOM     18  S   UNL     1       4.797   3.945  19.195  0.00  0.00    +0.000 S 
ATOM     19  O   UNL     1       5.046   2.748  19.975  0.00  0.00    +0.000 OA
ATOM     20  O   UNL     1       4.372   5.161  19.830  0.00  0.00    +0.000 OA
BRANCH  18  21
ATOM     21  N   UNL     1       3.734   3.586  17.948  0.00  0.00    +0.000 NA
ATOM     22  C   UNL     1       2.550   4.484  17.792  0.00  0.00    +0.000 C 
ATOM     23  C   UNL     1       1.418   4.125  18.767  0.00  0.00    +0.000 C 
ATOM     24  O   UNL     1       1.049   2.742  18.691  0.00  0.00    +0.000 OA
ATOM     25  C   UNL     1       2.168   1.860  18.856  0.00  0.00    +0.000 C 
ATOM     26  C   UNL     1       3.281   2.166  17.849  0.00  0.00    +0.000 C 
ENDBRANCH  18  21
ENDBRANCH  16  18
ENDBRANCH   1  16
TORSDOF 6
ENDMDL
MODEL 4
REMARK VINA RESULT:      -7.7      1.405      1.949
REMARK  Name = 
REMARK  7 active torsions:
REMARK  status: ('A' for Active; 'I' for Inactive)
REMARK    1  A    between atoms: C_1  and  C_2
REMARK    2  A    between atoms: C_2  and  C_3
REMARK    3  A    between atoms: C_3  and  N_4
REMARK    4  A    between atoms: C_3  and  C_14
REMARK    5  A    between atoms: N_4  and  S_5
REMARK    6  A    between atoms: S_5  and  N_8
REMARK    7  A    between atoms: C_16  and  C_17
REMARK                            x       y       z     vdW  Elec       q    Type
REMARK                         _______ _______ _______ _____ _____    ______ ____
ROOT
ATOM      1  C   UNL     1       2.889   5.936  19.033  0.00  0.00    +0.000 C 
ENDROOT
BRANCH   1   2
ATOM      2  C   UNL     1       2.233   7.150  19.616  0.00  0.00    +0.000 A 
ATOM      3  N   UNL     1       1.888   8.252  18.975  0.00  0.00    +0.000 NA
ATOM      4  C   UNL     1       1.250   9.037  19.904  0.00  0.00    +0.000 A 
ATOM      5  C   UNL     1       1.231   8.414  21.132  0.00  0.00    +0.000 A 
ATOM      6  N   UNL     1       1.861   7.216  20.934  0.00  0.00    +0.000 N 
ATOM      7  H   UNL     1       1.957   6.474  21.614  0.00  0.00    +0.000 HD
BRANCH   4   8
ATOM      8  C   UNL     1       0.650  10.317  19.587  0.00  0.00    +0.000 A 
ATOM      9  C   UNL     1      -0.704  10.560  19.851  0.00  0.00    +0.000 A 
ATOM     10  C   UNL     1      -1.286  11.774  19.486  0.00  0.00    +0.000 A 
ATOM     11  C   UNL     1      -0.518  12.758  18.864  0.00  0.00    +0.000 A 
ATOM     12  C   UNL     1       0.835  12.530  18.611  0.00  0.00    +0.000 A 
ATOM     13  C   UNL     1       1.417  11.312  18.968  0.00  0.00    +0.000 A 
ENDBRANCH   4   8
ENDBRANCH   1   2
BRANCH   1  15
ATOM     14  C   UNL     1       1.815   4.058  17.650  0.00  0.00    +0.000 C 
ATOM     15  C   UNL     1       1.912   4.739  19.011  0.00  0.00    +0.000 C 
ENDBRANCH   1  15
BRANCH   1  16
ATOM     16  N   UNL     1       4.045   5.551  19.892  0.00  0.00    +0.000 NA
ATOM     17  H   UNL     1       4.343   6.368  20.422  0.00  0.00    +0.000 HD
BRANCH  16  18
ATOM     18  S   UNL     1       5.373   4.879  19.124  0.00  0.00    +0.000 S 
ATOM     19  O   UNL     1       6.564   5.431  19.739  0.00  0.00    +0.000 OA
ATOM     20  O   UNL     1       5.181   3.458  19.039  0.00  0.00    +0.000 OA
BRANCH  18  21
ATOM     21  N   UNL     1       5.175   5.544  17.596  0.00  0.00    +0.000 NA
ATOM     22  C   UNL     1       5.443   4.646  16.432  0.00  0.00    +0.000 C 
ATOM     23  C   UNL     1       6.942   4.540  16.114  0.00  0.00    +0.000 C 
ATOM     24  O   UNL     1       7.558   5.824  15.949  0.00  0.00    +0.000 OA
ATOM     25  C   UNL     1       7.330   6.696  17.064  0.00  0.00    +0.000 C 
ATOM     26  C   UNL     1       5.835   6.861  17.354  0.00  0.00    +0.000 C 
ENDBRANCH  18  21
ENDBRANCH  16  18
ENDBRANCH   1  16
TORSDOF 6
ENDMDL
MODEL 5
REMARK VINA RESULT:      -7.7      0.717      1.175
REMARK  Name = 
REMARK  7 active torsions:
REMARK  status: ('A' for Active; 'I' for Inactive)
REMARK    1  A    between atoms: C_1  and  C_2
REMARK    2  A    between atoms: C_2  and  C_3
REMARK    3  A    between atoms: C_3  and  N_4
REMARK    4  A    between atoms: C_3  and  C_14
REMARK    5  A    between atoms: N_4  and  S_5
REMARK    6  A    between atoms: S_5  and  N_8
REMARK    7  A    between atoms: C_16  and  C_17
REMARK                            x       y       z     vdW  Elec       q    Type
REMARK                         _______ _______ _______ _____ _____    ______ ____
ROOT
ATOM      1  C   UNL     1       2.611   5.443  19.753  0.00  0.00    +0.000 C 
ENDROOT
BRANCH   1   2
ATOM      2  C   UNL     1       2.057   6.834  19.789  0.00  0.00    +0.000 A 
ATOM      3  N   UNL     1       1.363   7.388  20.767  0.00  0.00    +0.000 NA
ATOM      4  C   UNL     1       1.152   8.689  20.381  0.00  0.00    +0.000 A 
ATOM      5  C   UNL     1       1.701   8.920  19.139  0.00  0.00    +0.000 A 
ATOM      6  N   UNL     1       2.272   7.731  18.775  0.00  0.00    +0.000 N 
ATOM      7  H   UNL     1       2.829   7.567  17.947  0.00  0.00    +0.000 HD
BRANCH   4   8
ATOM      8  C   UNL     1       0.480   9.667  21.213  0.00  0.00    +0.000 A 
ATOM      9  C   UNL     1      -0.124   9.288  22.418  0.00  0.00    +0.000 A 
ATOM     10  C   UNL     1      -0.821  10.225  23.181  0.00  0.00    +0.000 A 
ATOM     11  C   UNL     1      -0.910  11.549  22.752  0.00  0.00    +0.000 A 
ATOM     12  C   UNL     1      -0.298  11.938  21.561  0.00  0.00    +0.000 A 
ATOM     13  C   UNL     1       0.392  11.000  20.791  0.00  0.00    +0.000 A 
ENDBRANCH   4   8
ENDBRANCH   1   2
BRANCH   1  15
ATOM     14  C   UNL     1       1.583   3.307  20.740  0.00  0.00    +0.000 C 
ATOM     15  C   UNL     1       2.221   4.662  21.027  0.00  0.00    +0.000 C 
ENDBRANCH   1  15
BRANCH   1  16
ATOM     16  N   UNL     1       4.099   5.515  19.713  0.00  0.00    +0.000 NA
ATOM     17  H   UNL     1       4.372   6.456  19.435  0.00  0.00    +0.000 HD
BRANCH  16  18
ATOM     18  S   UNL     1       4.889   4.404  18.741  0.00  0.00    +0.000 S 
ATOM     19  O   UNL     1       5.474   3.398  19.606  0.00  0.00    +0.000 OA
ATOM     20  O   UNL     1       4.011   4.030  17.668  0.00  0.00    +0.000 OA
BRANCH  18  21
ATOM     21  N   UNL     1       6.104   5.386  18.128  0.00  0.00    +0.000 NA
ATOM     22  C   UNL     1       5.674   6.649  17.455  0.00  0.00    +0.000 C 
ATOM     23  C   UNL     1       5.232   6.409  16.003  0.00  0.00    +0.000 C 
ATOM     24  O   UNL     1       6.222   5.709  15.238  0.00  0.00    +0.000 OA
ATOM     25  C   UNL     1       6.636   4.484  15.857  0.00  0.00    +0.000 C 
ATOM     26  C   UNL     1       7.139   4.715  17.285  0.00  0.00    +0.000 C 
ENDBRANCH  18  21
ENDBRANCH  16  18
ENDBRANCH   1  16
TORSDOF 6
ENDMDL
MODEL 6
REMARK VINA RESULT:      -7.7      4.866      8.134
REMARK  Name = 
REMARK  7 active torsions:
REMARK  status: ('A' for Active; 'I' for Inactive)
REMARK    1  A    between atoms: C_1  and  C_2
REMARK    2  A    between atoms: C_2  and  C_3
REMARK    3  A    between atoms: C_3  and  N_4
REMARK    4  A    between atoms: C_3  and  C_14
REMARK    5  A    between atoms: N_4  and  S_5
REMARK    6  A    between atoms: S_5  and  N_8
REMARK    7  A    between atoms: C_16  and  C_17
REMARK                            x       y       z     vdW  Elec       q    Type
REMARK                         _______ _______ _______ _____ _____    ______ ____
ROOT
ATOM      1  C   UNL     1       6.157   5.391  18.861  0.00  0.00    +0.000 C 
ENDROOT
BRANCH   1   2
ATOM      2  C   UNL     1       5.999   5.546  17.379  0.00  0.00    +0.000 A 
ATOM      3  N   UNL     1       6.509   4.770  16.440  0.00  0.00    +0.000 NA
ATOM      4  C   UNL     1       6.024   5.259  15.252  0.00  0.00    +0.000 A 
ATOM      5  C   UNL     1       5.232   6.364  15.470  0.00  0.00    +0.000 A 
ATOM      6  N   UNL     1       5.227   6.536  16.828  0.00  0.00    +0.000 N 
ATOM      7  H   UNL     1       4.680   7.215  17.340  0.00  0.00    +0.000 HD
BRANCH   4   8
ATOM      8  C   UNL     1       6.293   4.642  13.969  0.00  0.00    +0.000 A 
ATOM      9  C   UNL     1       7.400   5.032  13.203  0.00  0.00    +0.000 A 
ATOM     10  C   UNL     1       7.616   4.476  11.943  0.00  0.00    +0.000 A 
ATOM     11  C   UNL     1       6.734   3.518  11.441  0.00  0.00    +0.000 A 
ATOM     12  C   UNL     1       5.638   3.113  12.202  0.00  0.00    +0.000 A 
ATOM     13  C   UNL     1       5.416   3.676  13.461  0.00  0.00    +0.000 A 
ENDBRANCH   4   8
ENDBRANCH   1   2
BRANCH   1  15
ATOM     14  C   UNL     1       8.172   6.976  18.725  0.00  0.00    +0.000 C 
ATOM     15  C   UNL     1       7.613   5.676  19.292  0.00  0.00    +0.000 C 
ENDBRANCH   1  15
BRANCH   1  16
ATOM     16  N   UNL     1       5.850   3.981  19.236  0.00  0.00    +0.000 NA
ATOM     17  H   UNL     1       6.100   3.376  18.456  0.00  0.00    +0.000 HD
BRANCH  16  18
ATOM     18  S   UNL     1       4.280   3.645  19.711  0.00  0.00    +0.000 S 
ATOM     19  O   UNL     1       4.332   2.568  20.680  0.00  0.00    +0.000 OA
ATOM     20  O   UNL     1       3.623   4.884  20.024  0.00  0.00    +0.000 OA
BRANCH  18  21
ATOM     21  N   UNL     1       3.670   3.061  18.261  0.00  0.00    +0.000 NA
ATOM     22  C   UNL     1       2.823   3.997  17.461  0.00  0.00    +0.000 C 
ATOM     23  C   UNL     1       1.374   4.046  17.969  0.00  0.00    +0.000 C 
ATOM     24  O   UNL     1       0.784   2.742  18.063  0.00  0.00    +0.000 OA
ATOM     25  C   UNL     1       1.571   1.832  18.843  0.00  0.00    +0.000 C 
ATOM     26  C   UNL     1       3.004   1.726  18.310  0.00  0.00    +0.000 C 
ENDBRANCH  18  21
ENDBRANCH  16  18
ENDBRANCH   1  16
TORSDOF 6
ENDMDL
MODEL 7
REMARK VINA RESULT:      -7.6      0.721      1.542
REMARK  Name = 
REMARK  7 active torsions:
REMARK  status: ('A' for Active; 'I' for Inactive)
REMARK    1  A    between atoms: C_1  and  C_2
REMARK    2  A    between atoms: C_2  and  C_3
REMARK    3  A    between atoms: C_3  and  N_4
REMARK    4  A    between atoms: C_3  and  C_14
REMARK    5  A    between atoms: N_4  and  S_5
REMARK    6  A    between atoms: S_5  and  N_8
REMARK    7  A    between atoms: C_16  and  C_17
REMARK                            x       y       z     vdW  Elec       q    Type
REMARK                         _______ _______ _______ _____ _____    ______ ____
ROOT
ATOM      1  C   UNL     1       2.694   5.562  19.638  0.00  0.00    +0.000 C 
ENDROOT
BRANCH   1   2
ATOM      2  C   UNL     1       2.099   6.936  19.706  0.00  0.00    +0.000 A 
ATOM      3  N   UNL     1       1.336   7.424  20.666  0.00  0.00    +0.000 NA
ATOM      4  C   UNL     1       1.110   8.737  20.328  0.00  0.00    +0.000 A 
ATOM      5  C   UNL     1       1.722   9.041  19.133  0.00  0.00    +0.000 A 
ATOM      6  N   UNL     1       2.346   7.885  18.748  0.00  0.00    +0.000 N 
ATOM      7  H   UNL     1       2.954   7.775  17.947  0.00  0.00    +0.000 HD
BRANCH   4   8
ATOM      8  C   UNL     1       0.364   9.656  21.164  0.00  0.00    +0.000 A 
ATOM      9  C   UNL     1       0.165  10.985  20.768  0.00  0.00    +0.000 A 
ATOM     10  C   UNL     1      -0.501  11.877  21.607  0.00  0.00    +0.000 A 
ATOM     11  C   UNL     1      -0.983  11.447  22.843  0.00  0.00    +0.000 A 
ATOM     12  C   UNL     1      -0.803  10.122  23.239  0.00  0.00    +0.000 A 
ATOM     13  C   UNL     1      -0.128   9.229  22.404  0.00  0.00    +0.000 A 
ENDBRANCH   4   8
ENDBRANCH   1   2
BRANCH   1  15
ATOM     14  C   UNL     1       1.257   3.762  20.771  0.00  0.00    +0.000 C 
ATOM     15  C   UNL     1       2.392   4.768  20.928  0.00  0.00    +0.000 C 
ENDBRANCH   1  15
BRANCH   1  16
ATOM     16  N   UNL     1       4.176   5.681  19.525  0.00  0.00    +0.000 NA
ATOM     17  H   UNL     1       4.399   6.592  19.129  0.00  0.00    +0.000 HD
BRANCH  16  18
ATOM     18  S   UNL     1       4.970   4.493  18.654  0.00  0.00    +0.000 S 
ATOM     19  O   UNL     1       5.547   3.560  19.602  0.00  0.00    +0.000 OA
ATOM     20  O   UNL     1       4.099   4.033  17.609  0.00  0.00    +0.000 OA
BRANCH  18  21
ATOM     21  N   UNL     1       6.191   5.419  17.970  0.00  0.00    +0.000 NA
ATOM     22  C   UNL     1       5.776   6.680  17.283  0.00  0.00    +0.000 C 
ATOM     23  C   UNL     1       5.269   6.422  15.856  0.00  0.00    +0.000 C 
ATOM     24  O   UNL     1       6.205   5.672  15.071  0.00  0.00    +0.000 OA
ATOM     25  C   UNL     1       6.604   4.448  15.703  0.00  0.00    +0.000 C 
ATOM     26  C   UNL     1       7.169   4.695  17.105  0.00  0.00    +0.000 C 
ENDBRANCH  18  21
ENDBRANCH  16  18
ENDBRANCH   1  16
TORSDOF 6
ENDMDL
MODEL 8
REMARK VINA RESULT:      -7.6      1.481      2.144
REMARK  Name = 
REMARK  7 active torsions:
REMARK  status: ('A' for Active; 'I' for Inactive)
REMARK    1  A    between atoms: C_1  and  C_2
REMARK    2  A    between atoms: C_2  and  C_3
REMARK    3  A    between atoms: C_3  and  N_4
REMARK    4  A    between atoms: C_3  and  C_14
REMARK    5  A    between atoms: N_4  and  S_5
REMARK    6  A    between atoms: S_5  and  N_8
REMARK    7  A    between atoms: C_16  and  C_17
REMARK                            x       y       z     vdW  Elec       q    Type
REMARK                         _______ _______ _______ _____ _____    ______ ____
ROOT
ATOM      1  C   UNL     1       2.832   5.889  19.035  0.00  0.00    +0.000 C 
ENDROOT
BRANCH   1   2
ATOM      2  C   UNL     1       2.219   7.180  19.485  0.00  0.00    +0.000 A 
ATOM      3  N   UNL     1       1.826   8.182  18.721  0.00  0.00    +0.000 NA
ATOM      4  C   UNL     1       1.258   9.098  19.573  0.00  0.00    +0.000 A 
ATOM      5  C   UNL     1       1.331   8.657  20.875  0.00  0.00    +0.000 A 
ATOM      6  N   UNL     1       1.946   7.436  20.804  0.00  0.00    +0.000 N 
ATOM      7  H   UNL     1       2.093   6.798  21.575  0.00  0.00    +0.000 HD
BRANCH   4   8
ATOM      8  C   UNL     1       0.635  10.325  19.121  0.00  0.00    +0.000 A 
ATOM      9  C   UNL     1       1.314  11.548  19.205  0.00  0.00    +0.000 A 
ATOM     10  C   UNL     1       0.683  12.731  18.824  0.00  0.00    +0.000 A 
ATOM     11  C   UNL     1      -0.626  12.703  18.346  0.00  0.00    +0.000 A 
ATOM     12  C   UNL     1      -1.305  11.489  18.244  0.00  0.00    +0.000 A 
ATOM     13  C   UNL     1      -0.678  10.303  18.634  0.00  0.00    +0.000 A 
ENDBRANCH   4   8
ENDBRANCH   1   2
BRANCH   1  15
ATOM     14  C   UNL     1       1.850   4.095  20.587  0.00  0.00    +0.000 C 
ATOM     15  C   UNL     1       1.834   4.720  19.197  0.00  0.00    +0.000 C 
ENDBRANCH   1  15
BRANCH   1  16
ATOM     16  N   UNL     1       4.013   5.588  19.893  0.00  0.00    +0.000 NA
ATOM     17  H   UNL     1       4.312   6.449  20.347  0.00  0.00    +0.000 HD
BRANCH  16  18
ATOM     18  S   UNL     1       5.331   4.872  19.149  0.00  0.00    +0.000 S 
ATOM     19  O   UNL     1       6.530   5.417  19.755  0.00  0.00    +0.000 OA
ATOM     20  O   UNL     1       5.112   3.454  19.099  0.00  0.00    +0.000 OA
BRANCH  18  21
ATOM     21  N   UNL     1       5.152   5.501  17.603  0.00  0.00    +0.000 NA
ATOM     22  C   UNL     1       5.477   4.590  16.464  0.00  0.00    +0.000 C 
ATOM     23  C   UNL     1       6.987   4.525  16.187  0.00  0.00    +0.000 C 
ATOM     24  O   UNL     1       7.567   5.824  16.011  0.00  0.00    +0.000 OA
ATOM     25  C   UNL     1       7.284   6.710  17.103  0.00  0.00    +0.000 C 
ATOM     26  C   UNL     1       5.777   6.833  17.352  0.00  0.00    +0.000 C 
ENDBRANCH  18  21
ENDBRANCH  16  18
ENDBRANCH   1  16
TORSDOF 6
ENDMDL
MODEL 9
REMARK VINA RESULT:      -7.5      1.554      2.177
REMARK  Name = 
REMARK  7 active torsions:
REMARK  status: ('A' for Active; 'I' for Inactive)
REMARK    1  A    between atoms: C_1  and  C_2
REMARK    2  A    between atoms: C_2  and  C_3
REMARK    3  A    between atoms: C_3  and  N_4
REMARK    4  A    between atoms: C_3  and  C_14
REMARK    5  A    between atoms: N_4  and  S_5
REMARK    6  A    between atoms: S_5  and  N_8
REMARK    7  A    between atoms: C_16  and  C_17
REMARK                            x       y       z     vdW  Elec       q    Type
REMARK                         _______ _______ _______ _____ _____    ______ ____
ROOT
ATOM      1  C   UNL     1       2.342   5.927  19.738  0.00  0.00    +0.000 C 
ENDROOT
BRANCH   1   2
ATOM      2  C   UNL     1       1.869   7.307  20.081  0.00  0.00    +0.000 A 
ATOM      3  N   UNL     1       1.492   8.250  19.237  0.00  0.00    +0.000 NA
ATOM      4  C   UNL     1       1.068   9.298  20.018  0.00  0.00    +0.000 A 
ATOM      5  C   UNL     1       1.217   8.997  21.353  0.00  0.00    +0.000 A 
ATOM      6  N   UNL     1       1.729   7.728  21.378  0.00  0.00    +0.000 N 
ATOM      7  H   UNL     1       1.891   7.167  22.204  0.00  0.00    +0.000 HD
BRANCH   4   8
ATOM      8  C   UNL     1       0.506  10.517  19.475  0.00  0.00    +0.000 A 
ATOM      9  C   UNL     1      -0.749  10.513  18.851  0.00  0.00    +0.000 A 
ATOM     10  C   UNL     1      -1.254  11.679  18.278  0.00  0.00    +0.000 A 
ATOM     11  C   UNL     1      -0.517  12.861  18.333  0.00  0.00    +0.000 A 
ATOM     12  C   UNL     1       0.726  12.879  18.965  0.00  0.00    +0.000 A 
ATOM     13  C   UNL     1       1.238  11.710  19.532  0.00  0.00    +0.000 A 
ENDBRANCH   4   8
ENDBRANCH   1   2
BRANCH   1  15
ATOM     14  C   UNL     1       0.975   3.847  20.371  0.00  0.00    +0.000 C 
ATOM     15  C   UNL     1       1.949   4.921  20.843  0.00  0.00    +0.000 C 
ENDBRANCH   1  15
BRANCH   1  16
ATOM     16  N   UNL     1       3.830   5.932  19.649  0.00  0.00    +0.000 NA
ATOM     17  H   UNL     1       4.136   6.866  19.383  0.00  0.00    +0.000 HD
BRANCH  16  18
ATOM     18  S   UNL     1       4.535   4.809  18.627  0.00  0.00    +0.000 S 
ATOM     19  O   UNL     1       5.268   3.864  19.447  0.00  0.00    +0.000 OA
ATOM     20  O   UNL     1       3.542   4.355  17.693  0.00  0.00    +0.000 OA
BRANCH  18  21
ATOM     21  N   UNL     1       5.617   5.807  17.823  0.00  0.00    +0.000 NA
ATOM     22  C   UNL     1       5.649   5.704  16.332  0.00  0.00    +0.000 C 
ATOM     23  C   UNL     1       6.495   4.517  15.851  0.00  0.00    +0.000 C 
ATOM     24  O   UNL     1       7.815   4.523  16.412  0.00  0.00    +0.000 OA
ATOM     25  C   UNL     1       7.809   4.602  17.844  0.00  0.00    +0.000 C 
ATOM     26  C   UNL     1       7.019   5.818  18.337  0.00  0.00    +0.000 C 
ENDBRANCH  18  21
ENDBRANCH  16  18
ENDBRANCH   1  16
TORSDOF 6
ENDMDL
