MODEL 1
REMARK VINA RESULT:      -7.7      0.000      0.000
REMARK  Name = 
REMARK  10 active torsions:
REMARK  status: ('A' for Active; 'I' for Inactive)
REMARK    1  A    between atoms: C_1  and  C_2
REMARK    2  A    between atoms: C_2  and  C_3
REMARK    3  A    between atoms: C_2  and  C_4
REMARK    4  A    between atoms: C_8  and  C_9
REMARK    5  A    between atoms: C_9  and  C_10
REMARK    6  A    between atoms: C_9  and  C_11
REMARK    7  A    between atoms: C_12  and  N_13
REMARK    8  A    between atoms: N_16  and  C_17
REMARK    9  A    between atoms: C_17  and  C_18
REMARK   10  A    between atoms: C_18  and  C_19
REMARK                            x       y       z     vdW  Elec       q    Type
REMARK                         _______ _______ _______ _____ _____    ______ ____
ROOT
ATOM      1  N   UNL     1       2.847   6.636  19.211  0.00  0.00    +0.000 N 
ATOM      2  C   UNL     1       2.174   7.624  18.503  0.00  0.00    +0.000 C 
ATOM      3  O   UNL     1       1.840   7.580  17.334  0.00  0.00    +0.000 OA
ATOM      4  N   UNL     1       1.941   8.711  19.314  0.00  0.00    +0.000 N 
ATOM      5  H   UNL     1       3.445   7.024  19.915  0.00  0.00    +0.000 HD
ATOM      6  H   UNL     1       2.040   8.612  20.308  0.00  0.00    +0.000 HD
ENDROOT
BRANCH   1  12
ATOM      7  C   UNL     1       2.609   4.196  19.053  0.00  0.00    +0.000 A 
ATOM      8  C   UNL     1       3.035   2.970  18.501  0.00  0.00    +0.000 A 
ATOM      9  C   UNL     1       4.076   2.912  17.591  0.00  0.00    +0.000 A 
ATOM     10  C   UNL     1       4.721   4.082  17.222  0.00  0.00    +0.000 A 
ATOM     11  C   UNL     1       4.351   5.347  17.743  0.00  0.00    +0.000 A 
ATOM     12  C   UNL     1       3.252   5.402  18.647  0.00  0.00    +0.000 A 
BRANCH   7  14
ATOM     13  C   UNL     1       0.444   3.114  19.815  0.00  0.00    +0.000 C 
ATOM     14  C   UNL     1       1.540   4.135  20.146  0.00  0.00    +0.000 C 
ATOM     15  C   UNL     1       2.169   3.825  21.511  0.00  0.00    +0.000 C 
ENDBRANCH   7  14
BRANCH  11  16
ATOM     16  C   UNL     1       5.154   6.512  17.153  0.00  0.00    +0.000 C 
ATOM     17  C   UNL     1       6.604   6.495  17.648  0.00  0.00    +0.000 C 
ATOM     18  C   UNL     1       5.099   6.750  15.647  0.00  0.00    +0.000 C 
ENDBRANCH  11  16
ENDBRANCH   1  12
BRANCH   4  19
ATOM     19  C   UNL     1       1.354   9.947  18.809  0.00  0.00    +0.000 C 
BRANCH  19  20
ATOM     20  C   UNL     1       0.056  10.252  19.565  0.00  0.00    +0.000 C 
ATOM     21  C   UNL     1      -0.219   9.509  20.861  0.00  0.00    +0.000 C 
ATOM     22  C   UNL     1       0.173  10.955  20.908  0.00  0.00    +0.000 C 
BRANCH  20  23
ATOM     23  C   UNL     1      -1.094  10.601  18.625  0.00  0.00    +0.000 A 
ATOM     24  C   UNL     1      -2.080  11.521  19.022  0.00  0.00    +0.000 A 
ATOM     25  C   UNL     1      -3.329  11.549  18.400  0.00  0.00    +0.000 A 
ATOM     26  C   UNL     1      -3.596  10.689  17.338  0.00  0.00    +0.000 A 
ATOM     27  C   UNL     1      -2.591   9.861  16.847  0.00  0.00    +0.000 A 
ATOM     28  C   UNL     1      -1.346   9.832  17.475  0.00  0.00    +0.000 A 
ENDBRANCH  20  23
ENDBRANCH  19  20
ENDBRANCH   4  19
TORSDOF 6
ENDMDL
MODEL 2
REMARK VINA RESULT:      -7.7      0.255      3.341
REMARK  Name = 
REMARK  10 active torsions:
REMARK  status: ('A' for Active; 'I' for Inactive)
REMARK    1  A    between atoms: C_1  and  C_2
REMARK    2  A    between atoms: C_2  and  C_3
REMARK    3  A    between atoms: C_2  and  C_4
REMARK    4  A    between atoms: C_8  and  C_9
REMARK    5  A    between atoms: C_9  and  C_10
REMARK    6  A    between atoms: C_9  and  C_11
REMARK    7  A    between atoms: C_12  and  N_13
REMARK    8  A    between atoms: N_16  and  C_17
REMARK    9  A    between atoms: C_17  and  C_18
REMARK   10  A    between atoms: C_18  and  C_19
REMARK                            x       y       z     vdW  Elec       q    Type
REMARK                         _______ _______ _______ _____ _____    ______ ____
ROOT
ATOM      1  N   UNL     1       2.923   6.542  19.182  0.00  0.00    +0.000 N 
ATOM      2  C   UNL     1       2.244   7.536  18.489  0.00  0.00    +0.000 C 
ATOM      3  O   UNL     1       1.915   7.509  17.318  0.00  0.00    +0.000 OA
ATOM      4  N   UNL     1       1.999   8.607  19.318  0.00  0.00    +0.000 N 
ATOM      5  H   UNL     1       3.515   6.924  19.896  0.00  0.00    +0.000 HD
ATOM      6  H   UNL     1       2.095   8.492  20.310  0.00  0.00    +0.000 HD
ENDROOT
BRANCH   1  12
ATOM      7  C   UNL     1       4.467   5.307  17.726  0.00  0.00    +0.000 A 
ATOM      8  C   UNL     1       4.862   4.090  17.131  0.00  0.00    +0.000 A 
ATOM      9  C   UNL     1       4.167   2.916  17.365  0.00  0.00    +0.000 A 
ATOM     10  C   UNL     1       3.052   2.939  18.189  0.00  0.00    +0.000 A 
ATOM     11  C   UNL     1       2.595   4.128  18.811  0.00  0.00    +0.000 A 
ATOM     12  C   UNL     1       3.341   5.322  18.599  0.00  0.00    +0.000 A 
BRANCH   7  14
ATOM     13  C   UNL     1       6.700   6.512  17.709  0.00  0.00    +0.000 C 
ATOM     14  C   UNL     1       5.223   6.567  17.299  0.00  0.00    +0.000 C 
ATOM     15  C   UNL     1       5.093   6.800  15.788  0.00  0.00    +0.000 C 
ENDBRANCH   7  14
BRANCH  11  16
ATOM     16  C   UNL     1       1.386   3.914  19.728  0.00  0.00    +0.000 C 
ATOM     17  C   UNL     1       0.485   2.789  19.207  0.00  0.00    +0.000 C 
ATOM     18  C   UNL     1       1.622   3.767  21.229  0.00  0.00    +0.000 C 
ENDBRANCH  11  16
ENDBRANCH   1  12
BRANCH   4  19
ATOM     19  C   UNL     1       1.402   9.846  18.832  0.00  0.00    +0.000 C 
BRANCH  19  20
ATOM     20  C   UNL     1       0.113  10.141  19.607  0.00  0.00    +0.000 C 
ATOM     21  C   UNL     1      -0.171   9.346  20.870  0.00  0.00    +0.000 C 
ATOM     22  C   UNL     1       0.249  10.780  20.980  0.00  0.00    +0.000 C 
BRANCH  20  23
ATOM     23  C   UNL     1      -1.034  10.555  18.689  0.00  0.00    +0.000 A 
ATOM     24  C   UNL     1      -1.978  11.504  19.118  0.00  0.00    +0.000 A 
ATOM     25  C   UNL     1      -3.233  11.593  18.513  0.00  0.00    +0.000 A 
ATOM     26  C   UNL     1      -3.546  10.766  17.437  0.00  0.00    +0.000 A 
ATOM     27  C   UNL     1      -2.581   9.911  16.916  0.00  0.00    +0.000 A 
ATOM     28  C   UNL     1      -1.330   9.821  17.527  0.00  0.00    +0.000 A 
ENDBRANCH  20  23
ENDBRANCH  19  20
ENDBRANCH   4  19
TORSDOF 6
ENDMDL
MODEL 3
REMARK VINA RESULT:      -7.6      1.096      1.614
REMARK  Name = 
REMARK  10 active torsions:
REMARK  status: ('A' for Active; 'I' for Inactive)
REMARK    1  A    between atoms: C_1  and  C_2
REMARK    2  A    between atoms: C_2  and  C_3
REMARK    3  A    between atoms: C_2  and  C_4
REMARK    4  A    between atoms: C_8  and  C_9
REMARK    5  A    between atoms: C_9  and  C_10
REMARK    6  A    between atoms: C_9  and  C_11
REMARK    7  A    between atoms: C_12  and  N_13
REMARK    8  A    between atoms: N_16  and  C_17
REMARK    9  A    between atoms: C_17  and  C_18
REMARK   10  A    between atoms: C_18  and  C_19
REMARK                            x       y       z     vdW  Elec       q    Type
REMARK                         _______ _______ _______ _____ _____    ______ ____
ROOT
ATOM      1  N   UNL     1       2.890   5.978  19.911  0.00  0.00    +0.000 N 
ATOM      2  C   UNL     1       2.331   7.165  19.456  0.00  0.00    +0.000 C 
ATOM      3  O   UNL     1       2.122   7.472  18.298  0.00  0.00    +0.000 OA
ATOM      4  N   UNL     1       2.052   7.993  20.518  0.00  0.00    +0.000 N 
ATOM      5  H   UNL     1       3.423   6.114  20.749  0.00  0.00    +0.000 HD
ATOM      6  H   UNL     1       2.041   7.614  21.448  0.00  0.00    +0.000 HD
ENDROOT
BRANCH   1  12
ATOM      7  C   UNL     1       2.490   3.772  18.907  0.00  0.00    +0.000 A 
ATOM      8  C   UNL     1       2.928   2.722  18.073  0.00  0.00    +0.000 A 
ATOM      9  C   UNL     1       4.144   2.784  17.415  0.00  0.00    +0.000 A 
ATOM     10  C   UNL     1       4.954   3.895  17.589  0.00  0.00    +0.000 A 
ATOM     11  C   UNL     1       4.581   4.982  18.420  0.00  0.00    +0.000 A 
ATOM     12  C   UNL     1       3.310   4.928  19.059  0.00  0.00    +0.000 A 
BRANCH   7  14
ATOM     13  C   UNL     1       0.293   2.507  19.011  0.00  0.00    +0.000 C 
ATOM     14  C   UNL     1       1.194   3.547  19.688  0.00  0.00    +0.000 C 
ATOM     15  C   UNL     1       1.490   3.138  21.138  0.00  0.00    +0.000 C 
ENDBRANCH   7  14
BRANCH  11  16
ATOM     16  C   UNL     1       5.596   6.130  18.419  0.00  0.00    +0.000 C 
ATOM     17  C   UNL     1       6.946   5.680  18.985  0.00  0.00    +0.000 C 
ATOM     18  C   UNL     1       5.788   6.937  17.137  0.00  0.00    +0.000 C 
ENDBRANCH  11  16
ENDBRANCH   1  12
BRANCH   4  19
ATOM     19  C   UNL     1       1.565   9.356  20.336  0.00  0.00    +0.000 C 
BRANCH  19  20
ATOM     20  C   UNL     1       0.141   9.478  20.891  0.00  0.00    +0.000 C 
ATOM     21  C   UNL     1      -0.409   8.339  21.732  0.00  0.00    +0.000 C 
ATOM     22  C   UNL     1      -0.015   9.623  22.397  0.00  0.00    +0.000 C 
BRANCH  20  23
ATOM     23  C   UNL     1      -0.782  10.253  19.956  0.00  0.00    +0.000 A 
ATOM     24  C   UNL     1      -1.129   9.723  18.702  0.00  0.00    +0.000 A 
ATOM     25  C   UNL     1      -1.601  10.547  17.678  0.00  0.00    +0.000 A 
ATOM     26  C   UNL     1      -1.778  11.908  17.908  0.00  0.00    +0.000 A 
ATOM     27  C   UNL     1      -1.563  12.430  19.180  0.00  0.00    +0.000 A 
ATOM     28  C   UNL     1      -1.087  11.604  20.198  0.00  0.00    +0.000 A 
ENDBRANCH  20  23
ENDBRANCH  19  20
ENDBRANCH   4  19
TORSDOF 6
ENDMDL
MODEL 4
REMARK VINA RESULT:      -7.6      1.037      3.606
REMARK  Name = 
REMARK  10 active torsions:
REMARK  status: ('A' for Active; 'I' for Inactive)
REMARK    1  A    between atoms: C_1  and  C_2
REMARK    2  A    between atoms: C_2  and  C_3
REMARK    3  A    between atoms: C_2  and  C_4
REMARK    4  A    between atoms: C_8  and  C_9
REMARK    5  A    between atoms: C_9  and  C_10
REMARK    6  A    between atoms: C_9  and  C_11
REMARK    7  A    between atoms: C_12  and  N_13
REMARK    8  A    between atoms: N_16  and  C_17
REMARK    9  A    between atoms: C_17  and  C_18
REMARK   10  A    between atoms: C_18  and  C_19
REMARK                            x       y       z     vdW  Elec       q    Type
REMARK                         _______ _______ _______ _____ _____    ______ ____
ROOT
ATOM      1  N   UNL     1       2.999   5.966  19.796  0.00  0.00    +0.000 N 
ATOM      2  C   UNL     1       2.386   7.112  19.305  0.00  0.00    +0.000 C 
ATOM      3  O   UNL     1       2.098   7.341  18.145  0.00  0.00    +0.000 OA
ATOM      4  N   UNL     1       2.155   8.000  20.329  0.00  0.00    +0.000 N 
ATOM      5  H   UNL     1       3.580   6.165  20.588  0.00  0.00    +0.000 HD
ATOM      6  H   UNL     1       2.211   7.680  21.279  0.00  0.00    +0.000 HD
ENDROOT
BRANCH   1  12
ATOM      7  C   UNL     1       4.585   4.955  18.217  0.00  0.00    +0.000 A 
ATOM      8  C   UNL     1       4.952   3.869  17.394  0.00  0.00    +0.000 A 
ATOM      9  C   UNL     1       4.162   2.735  17.304  0.00  0.00    +0.000 A 
ATOM     10  C   UNL     1       2.981   2.671  18.026  0.00  0.00    +0.000 A 
ATOM     11  C   UNL     1       2.548   3.729  18.864  0.00  0.00    +0.000 A 
ATOM     12  C   UNL     1       3.387   4.872  18.985  0.00  0.00    +0.000 A 
BRANCH   7  14
ATOM     13  C   UNL     1       6.909   5.918  18.550  0.00  0.00    +0.000 C 
ATOM     14  C   UNL     1       5.459   6.209  18.145  0.00  0.00    +0.000 C 
ATOM     15  C   UNL     1       5.407   6.834  16.744  0.00  0.00    +0.000 C 
ENDBRANCH   7  14
BRANCH  11  16
ATOM     16  C   UNL     1       1.248   3.421  19.616  0.00  0.00    +0.000 C 
ATOM     17  C   UNL     1       0.422   2.357  18.887  0.00  0.00    +0.000 C 
ATOM     18  C   UNL     1       1.321   3.121  21.111  0.00  0.00    +0.000 C 
ENDBRANCH  11  16
ENDBRANCH   1  12
BRANCH   4  19
ATOM     19  C   UNL     1       1.627   9.339  20.094  0.00  0.00    +0.000 C 
BRANCH  19  20
ATOM     20  C   UNL     1       0.232   9.465  20.716  0.00  0.00    +0.000 C 
ATOM     21  C   UNL     1      -0.297   8.309  21.549  0.00  0.00    +0.000 C 
ATOM     22  C   UNL     1       0.144   9.569  22.230  0.00  0.00    +0.000 C 
BRANCH  20  23
ATOM     23  C   UNL     1      -0.721  10.278  19.845  0.00  0.00    +0.000 A 
ATOM     24  C   UNL     1      -1.263   9.720  18.675  0.00  0.00    +0.000 A 
ATOM     25  C   UNL     1      -1.775  10.533  17.661  0.00  0.00    +0.000 A 
ATOM     26  C   UNL     1      -1.796  11.916  17.824  0.00  0.00    +0.000 A 
ATOM     27  C   UNL     1      -1.383  12.478  19.027  0.00  0.00    +0.000 A 
ATOM     28  C   UNL     1      -0.867  11.664  20.034  0.00  0.00    +0.000 A 
ENDBRANCH  20  23
ENDBRANCH  19  20
ENDBRANCH   4  19
TORSDOF 6
ENDMDL
MODEL 5
REMARK VINA RESULT:      -7.5      0.945      2.592
REMARK  Name = 
REMARK  10 active torsions:
REMARK  status: ('A' for Active; 'I' for Inactive)
REMARK    1  A    between atoms: C_1  and  C_2
REMARK    2  A    between atoms: C_2  and  C_3
REMARK    3  A    between atoms: C_2  and  C_4
REMARK    4  A    between atoms: C_8  and  C_9
REMARK    5  A    between atoms: C_9  and  C_10
REMARK    6  A    between atoms: C_9  and  C_11
REMARK    7  A    between atoms: C_12  and  N_13
REMARK    8  A    between atoms: N_16  and  C_17
REMARK    9  A    between atoms: C_17  and  C_18
REMARK   10  A    between atoms: C_18  and  C_19
REMARK                            x       y       z     vdW  Elec       q    Type
REMARK                         _______ _______ _______ _____ _____    ______ ____
ROOT
ATOM      1  N   UNL     1       2.859   6.815  19.082  0.00  0.00    +0.000 N 
ATOM      2  C   UNL     1       2.246   7.799  18.317  0.00  0.00    +0.000 C 
ATOM      3  O   UNL     1       1.974   7.734  17.133  0.00  0.00    +0.000 OA
ATOM      4  N   UNL     1       1.994   8.910  19.089  0.00  0.00    +0.000 N 
ATOM      5  H   UNL     1       3.426   7.208  19.809  0.00  0.00    +0.000 HD
ATOM      6  H   UNL     1       2.038   8.833  20.089  0.00  0.00    +0.000 HD
ENDROOT
BRANCH   1  12
ATOM      7  C   UNL     1       2.630   4.370  19.030  0.00  0.00    +0.000 A 
ATOM      8  C   UNL     1       3.059   3.122  18.530  0.00  0.00    +0.000 A 
ATOM      9  C   UNL     1       4.096   3.030  17.618  0.00  0.00    +0.000 A 
ATOM     10  C   UNL     1       4.734   4.186  17.196  0.00  0.00    +0.000 A 
ATOM     11  C   UNL     1       4.361   5.471  17.665  0.00  0.00    +0.000 A 
ATOM     12  C   UNL     1       3.266   5.560  18.570  0.00  0.00    +0.000 A 
BRANCH   7  14
ATOM     13  C   UNL     1       0.507   3.271  19.880  0.00  0.00    +0.000 C 
ATOM     14  C   UNL     1       1.566   4.351  20.130  0.00  0.00    +0.000 C 
ATOM     15  C   UNL     1       2.209   4.164  21.512  0.00  0.00    +0.000 C 
ENDBRANCH   7  14
BRANCH  11  16
ATOM     16  C   UNL     1       5.156   6.612  17.021  0.00  0.00    +0.000 C 
ATOM     17  C   UNL     1       6.591   6.660  17.557  0.00  0.00    +0.000 C 
ATOM     18  C   UNL     1       5.141   6.750  15.501  0.00  0.00    +0.000 C 
ENDBRANCH  11  16
ENDBRANCH   1  12
BRANCH   4  19
ATOM     19  C   UNL     1       1.461  10.145  18.524  0.00  0.00    +0.000 C 
BRANCH  19  20
ATOM     20  C   UNL     1       0.053  10.401  19.071  0.00  0.00    +0.000 C 
ATOM     21  C   UNL     1      -0.856  11.355  18.315  0.00  0.00    +0.000 C 
ATOM     22  C   UNL     1      -1.122   9.881  18.257  0.00  0.00    +0.000 C 
BRANCH  20  23
ATOM     23  C   UNL     1       0.002  10.342  20.595  0.00  0.00    +0.000 A 
ATOM     24  C   UNL     1      -0.033   9.103  21.256  0.00  0.00    +0.000 A 
ATOM     25  C   UNL     1      -0.494   9.003  22.571  0.00  0.00    +0.000 A 
ATOM     26  C   UNL     1      -0.883  10.149  23.260  0.00  0.00    +0.000 A 
ATOM     27  C   UNL     1      -0.734  11.398  22.667  0.00  0.00    +0.000 A 
ATOM     28  C   UNL     1      -0.278  11.494  21.353  0.00  0.00    +0.000 A 
ENDBRANCH  20  23
ENDBRANCH  19  20
ENDBRANCH   4  19
TORSDOF 6
ENDMDL
MODEL 6
REMARK VINA RESULT:      -7.4      0.801      3.559
REMARK  Name = 
REMARK  10 active torsions:
REMARK  status: ('A' for Active; 'I' for Inactive)
REMARK    1  A    between atoms: C_1  and  C_2
REMARK    2  A    between atoms: C_2  and  C_3
REMARK    3  A    between atoms: C_2  and  C_4
REMARK    4  A    between atoms: C_8  and  C_9
REMARK    5  A    between atoms: C_9  and  C_10
REMARK    6  A    between atoms: C_9  and  C_11
REMARK    7  A    between atoms: C_12  and  N_13
REMARK    8  A    between atoms: N_16  and  C_17
REMARK    9  A    between atoms: C_17  and  C_18
REMARK   10  A    between atoms: C_18  and  C_19
REMARK                            x       y       z     vdW  Elec       q    Type
REMARK                         _______ _______ _______ _____ _____    ______ ____
ROOT
ATOM      1  N   UNL     1       3.201   6.786  19.457  0.00  0.00    +0.000 N 
ATOM      2  C   UNL     1       2.346   7.375  18.534  0.00  0.00    +0.000 C 
ATOM      3  O   UNL     1       2.002   6.911  17.463  0.00  0.00    +0.000 OA
ATOM      4  N   UNL     1       1.936   8.607  18.989  0.00  0.00    +0.000 N 
ATOM      5  H   UNL     1       3.733   7.470  19.961  0.00  0.00    +0.000 HD
ATOM      6  H   UNL     1       2.071   8.844  19.955  0.00  0.00    +0.000 HD
ENDROOT
BRANCH   1  12
ATOM      7  C   UNL     1       4.959   5.412  18.430  0.00  0.00    +0.000 A 
ATOM      8  C   UNL     1       5.546   4.145  18.231  0.00  0.00    +0.000 A 
ATOM      9  C   UNL     1       5.020   3.007  18.817  0.00  0.00    +0.000 A 
ATOM     10  C   UNL     1       3.886   3.112  19.606  0.00  0.00    +0.000 A 
ATOM     11  C   UNL     1       3.239   4.351  19.841  0.00  0.00    +0.000 A 
ATOM     12  C   UNL     1       3.812   5.523  19.269  0.00  0.00    +0.000 A 
BRANCH   7  14
ATOM     13  C   UNL     1       7.062   6.679  17.790  0.00  0.00    +0.000 C 
ATOM     14  C   UNL     1       5.540   6.582  17.633  0.00  0.00    +0.000 C 
ATOM     15  C   UNL     1       5.158   6.479  16.150  0.00  0.00    +0.000 C 
ENDBRANCH   7  14
BRANCH  11  16
ATOM     16  C   UNL     1       2.041   4.248  20.791  0.00  0.00    +0.000 C 
ATOM     17  C   UNL     1       0.731   4.067  20.018  0.00  0.00    +0.000 C 
ATOM     18  C   UNL     1       2.118   3.271  21.962  0.00  0.00    +0.000 C 
ENDBRANCH  11  16
ENDBRANCH   1  12
BRANCH   4  19
ATOM     19  C   UNL     1       1.124   9.506  18.176  0.00  0.00    +0.000 C 
BRANCH  19  20
ATOM     20  C   UNL     1       0.206  10.337  19.080  0.00  0.00    +0.000 C 
ATOM     21  C   UNL     1       0.448  10.309  20.579  0.00  0.00    +0.000 C 
ATOM     22  C   UNL     1       0.819  11.531  19.795  0.00  0.00    +0.000 C 
BRANCH  20  23
ATOM     23  C   UNL     1      -1.216  10.429  18.536  0.00  0.00    +0.000 A 
ATOM     24  C   UNL     1      -1.542   9.844  17.300  0.00  0.00    +0.000 A 
ATOM     25  C   UNL     1      -2.671  10.252  16.587  0.00  0.00    +0.000 A 
ATOM     26  C   UNL     1      -3.518  11.218  17.122  0.00  0.00    +0.000 A 
ATOM     27  C   UNL     1      -3.284  11.715  18.400  0.00  0.00    +0.000 A 
ATOM     28  C   UNL     1      -2.152  11.309  19.106  0.00  0.00    +0.000 A 
ENDBRANCH  20  23
ENDBRANCH  19  20
ENDBRANCH   4  19
TORSDOF 6
ENDMDL
MODEL 7
REMARK VINA RESULT:      -7.4      1.055      3.547
REMARK  Name = 
REMARK  10 active torsions:
REMARK  status: ('A' for Active; 'I' for Inactive)
REMARK    1  A    between atoms: C_1  and  C_2
REMARK    2  A    between atoms: C_2  and  C_3
REMARK    3  A    between atoms: C_2  and  C_4
REMARK    4  A    between atoms: C_8  and  C_9
REMARK    5  A    between atoms: C_9  and  C_10
REMARK    6  A    between atoms: C_9  and  C_11
REMARK    7  A    between atoms: C_12  and  N_13
REMARK    8  A    between atoms: N_16  and  C_17
REMARK    9  A    between atoms: C_17  and  C_18
REMARK   10  A    between atoms: C_18  and  C_19
REMARK                            x       y       z     vdW  Elec       q    Type
REMARK                         _______ _______ _______ _____ _____    ______ ____
ROOT
ATOM      1  N   UNL     1       2.554   6.732  18.101  0.00  0.00    +0.000 N 
ATOM      2  C   UNL     1       2.205   7.516  19.193  0.00  0.00    +0.000 C 
ATOM      3  O   UNL     1       2.516   7.325  20.354  0.00  0.00    +0.000 OA
ATOM      4  N   UNL     1       1.413   8.566  18.787  0.00  0.00    +0.000 N 
ATOM      5  H   UNL     1       1.840   6.736  17.397  0.00  0.00    +0.000 HD
ATOM      6  H   UNL     1       1.367   8.798  17.812  0.00  0.00    +0.000 HD
ENDROOT
BRANCH   1  12
ATOM      7  C   UNL     1       4.697   5.587  17.745  0.00  0.00    +0.000 A 
ATOM      8  C   UNL     1       5.470   4.409  17.821  0.00  0.00    +0.000 A 
ATOM      9  C   UNL     1       4.936   3.227  18.304  0.00  0.00    +0.000 A 
ATOM     10  C   UNL     1       3.611   3.196  18.710  0.00  0.00    +0.000 A 
ATOM     11  C   UNL     1       2.774   4.339  18.652  0.00  0.00    +0.000 A 
ATOM     12  C   UNL     1       3.344   5.561  18.194  0.00  0.00    +0.000 A 
BRANCH   7  14
ATOM     13  C   UNL     1       6.830   6.925  17.432  0.00  0.00    +0.000 C 
ATOM     14  C   UNL     1       5.343   6.802  17.076  0.00  0.00    +0.000 C 
ATOM     15  C   UNL     1       5.157   6.753  15.553  0.00  0.00    +0.000 C 
ENDBRANCH   7  14
BRANCH  11  16
ATOM     16  C   UNL     1       1.367   4.098  19.207  0.00  0.00    +0.000 C 
ATOM     17  C   UNL     1       0.771   2.795  18.664  0.00  0.00    +0.000 C 
ATOM     18  C   UNL     1       1.145   4.208  20.713  0.00  0.00    +0.000 C 
ENDBRANCH  11  16
ENDBRANCH   1  12
BRANCH   4  19
ATOM     19  C   UNL     1       0.801   9.490  19.735  0.00  0.00    +0.000 C 
BRANCH  19  20
ATOM     20  C   UNL     1       0.574  10.849  19.063  0.00  0.00    +0.000 C 
ATOM     21  C   UNL     1       1.224  12.078  19.675  0.00  0.00    +0.000 C 
ATOM     22  C   UNL     1       1.770  11.513  18.399  0.00  0.00    +0.000 C 
BRANCH  20  23
ATOM     23  C   UNL     1      -0.805  10.954  18.418  0.00  0.00    +0.000 A 
ATOM     24  C   UNL     1      -1.753  11.865  18.915  0.00  0.00    +0.000 A 
ATOM     25  C   UNL     1      -3.113  11.703  18.648  0.00  0.00    +0.000 A 
ATOM     26  C   UNL     1      -3.543  10.655  17.839  0.00  0.00    +0.000 A 
ATOM     27  C   UNL     1      -2.610   9.820  17.233  0.00  0.00    +0.000 A 
ATOM     28  C   UNL     1      -1.252   9.981  17.507  0.00  0.00    +0.000 A 
ENDBRANCH  20  23
ENDBRANCH  19  20
ENDBRANCH   4  19
TORSDOF 6
ENDMDL
MODEL 8
REMARK VINA RESULT:      -7.4      1.243      3.725
REMARK  Name = 
REMARK  10 active torsions:
REMARK  status: ('A' for Active; 'I' for Inactive)
REMARK    1  A    between atoms: C_1  and  C_2
REMARK    2  A    between atoms: C_2  and  C_3
REMARK    3  A    between atoms: C_2  and  C_4
REMARK    4  A    between atoms: C_8  and  C_9
REMARK    5  A    between atoms: C_9  and  C_10
REMARK    6  A    between atoms: C_9  and  C_11
REMARK    7  A    between atoms: C_12  and  N_13
REMARK    8  A    between atoms: N_16  and  C_17
REMARK    9  A    between atoms: C_17  and  C_18
REMARK   10  A    between atoms: C_18  and  C_19
REMARK                            x       y       z     vdW  Elec       q    Type
REMARK                         _______ _______ _______ _____ _____    ______ ____
ROOT
ATOM      1  N   UNL     1       2.323   6.344  18.066  0.00  0.00    +0.000 N 
ATOM      2  C   UNL     1       2.510   7.121  19.202  0.00  0.00    +0.000 C 
ATOM      3  O   UNL     1       3.223   6.858  20.152  0.00  0.00    +0.000 OA
ATOM      4  N   UNL     1       1.742   8.260  19.127  0.00  0.00    +0.000 N 
ATOM      5  H   UNL     1       1.397   6.446  17.694  0.00  0.00    +0.000 HD
ATOM      6  H   UNL     1       1.347   8.530  18.244  0.00  0.00    +0.000 HD
ENDROOT
BRANCH   1  12
ATOM      7  C   UNL     1       4.170   5.040  17.107  0.00  0.00    +0.000 A 
ATOM      8  C   UNL     1       4.781   3.788  16.882  0.00  0.00    +0.000 A 
ATOM      9  C   UNL     1       4.218   2.616  17.354  0.00  0.00    +0.000 A 
ATOM     10  C   UNL     1       3.021   2.670  18.051  0.00  0.00    +0.000 A 
ATOM     11  C   UNL     1       2.348   3.891  18.305  0.00  0.00    +0.000 A 
ATOM     12  C   UNL     1       2.957   5.096  17.853  0.00  0.00    +0.000 A 
BRANCH   7  14
ATOM     13  C   UNL     1       5.832   6.942  17.342  0.00  0.00    +0.000 C 
ATOM     14  C   UNL     1       4.805   6.257  16.432  0.00  0.00    +0.000 C 
ATOM     15  C   UNL     1       5.447   5.869  15.093  0.00  0.00    +0.000 C 
ENDBRANCH   7  14
BRANCH  11  16
ATOM     16  C   UNL     1       1.077   3.727  19.146  0.00  0.00    +0.000 C 
ATOM     17  C   UNL     1       0.439   2.351  18.926  0.00  0.00    +0.000 C 
ATOM     18  C   UNL     1       1.134   4.065  20.634  0.00  0.00    +0.000 C 
ENDBRANCH  11  16
ENDBRANCH   1  12
BRANCH   4  19
ATOM     19  C   UNL     1       1.647   9.208  20.232  0.00  0.00    +0.000 C 
BRANCH  19  20
ATOM     20  C   UNL     1       0.189   9.326  20.692  0.00  0.00    +0.000 C 
ATOM     21  C   UNL     1      -0.499   8.088  21.239  0.00  0.00    +0.000 C 
ATOM     22  C   UNL     1      -0.091   9.181  22.180  0.00  0.00    +0.000 C 
BRANCH  20  23
ATOM     23  C   UNL     1      -0.600  10.339  19.868  0.00  0.00    +0.000 A 
ATOM     24  C   UNL     1      -1.410   9.909  18.803  0.00  0.00    +0.000 A 
ATOM     25  C   UNL     1      -1.796  10.792  17.792  0.00  0.00    +0.000 A 
ATOM     26  C   UNL     1      -1.417  12.130  17.856  0.00  0.00    +0.000 A 
ATOM     27  C   UNL     1      -0.724  12.602  18.966  0.00  0.00    +0.000 A 
ATOM     28  C   UNL     1      -0.336  11.716  19.971  0.00  0.00    +0.000 A 
ENDBRANCH  20  23
ENDBRANCH  19  20
ENDBRANCH   4  19
TORSDOF 6
ENDMDL
MODEL 9
REMARK VINA RESULT:      -7.4      0.981      4.228
REMARK  Name = 
REMARK  10 active torsions:
REMARK  status: ('A' for Active; 'I' for Inactive)
REMARK    1  A    between atoms: C_1  and  C_2
REMARK    2  A    between atoms: C_2  and  C_3
REMARK    3  A    between atoms: C_2  and  C_4
REMARK    4  A    between atoms: C_8  and  C_9
REMARK    5  A    between atoms: C_9  and  C_10
REMARK    6  A    between atoms: C_9  and  C_11
REMARK    7  A    between atoms: C_12  and  N_13
REMARK    8  A    between atoms: N_16  and  C_17
REMARK    9  A    between atoms: C_17  and  C_18
REMARK   10  A    between atoms: C_18  and  C_19
REMARK                            x       y       z     vdW  Elec       q    Type
REMARK                         _______ _______ _______ _____ _____    ______ ____
ROOT
ATOM      1  N   UNL     1       2.929   6.736  19.023  0.00  0.00    +0.000 N 
ATOM      2  C   UNL     1       2.311   7.720  18.261  0.00  0.00    +0.000 C 
ATOM      3  O   UNL     1       2.050   7.662  17.074  0.00  0.00    +0.000 OA
ATOM      4  N   UNL     1       2.038   8.819  19.041  0.00  0.00    +0.000 N 
ATOM      5  H   UNL     1       3.486   7.130  19.758  0.00  0.00    +0.000 HD
ATOM      6  H   UNL     1       2.074   8.734  20.040  0.00  0.00    +0.000 HD
ENDROOT
BRANCH   1  12
ATOM      7  C   UNL     1       4.479   5.442  17.624  0.00  0.00    +0.000 A 
ATOM      8  C   UNL     1       4.883   4.199  17.093  0.00  0.00    +0.000 A 
ATOM      9  C   UNL     1       4.202   3.032  17.391  0.00  0.00    +0.000 A 
ATOM     10  C   UNL     1       3.091   3.087  18.219  0.00  0.00    +0.000 A 
ATOM     11  C   UNL     1       2.624   4.302  18.780  0.00  0.00    +0.000 A 
ATOM     12  C   UNL     1       3.357   5.491  18.502  0.00  0.00    +0.000 A 
BRANCH   7  14
ATOM     13  C   UNL     1       6.681   6.702  17.594  0.00  0.00    +0.000 C 
ATOM     14  C   UNL     1       5.220   6.685  17.129  0.00  0.00    +0.000 C 
ATOM     15  C   UNL     1       5.141   6.798  15.600  0.00  0.00    +0.000 C 
ENDBRANCH   7  14
BRANCH  11  16
ATOM     16  C   UNL     1       1.422   4.124  19.714  0.00  0.00    +0.000 C 
ATOM     17  C   UNL     1       0.540   2.954  19.267  0.00  0.00    +0.000 C 
ATOM     18  C   UNL     1       1.666   4.075  21.220  0.00  0.00    +0.000 C 
ENDBRANCH  11  16
ENDBRANCH   1  12
BRANCH   4  19
ATOM     19  C   UNL     1       1.494  10.053  18.484  0.00  0.00    +0.000 C 
BRANCH  19  20
ATOM     20  C   UNL     1       0.085  10.295  19.034  0.00  0.00    +0.000 C 
ATOM     21  C   UNL     1      -0.840  11.229  18.272  0.00  0.00    +0.000 C 
ATOM     22  C   UNL     1      -1.086   9.751  18.231  0.00  0.00    +0.000 C 
BRANCH  20  23
ATOM     23  C   UNL     1       0.042  10.252  20.559  0.00  0.00    +0.000 A 
ATOM     24  C   UNL     1       0.002   9.020  21.233  0.00  0.00    +0.000 A 
ATOM     25  C   UNL     1      -0.453   8.935  22.550  0.00  0.00    +0.000 A 
ATOM     26  C   UNL     1      -0.830  10.090  23.230  0.00  0.00    +0.000 A 
ATOM     27  C   UNL     1      -0.676  11.333  22.624  0.00  0.00    +0.000 A 
ATOM     28  C   UNL     1      -0.227  11.413  21.306  0.00  0.00    +0.000 A 
ENDBRANCH  20  23
ENDBRANCH  19  20
ENDBRANCH   4  19
TORSDOF 6
ENDMDL
