MODEL 1
REMARK VINA RESULT:      -8.1      0.000      0.000
REMARK  Name = 
REMARK  5 active torsions:
REMARK  status: ('A' for Active; 'I' for Inactive)
REMARK    1  A    between atoms: C_2  and  C_21
REMARK    2  A    between atoms: N_7  and  C_8
REMARK    3  A    between atoms: C_12  and  O_13
REMARK    4  A    between atoms: C_14  and  C_15
REMARK    5  A    between atoms: C_15  and  O_16
REMARK                            x       y       z     vdW  Elec       q    Type
REMARK                         _______ _______ _______ _____ _____    ______ ____
ROOT
ATOM      1  O   UNL     1      -0.018  10.034  17.782  0.00  0.00    +0.000 OA
ATOM      2  C   UNL     1      -0.010  10.092  19.008  0.00  0.00    +0.000 C 
ATOM      3  N   UNL     1       0.716   9.240  19.833  0.00  0.00    +0.000 N 
ATOM      4  C   UNL     1       1.650   8.312  19.402  0.00  0.00    +0.000 A 
ATOM      5  C   UNL     1       2.314   8.581  18.118  0.00  0.00    +0.000 A 
ATOM      6  C   UNL     1       3.214   7.681  17.740  0.00  0.00    +0.000 A 
ATOM      7  N   UNL     1       3.474   6.560  18.496  0.00  0.00    +0.000 N 
ATOM      8  C   UNL     1       2.795   6.335  19.707  0.00  0.00    +0.000 A 
ATOM      9  O   UNL     1       2.977   5.308  20.352  0.00  0.00    +0.000 OA
ATOM     10  N   UNL     1       1.903   7.301  20.157  0.00  0.00    +0.000 NA
ATOM     11  H   UNL     1       0.398   9.113  20.782  0.00  0.00    +0.000 HD
ENDROOT
BRANCH   7  12
ATOM     12  C   UNL     1       4.457   5.586  18.021  0.00  0.00    +0.000 C 
ATOM     13  C   UNL     1       4.529   5.501  16.489  0.00  0.00    +0.000 C 
ATOM     14  C   UNL     1       5.610   4.510  16.093  0.00  0.00    +0.000 C 
ATOM     15  F   UNL     1       5.729   4.504  14.739  0.00  0.00    +0.000 F 
ATOM     16  C   UNL     1       6.955   4.862  16.735  0.00  0.00    +0.000 C 
ATOM     17  C   UNL     1       6.759   4.957  18.254  0.00  0.00    +0.000 C 
ATOM     18  O   UNL     1       5.756   5.967  18.537  0.00  0.00    +0.000 OA
BRANCH  16  19
ATOM     19  O   UNL     1       7.450   6.115  16.233  0.00  0.00    +0.000 OA
ATOM     20  H   UNL     1       7.949   5.940  15.414  0.00  0.00    +0.000 HD
ENDBRANCH  16  19
BRANCH  17  21
ATOM     21  C   UNL     1       8.074   5.332  18.950  0.00  0.00    +0.000 C 
BRANCH  21  22
ATOM     22  O   UNL     1       7.876   5.443  20.357  0.00  0.00    +0.000 OA
ATOM     23  H   UNL     1       7.510   6.334  20.511  0.00  0.00    +0.000 HD
ENDBRANCH  21  22
ENDBRANCH  17  21
ENDBRANCH   7  12
BRANCH   2  24
ATOM     24  C   UNL     1      -0.907  11.100  19.624  0.00  0.00    +0.000 A 
ATOM     25  C   UNL     1      -0.621  11.454  20.954  0.00  0.00    +0.000 A 
ATOM     26  C   UNL     1      -1.496  12.257  21.679  0.00  0.00    +0.000 A 
ATOM     27  C   UNL     1      -2.669  12.707  21.083  0.00  0.00    +0.000 A 
ATOM     28  C   UNL     1      -2.958  12.365  19.757  0.00  0.00    +0.000 A 
ATOM     29  C   UNL     1      -2.078  11.561  19.019  0.00  0.00    +0.000 A 
ENDBRANCH   2  24
TORSDOF 5
ENDMDL
MODEL 2
REMARK VINA RESULT:      -8.0      2.134      3.073
REMARK  Name = 
REMARK  5 active torsions:
REMARK  status: ('A' for Active; 'I' for Inactive)
REMARK    1  A    between atoms: C_2  and  C_21
REMARK    2  A    between atoms: N_7  and  C_8
REMARK    3  A    between atoms: C_12  and  O_13
REMARK    4  A    between atoms: C_14  and  C_15
REMARK    5  A    between atoms: C_15  and  O_16
REMARK                            x       y       z     vdW  Elec       q    Type
REMARK                         _______ _______ _______ _____ _____    ______ ____
ROOT
ATOM      1  O   UNL     1       0.841  10.042  22.894  0.00  0.00    +0.000 OA
ATOM      2  C   UNL     1       0.146  10.601  22.050  0.00  0.00    +0.000 C 
ATOM      3  N   UNL     1       0.205  10.344  20.685  0.00  0.00    +0.000 N 
ATOM      4  C   UNL     1       0.930   9.323  20.092  0.00  0.00    +0.000 A 
ATOM      5  C   UNL     1       1.210   8.138  20.918  0.00  0.00    +0.000 A 
ATOM      6  C   UNL     1       1.892   7.171  20.317  0.00  0.00    +0.000 A 
ATOM      7  N   UNL     1       2.330   7.297  19.019  0.00  0.00    +0.000 N 
ATOM      8  C   UNL     1       2.057   8.461  18.276  0.00  0.00    +0.000 A 
ATOM      9  O   UNL     1       2.498   8.605  17.140  0.00  0.00    +0.000 OA
ATOM     10  N   UNL     1       1.280   9.454  18.861  0.00  0.00    +0.000 NA
ATOM     11  H   UNL     1      -0.106  11.065  20.052  0.00  0.00    +0.000 HD
ENDROOT
BRANCH   7  12
ATOM     12  C   UNL     1       3.102   6.212  18.411  0.00  0.00    +0.000 C 
ATOM     13  C   UNL     1       4.475   6.667  17.896  0.00  0.00    +0.000 C 
ATOM     14  C   UNL     1       5.222   5.469  17.337  0.00  0.00    +0.000 C 
ATOM     15  F   UNL     1       6.469   5.859  16.963  0.00  0.00    +0.000 F 
ATOM     16  C   UNL     1       5.315   4.337  18.365  0.00  0.00    +0.000 C 
ATOM     17  C   UNL     1       3.896   3.991  18.836  0.00  0.00    +0.000 C 
ATOM     18  O   UNL     1       3.287   5.178  19.408  0.00  0.00    +0.000 OA
BRANCH  16  19
ATOM     19  O   UNL     1       6.115   4.733  19.492  0.00  0.00    +0.000 OA
ATOM     20  H   UNL     1       6.194   5.704  19.484  0.00  0.00    +0.000 HD
ENDBRANCH  16  19
BRANCH  17  21
ATOM     21  C   UNL     1       3.930   2.875  19.889  0.00  0.00    +0.000 C 
BRANCH  21  22
ATOM     22  O   UNL     1       5.102   2.079  19.733  0.00  0.00    +0.000 OA
ATOM     23  H   UNL     1       4.859   1.179  20.018  0.00  0.00    +0.000 HD
ENDBRANCH  21  22
ENDBRANCH  17  21
ENDBRANCH   7  12
BRANCH   2  24
ATOM     24  C   UNL     1      -0.750  11.675  22.543  0.00  0.00    +0.000 A 
ATOM     25  C   UNL     1      -1.918  11.254  23.202  0.00  0.00    +0.000 A 
ATOM     26  C   UNL     1      -2.907  12.169  23.550  0.00  0.00    +0.000 A 
ATOM     27  C   UNL     1      -2.738  13.514  23.237  0.00  0.00    +0.000 A 
ATOM     28  C   UNL     1      -1.575  13.942  22.589  0.00  0.00    +0.000 A 
ATOM     29  C   UNL     1      -0.573  13.027  22.240  0.00  0.00    +0.000 A 
ENDBRANCH   2  24
TORSDOF 5
ENDMDL
MODEL 3
REMARK VINA RESULT:      -7.9      2.335      3.276
REMARK  Name = 
REMARK  5 active torsions:
REMARK  status: ('A' for Active; 'I' for Inactive)
REMARK    1  A    between atoms: C_2  and  C_21
REMARK    2  A    between atoms: N_7  and  C_8
REMARK    3  A    between atoms: C_12  and  O_13
REMARK    4  A    between atoms: C_14  and  C_15
REMARK    5  A    between atoms: C_15  and  O_16
REMARK                            x       y       z     vdW  Elec       q    Type
REMARK                         _______ _______ _______ _____ _____    ______ ____
ROOT
ATOM      1  O   UNL     1       1.227   9.610  22.549  0.00  0.00    +0.000 OA
ATOM      2  C   UNL     1       0.567  10.212  21.708  0.00  0.00    +0.000 C 
ATOM      3  N   UNL     1       0.642   9.988  20.338  0.00  0.00    +0.000 N 
ATOM      4  C   UNL     1       1.344   8.958  19.732  0.00  0.00    +0.000 A 
ATOM      5  C   UNL     1       1.571   7.745  20.533  0.00  0.00    +0.000 A 
ATOM      6  C   UNL     1       2.233   6.771  19.919  0.00  0.00    +0.000 A 
ATOM      7  N   UNL     1       2.698   6.915  18.632  0.00  0.00    +0.000 N 
ATOM      8  C   UNL     1       2.476   8.105  17.915  0.00  0.00    +0.000 A 
ATOM      9  O   UNL     1       2.942   8.263  16.791  0.00  0.00    +0.000 OA
ATOM     10  N   UNL     1       1.722   9.108  18.511  0.00  0.00    +0.000 NA
ATOM     11  H   UNL     1       0.366  10.734  19.718  0.00  0.00    +0.000 HD
ENDROOT
BRANCH   7  12
ATOM     12  C   UNL     1       3.446   5.821  18.011  0.00  0.00    +0.000 C 
ATOM     13  C   UNL     1       4.954   5.884  18.299  0.00  0.00    +0.000 C 
ATOM     14  C   UNL     1       5.635   4.684  17.665  0.00  0.00    +0.000 C 
ATOM     15  F   UNL     1       6.952   4.696  17.996  0.00  0.00    +0.000 F 
ATOM     16  C   UNL     1       4.993   3.369  18.121  0.00  0.00    +0.000 C 
ATOM     17  C   UNL     1       3.490   3.432  17.820  0.00  0.00    +0.000 C 
ATOM     18  O   UNL     1       2.918   4.571  18.516  0.00  0.00    +0.000 OA
BRANCH  16  19
ATOM     19  O   UNL     1       5.196   3.163  19.529  0.00  0.00    +0.000 OA
ATOM     20  H   UNL     1       5.719   3.909  19.876  0.00  0.00    +0.000 HD
ENDBRANCH  16  19
BRANCH  17  21
ATOM     21  C   UNL     1       2.789   2.146  18.280  0.00  0.00    +0.000 C 
BRANCH  21  22
ATOM     22  O   UNL     1       3.707   1.056  18.290  0.00  0.00    +0.000 OA
ATOM     23  H   UNL     1       4.049   0.997  19.201  0.00  0.00    +0.000 HD
ENDBRANCH  21  22
ENDBRANCH  17  21
ENDBRANCH   7  12
BRANCH   2  24
ATOM     24  C   UNL     1      -0.304  11.303  22.212  0.00  0.00    +0.000 A 
ATOM     25  C   UNL     1      -1.362  10.912  23.051  0.00  0.00    +0.000 A 
ATOM     26  C   UNL     1      -2.335  11.828  23.439  0.00  0.00    +0.000 A 
ATOM     27  C   UNL     1      -2.262  13.141  22.986  0.00  0.00    +0.000 A 
ATOM     28  C   UNL     1      -1.207  13.539  22.157  0.00  0.00    +0.000 A 
ATOM     29  C   UNL     1      -0.221  12.623  21.767  0.00  0.00    +0.000 A 
ENDBRANCH   2  24
TORSDOF 5
ENDMDL
MODEL 4
REMARK VINA RESULT:      -7.9      2.688      3.794
REMARK  Name = 
REMARK  5 active torsions:
REMARK  status: ('A' for Active; 'I' for Inactive)
REMARK    1  A    between atoms: C_2  and  C_21
REMARK    2  A    between atoms: N_7  and  C_8
REMARK    3  A    between atoms: C_12  and  O_13
REMARK    4  A    between atoms: C_14  and  C_15
REMARK    5  A    between atoms: C_15  and  O_16
REMARK                            x       y       z     vdW  Elec       q    Type
REMARK                         _______ _______ _______ _____ _____    ______ ____
ROOT
ATOM      1  O   UNL     1       0.595  10.187  22.948  0.00  0.00    +0.000 OA
ATOM      2  C   UNL     1      -0.063  10.740  22.072  0.00  0.00    +0.000 C 
ATOM      3  N   UNL     1       0.042  10.463  20.714  0.00  0.00    +0.000 N 
ATOM      4  C   UNL     1       0.778   9.428  20.162  0.00  0.00    +0.000 A 
ATOM      5  C   UNL     1       1.017   8.252  21.014  0.00  0.00    +0.000 A 
ATOM      6  C   UNL     1       1.712   7.271  20.451  0.00  0.00    +0.000 A 
ATOM      7  N   UNL     1       2.197   7.375  19.168  0.00  0.00    +0.000 N 
ATOM      8  C   UNL     1       1.961   8.530  18.400  0.00  0.00    +0.000 A 
ATOM      9  O   UNL     1       2.444   8.653  17.279  0.00  0.00    +0.000 OA
ATOM     10  N   UNL     1       1.174   9.538  18.942  0.00  0.00    +0.000 NA
ATOM     11  H   UNL     1      -0.240  11.178  20.060  0.00  0.00    +0.000 HD
ENDROOT
BRANCH   7  12
ATOM     12  C   UNL     1       2.980   6.275  18.604  0.00  0.00    +0.000 C 
ATOM     13  C   UNL     1       4.325   6.066  19.317  0.00  0.00    +0.000 C 
ATOM     14  C   UNL     1       5.038   4.874  18.702  0.00  0.00    +0.000 C 
ATOM     15  F   UNL     1       6.184   4.640  19.393  0.00  0.00    +0.000 F 
ATOM     16  C   UNL     1       4.154   3.623  18.718  0.00  0.00    +0.000 C 
ATOM     17  C   UNL     1       2.830   3.955  18.016  0.00  0.00    +0.000 C 
ATOM     18  O   UNL     1       2.195   5.062  18.708  0.00  0.00    +0.000 OA
BRANCH  16  19
ATOM     19  O   UNL     1       3.892   3.198  20.065  0.00  0.00    +0.000 OA
ATOM     20  H   UNL     1       3.821   3.991  20.628  0.00  0.00    +0.000 HD
ENDBRANCH  16  19
BRANCH  17  21
ATOM     21  C   UNL     1       1.892   2.741  18.023  0.00  0.00    +0.000 C 
BRANCH  21  22
ATOM     22  O   UNL     1       2.644   1.531  18.074  0.00  0.00    +0.000 OA
ATOM     23  H   UNL     1       2.005   0.808  17.932  0.00  0.00    +0.000 HD
ENDBRANCH  21  22
ENDBRANCH  17  21
ENDBRANCH   7  12
BRANCH   2  24
ATOM     24  C   UNL     1      -0.967  11.829  22.518  0.00  0.00    +0.000 A 
ATOM     25  C   UNL     1      -0.468  13.138  22.395  0.00  0.00    +0.000 A 
ATOM     26  C   UNL     1      -1.159  14.215  22.940  0.00  0.00    +0.000 A 
ATOM     27  C   UNL     1      -2.354  13.993  23.617  0.00  0.00    +0.000 A 
ATOM     28  C   UNL     1      -2.861  12.694  23.737  0.00  0.00    +0.000 A 
ATOM     29  C   UNL     1      -2.172  11.605  23.187  0.00  0.00    +0.000 A 
ENDBRANCH   2  24
TORSDOF 5
ENDMDL
MODEL 5
REMARK VINA RESULT:      -7.6      3.490      8.927
REMARK  Name = 
REMARK  5 active torsions:
REMARK  status: ('A' for Active; 'I' for Inactive)
REMARK    1  A    between atoms: C_2  and  C_21
REMARK    2  A    between atoms: N_7  and  C_8
REMARK    3  A    between atoms: C_12  and  O_13
REMARK    4  A    between atoms: C_14  and  C_15
REMARK    5  A    between atoms: C_15  and  O_16
REMARK                            x       y       z     vdW  Elec       q    Type
REMARK                         _______ _______ _______ _____ _____    ______ ____
ROOT
ATOM      1  O   UNL     1       3.546   6.633  17.909  0.00  0.00    +0.000 OA
ATOM      2  C   UNL     1       2.986   5.910  18.729  0.00  0.00    +0.000 C 
ATOM      3  N   UNL     1       2.197   6.371  19.777  0.00  0.00    +0.000 N 
ATOM      4  C   UNL     1       1.799   7.685  19.963  0.00  0.00    +0.000 A 
ATOM      5  C   UNL     1       1.725   8.535  18.764  0.00  0.00    +0.000 A 
ATOM      6  C   UNL     1       1.326   9.784  18.973  0.00  0.00    +0.000 A 
ATOM      7  N   UNL     1       1.036  10.246  20.236  0.00  0.00    +0.000 N 
ATOM      8  C   UNL     1       1.144   9.401  21.356  0.00  0.00    +0.000 A 
ATOM      9  O   UNL     1       0.948   9.825  22.490  0.00  0.00    +0.000 OA
ATOM     10  N   UNL     1       1.489   8.070  21.151  0.00  0.00    +0.000 NA
ATOM     11  H   UNL     1       2.085   5.776  20.584  0.00  0.00    +0.000 HD
ENDROOT
BRANCH   7  12
ATOM     12  C   UNL     1       0.625  11.639  20.415  0.00  0.00    +0.000 C 
ATOM     13  C   UNL     1       1.416  12.617  19.532  0.00  0.00    +0.000 C 
ATOM     14  C   UNL     1       0.884  14.024  19.744  0.00  0.00    +0.000 C 
ATOM     15  F   UNL     1       1.526  14.872  18.897  0.00  0.00    +0.000 F 
ATOM     16  C   UNL     1      -0.628  14.094  19.506  0.00  0.00    +0.000 C 
ATOM     17  C   UNL     1      -1.309  13.056  20.408  0.00  0.00    +0.000 C 
ATOM     18  O   UNL     1      -0.783  11.740  20.092  0.00  0.00    +0.000 OA
BRANCH  16  19
ATOM     19  O   UNL     1      -0.943  13.821  18.131  0.00  0.00    +0.000 OA
ATOM     20  H   UNL     1      -1.710  13.219  18.107  0.00  0.00    +0.000 HD
ENDBRANCH  16  19
BRANCH  17  21
ATOM     21  C   UNL     1      -2.829  13.064  20.194  0.00  0.00    +0.000 C 
BRANCH  21  22
ATOM     22  O   UNL     1      -3.169  12.338  19.015  0.00  0.00    +0.000 OA
ATOM     23  H   UNL     1      -3.963  12.769  18.650  0.00  0.00    +0.000 HD
ENDBRANCH  21  22
ENDBRANCH  17  21
ENDBRANCH   7  12
BRANCH   2  24
ATOM     24  C   UNL     1       3.251   4.456  18.612  0.00  0.00    +0.000 A 
ATOM     25  C   UNL     1       2.486   3.761  17.660  0.00  0.00    +0.000 A 
ATOM     26  C   UNL     1       2.532   2.372  17.589  0.00  0.00    +0.000 A 
ATOM     27  C   UNL     1       3.340   1.665  18.474  0.00  0.00    +0.000 A 
ATOM     28  C   UNL     1       4.110   2.350  19.420  0.00  0.00    +0.000 A 
ATOM     29  C   UNL     1       4.072   3.749  19.494  0.00  0.00    +0.000 A 
ENDBRANCH   2  24
TORSDOF 5
ENDMDL
MODEL 6
REMARK VINA RESULT:      -7.5      3.772      9.355
REMARK  Name = 
REMARK  5 active torsions:
REMARK  status: ('A' for Active; 'I' for Inactive)
REMARK    1  A    between atoms: C_2  and  C_21
REMARK    2  A    between atoms: N_7  and  C_8
REMARK    3  A    between atoms: C_12  and  O_13
REMARK    4  A    between atoms: C_14  and  C_15
REMARK    5  A    between atoms: C_15  and  O_16
REMARK                            x       y       z     vdW  Elec       q    Type
REMARK                         _______ _______ _______ _____ _____    ______ ____
ROOT
ATOM      1  O   UNL     1       3.066   7.836  18.200  0.00  0.00    +0.000 OA
ATOM      2  C   UNL     1       2.748   6.935  18.971  0.00  0.00    +0.000 C 
ATOM      3  N   UNL     1       2.016   7.119  20.138  0.00  0.00    +0.000 N 
ATOM      4  C   UNL     1       1.406   8.301  20.524  0.00  0.00    +0.000 A 
ATOM      5  C   UNL     1       1.037   9.241  19.454  0.00  0.00    +0.000 A 
ATOM      6  C   UNL     1       0.441  10.358  19.855  0.00  0.00    +0.000 A 
ATOM      7  N   UNL     1       0.220  10.618  21.188  0.00  0.00    +0.000 N 
ATOM      8  C   UNL     1       0.613   9.698  22.177  0.00  0.00    +0.000 A 
ATOM      9  O   UNL     1       0.475   9.953  23.369  0.00  0.00    +0.000 OA
ATOM     10  N   UNL     1       1.170   8.490  21.775  0.00  0.00    +0.000 NA
ATOM     11  H   UNL     1       2.110   6.431  20.871  0.00  0.00    +0.000 HD
ENDROOT
BRANCH   7  12
ATOM     12  C   UNL     1      -0.417  11.877  21.578  0.00  0.00    +0.000 C 
ATOM     13  C   UNL     1       0.464  13.106  21.307  0.00  0.00    +0.000 C 
ATOM     14  C   UNL     1      -0.298  14.363  21.690  0.00  0.00    +0.000 C 
ATOM     15  F   UNL     1       0.450  15.450  21.366  0.00  0.00    +0.000 F 
ATOM     16  C   UNL     1      -1.655  14.432  20.981  0.00  0.00    +0.000 C 
ATOM     17  C   UNL     1      -2.431  13.145  21.290  0.00  0.00    +0.000 C 
ATOM     18  O   UNL     1      -1.653  12.006  20.836  0.00  0.00    +0.000 OA
BRANCH  16  19
ATOM     19  O   UNL     1      -1.485  14.564  19.561  0.00  0.00    +0.000 OA
ATOM     20  H   UNL     1      -1.155  15.462  19.374  0.00  0.00    +0.000 HD
ENDBRANCH  16  19
BRANCH  17  21
ATOM     21  C   UNL     1      -3.794  13.148  20.585  0.00  0.00    +0.000 C 
BRANCH  21  22
ATOM     22  O   UNL     1      -3.656  12.706  19.237  0.00  0.00    +0.000 OA
ATOM     23  H   UNL     1      -3.538  13.511  18.698  0.00  0.00    +0.000 HD
ENDBRANCH  21  22
ENDBRANCH  17  21
ENDBRANCH   7  12
BRANCH   2  24
ATOM     24  C   UNL     1       3.262   5.581  18.648  0.00  0.00    +0.000 A 
ATOM     25  C   UNL     1       2.434   4.780  17.842  0.00  0.00    +0.000 A 
ATOM     26  C   UNL     1       2.739   3.440  17.623  0.00  0.00    +0.000 A 
ATOM     27  C   UNL     1       3.872   2.888  18.212  0.00  0.00    +0.000 A 
ATOM     28  C   UNL     1       4.705   3.682  19.009  0.00  0.00    +0.000 A 
ATOM     29  C   UNL     1       4.406   5.033  19.230  0.00  0.00    +0.000 A 
ENDBRANCH   2  24
TORSDOF 5
ENDMDL
MODEL 7
REMARK VINA RESULT:      -7.5      4.335      9.967
REMARK  Name = 
REMARK  5 active torsions:
REMARK  status: ('A' for Active; 'I' for Inactive)
REMARK    1  A    between atoms: C_2  and  C_21
REMARK    2  A    between atoms: N_7  and  C_8
REMARK    3  A    between atoms: C_12  and  O_13
REMARK    4  A    between atoms: C_14  and  C_15
REMARK    5  A    between atoms: C_15  and  O_16
REMARK                            x       y       z     vdW  Elec       q    Type
REMARK                         _______ _______ _______ _____ _____    ______ ____
ROOT
ATOM      1  O   UNL     1       1.843   9.187  17.532  0.00  0.00    +0.000 OA
ATOM      2  C   UNL     1       2.019   8.350  18.413  0.00  0.00    +0.000 C 
ATOM      3  N   UNL     1       1.544   8.464  19.714  0.00  0.00    +0.000 N 
ATOM      4  C   UNL     1       0.680   9.446  20.169  0.00  0.00    +0.000 A 
ATOM      5  C   UNL     1      -0.206  10.069  19.173  0.00  0.00    +0.000 A 
ATOM      6  C   UNL     1      -1.032  10.995  19.642  0.00  0.00    +0.000 A 
ATOM      7  N   UNL     1      -1.026  11.361  20.969  0.00  0.00    +0.000 N 
ATOM      8  C   UNL     1      -0.144  10.753  21.880  0.00  0.00    +0.000 A 
ATOM      9  O   UNL     1      -0.091  11.119  23.050  0.00  0.00    +0.000 OA
ATOM     10  N   UNL     1       0.678   9.729  21.425  0.00  0.00    +0.000 NA
ATOM     11  H   UNL     1       2.020   7.949  20.440  0.00  0.00    +0.000 HD
ENDROOT
BRANCH   7  12
ATOM     12  C   UNL     1      -1.940  12.407  21.430  0.00  0.00    +0.000 C 
ATOM     13  C   UNL     1      -2.942  12.849  20.353  0.00  0.00    +0.000 C 
ATOM     14  C   UNL     1      -3.880  13.891  20.937  0.00  0.00    +0.000 C 
ATOM     15  F   UNL     1      -4.818  14.213  20.009  0.00  0.00    +0.000 F 
ATOM     16  C   UNL     1      -4.560  13.380  22.212  0.00  0.00    +0.000 C 
ATOM     17  C   UNL     1      -3.471  12.935  23.198  0.00  0.00    +0.000 C 
ATOM     18  O   UNL     1      -2.667  11.899  22.575  0.00  0.00    +0.000 OA
BRANCH  16  19
ATOM     19  O   UNL     1      -5.429  12.274  21.921  0.00  0.00    +0.000 OA
ATOM     20  H   UNL     1      -5.094  11.823  21.125  0.00  0.00    +0.000 HD
ENDBRANCH  16  19
BRANCH  17  21
ATOM     21  C   UNL     1      -4.097  12.389  24.489  0.00  0.00    +0.000 C 
BRANCH  21  22
ATOM     22  O   UNL     1      -5.402  12.932  24.676  0.00  0.00    +0.000 OA
ATOM     23  H   UNL     1      -5.324  13.890  24.507  0.00  0.00    +0.000 HD
ENDBRANCH  21  22
ENDBRANCH  17  21
ENDBRANCH   7  12
BRANCH   2  24
ATOM     24  C   UNL     1       2.866   7.187  18.053  0.00  0.00    +0.000 A 
ATOM     25  C   UNL     1       4.038   7.473  17.332  0.00  0.00    +0.000 A 
ATOM     26  C   UNL     1       4.812   6.447  16.798  0.00  0.00    +0.000 A 
ATOM     27  C   UNL     1       4.417   5.125  16.977  0.00  0.00    +0.000 A 
ATOM     28  C   UNL     1       3.255   4.832  17.700  0.00  0.00    +0.000 A 
ATOM     29  C   UNL     1       2.474   5.860  18.244  0.00  0.00    +0.000 A 
ENDBRANCH   2  24
TORSDOF 5
ENDMDL
MODEL 8
REMARK VINA RESULT:      -7.5      3.882      9.536
REMARK  Name = 
REMARK  5 active torsions:
REMARK  status: ('A' for Active; 'I' for Inactive)
REMARK    1  A    between atoms: C_2  and  C_21
REMARK    2  A    between atoms: N_7  and  C_8
REMARK    3  A    between atoms: C_12  and  O_13
REMARK    4  A    between atoms: C_14  and  C_15
REMARK    5  A    between atoms: C_15  and  O_16
REMARK                            x       y       z     vdW  Elec       q    Type
REMARK                         _______ _______ _______ _____ _____    ______ ____
ROOT
ATOM      1  O   UNL     1       2.668   8.646  17.806  0.00  0.00    +0.000 OA
ATOM      2  C   UNL     1       2.569   7.654  18.523  0.00  0.00    +0.000 C 
ATOM      3  N   UNL     1       1.953   7.640  19.769  0.00  0.00    +0.000 N 
ATOM      4  C   UNL     1       1.228   8.686  20.316  0.00  0.00    +0.000 A 
ATOM      5  C   UNL     1       0.612   9.634  19.375  0.00  0.00    +0.000 A 
ATOM      6  C   UNL     1      -0.088  10.616  19.929  0.00  0.00    +0.000 A 
ATOM      7  N   UNL     1      -0.194  10.743  21.296  0.00  0.00    +0.000 N 
ATOM      8  C   UNL     1       0.433   9.824  22.156  0.00  0.00    +0.000 A 
ATOM      9  O   UNL     1       0.394   9.968  23.373  0.00  0.00    +0.000 OA
ATOM     10  N   UNL     1       1.109   8.746  21.596  0.00  0.00    +0.000 NA
ATOM     11  H   UNL     1       2.225   6.924  20.426  0.00  0.00    +0.000 HD
ENDROOT
BRANCH   7  12
ATOM     12  C   UNL     1      -0.957  11.860  21.856  0.00  0.00    +0.000 C 
ATOM     13  C   UNL     1      -0.159  13.172  21.898  0.00  0.00    +0.000 C 
ATOM     14  C   UNL     1      -1.045  14.280  22.440  0.00  0.00    +0.000 C 
ATOM     15  F   UNL     1      -0.365  15.455  22.392  0.00  0.00    +0.000 F 
ATOM     16  C   UNL     1      -2.347  14.398  21.640  0.00  0.00    +0.000 C 
ATOM     17  C   UNL     1      -3.039  13.028  21.634  0.00  0.00    +0.000 C 
ATOM     18  O   UNL     1      -2.141  12.050  21.045  0.00  0.00    +0.000 OA
BRANCH  16  19
ATOM     19  O   UNL     1      -2.083  14.811  20.290  0.00  0.00    +0.000 OA
ATOM     20  H   UNL     1      -2.806  15.399  20.003  0.00  0.00    +0.000 HD
ENDBRANCH  16  19
BRANCH  17  21
ATOM     21  C   UNL     1      -4.341  13.080  20.825  0.00  0.00    +0.000 C 
BRANCH  21  22
ATOM     22  O   UNL     1      -4.083  12.806  19.450  0.00  0.00    +0.000 OA
ATOM     23  H   UNL     1      -4.811  13.219  18.949  0.00  0.00    +0.000 HD
ENDBRANCH  21  22
ENDBRANCH  17  21
ENDBRANCH   7  12
BRANCH   2  24
ATOM     24  C   UNL     1       3.232   6.420  18.033  0.00  0.00    +0.000 A 
ATOM     25  C   UNL     1       4.420   6.603  17.304  0.00  0.00    +0.000 A 
ATOM     26  C   UNL     1       5.026   5.532  16.654  0.00  0.00    +0.000 A 
ATOM     27  C   UNL     1       4.447   4.269  16.724  0.00  0.00    +0.000 A 
ATOM     28  C   UNL     1       3.269   4.078  17.454  0.00  0.00    +0.000 A 
ATOM     29  C   UNL     1       2.655   5.152  18.114  0.00  0.00    +0.000 A 
ENDBRANCH   2  24
TORSDOF 5
ENDMDL
MODEL 9
REMARK VINA RESULT:      -7.4      4.210      9.769
REMARK  Name = 
REMARK  5 active torsions:
REMARK  status: ('A' for Active; 'I' for Inactive)
REMARK    1  A    between atoms: C_2  and  C_21
REMARK    2  A    between atoms: N_7  and  C_8
REMARK    3  A    between atoms: C_12  and  O_13
REMARK    4  A    between atoms: C_14  and  C_15
REMARK    5  A    between atoms: C_15  and  O_16
REMARK                            x       y       z     vdW  Elec       q    Type
REMARK                         _______ _______ _______ _____ _____    ______ ____
ROOT
ATOM      1  O   UNL     1       2.284   9.156  17.971  0.00  0.00    +0.000 OA
ATOM      2  C   UNL     1       2.271   8.093  18.584  0.00  0.00    +0.000 C 
ATOM      3  N   UNL     1       1.733   7.922  19.855  0.00  0.00    +0.000 N 
ATOM      4  C   UNL     1       0.999   8.870  20.548  0.00  0.00    +0.000 A 
ATOM      5  C   UNL     1       0.287   9.879  19.748  0.00  0.00    +0.000 A 
ATOM      6  C   UNL     1      -0.418  10.764  20.441  0.00  0.00    +0.000 A 
ATOM      7  N   UNL     1      -0.446  10.746  21.817  0.00  0.00    +0.000 N 
ATOM      8  C   UNL     1       0.270   9.774  22.539  0.00  0.00    +0.000 A 
ATOM      9  O   UNL     1       0.299   9.791  23.765  0.00  0.00    +0.000 OA
ATOM     10  N   UNL     1       0.955   8.793  21.832  0.00  0.00    +0.000 NA
ATOM     11  H   UNL     1       2.074   7.156  20.416  0.00  0.00    +0.000 HD
ENDROOT
BRANCH   7  12
ATOM     12  C   UNL     1      -1.219  11.761  22.534  0.00  0.00    +0.000 C 
ATOM     13  C   UNL     1      -0.499  13.115  22.621  0.00  0.00    +0.000 C 
ATOM     14  C   UNL     1      -1.396  14.115  23.329  0.00  0.00    +0.000 C 
ATOM     15  F   UNL     1      -0.792  15.332  23.326  0.00  0.00    +0.000 F 
ATOM     16  C   UNL     1      -2.769  14.211  22.655  0.00  0.00    +0.000 C 
ATOM     17  C   UNL     1      -3.377  12.804  22.588  0.00  0.00    +0.000 C 
ATOM     18  O   UNL     1      -2.480  11.938  21.844  0.00  0.00    +0.000 OA
BRANCH  16  19
ATOM     19  O   UNL     1      -2.650  14.749  21.328  0.00  0.00    +0.000 OA
ATOM     20  H   UNL     1      -2.159  15.590  21.381  0.00  0.00    +0.000 HD
ENDBRANCH  16  19
BRANCH  17  21
ATOM     21  C   UNL     1      -4.747  12.836  21.898  0.00  0.00    +0.000 C 
BRANCH  21  22
ATOM     22  O   UNL     1      -5.745  12.275  22.748  0.00  0.00    +0.000 OA
ATOM     23  H   UNL     1      -6.504  12.063  22.173  0.00  0.00    +0.000 HD
ENDBRANCH  21  22
ENDBRANCH  17  21
ENDBRANCH   7  12
BRANCH   2  24
ATOM     24  C   UNL     1       2.953   6.949  17.930  0.00  0.00    +0.000 A 
ATOM     25  C   UNL     1       2.375   5.684  18.134  0.00  0.00    +0.000 A 
ATOM     26  C   UNL     1       3.027   4.530  17.712  0.00  0.00    +0.000 A 
ATOM     27  C   UNL     1       4.267   4.630  17.088  0.00  0.00    +0.000 A 
ATOM     28  C   UNL     1       4.845   5.886  16.875  0.00  0.00    +0.000 A 
ATOM     29  C   UNL     1       4.191   7.053  17.293  0.00  0.00    +0.000 A 
ENDBRANCH   2  24
TORSDOF 5
ENDMDL
