MODEL 1
REMARK VINA RESULT:      -7.5      0.000      0.000
REMARK  Name = 
REMARK  3 active torsions:
REMARK  status: ('A' for Active; 'I' for Inactive)
REMARK    1  A    between atoms: C_1  and  O_2
REMARK    2  A    between atoms: O_2  and  C_3
REMARK    3  A    between atoms: C_10  and  C_12
REMARK                            x       y       z     vdW  Elec       q    Type
REMARK                         _______ _______ _______ _____ _____    ______ ____
ROOT
ATOM      1  C   UNL     1      -1.062  11.473  22.126  0.00  0.00    +0.000 A 
ATOM      2  C   UNL     1      -0.783  10.552  23.133  0.00  0.00    +0.000 A 
ATOM      3  C   UNL     1      -0.024   9.402  22.862  0.00  0.00    +0.000 A 
ATOM      4  C   UNL     1       0.464   9.169  21.561  0.00  0.00    +0.000 A 
ATOM      5  N   UNL     1       1.212   8.074  21.144  0.00  0.00    +0.000 NA
ATOM      6  C   UNL     1       1.544   8.227  19.882  0.00  0.00    +0.000 A 
ATOM      7  N   UNL     1       2.311   7.292  19.220  0.00  0.00    +0.000 N 
ATOM      8  C   UNL     1       2.933   7.497  18.007  0.00  0.00    +0.000 C 
ATOM      9  O   UNL     1       2.942   8.532  17.354  0.00  0.00    +0.000 OA
ATOM     10  S   UNL     1       0.914   9.605  19.106  0.00  0.00    +0.000 S 
ATOM     11  C   UNL     1       0.187  10.113  20.573  0.00  0.00    +0.000 A 
ATOM     12  C   UNL     1      -0.573  11.266  20.832  0.00  0.00    +0.000 A 
ATOM     13  H   UNL     1       2.532   6.484  19.782  0.00  0.00    +0.000 HD
ENDROOT
BRANCH   8  14
ATOM     14  C   UNL     1       3.730   6.356  17.466  0.00  0.00    +0.000 A 
ATOM     15  C   UNL     1       3.393   5.013  17.688  0.00  0.00    +0.000 A 
ATOM     16  C   UNL     1       4.142   4.000  17.078  0.00  0.00    +0.000 A 
ATOM     17  C   UNL     1       5.215   4.328  16.253  0.00  0.00    +0.000 A 
ATOM     18  F   UNL     1       5.911   3.352  15.656  0.00  0.00    +0.000 F 
ATOM     19  C   UNL     1       5.564   5.652  16.027  0.00  0.00    +0.000 A 
ATOM     20  C   UNL     1       4.821   6.666  16.631  0.00  0.00    +0.000 A 
ENDBRANCH   8  14
BRANCH   1  22
ATOM     21  C   UNL     1      -1.247  13.637  23.098  0.00  0.00    +0.000 C 
ATOM     22  O   UNL     1      -1.796  12.619  22.270  0.00  0.00    +0.000 OA
ENDBRANCH   1  22
TORSDOF 2
ENDMDL
MODEL 2
REMARK VINA RESULT:      -7.4      0.537      1.185
REMARK  Name = 
REMARK  3 active torsions:
REMARK  status: ('A' for Active; 'I' for Inactive)
REMARK    1  A    between atoms: C_1  and  O_2
REMARK    2  A    between atoms: O_2  and  C_3
REMARK    3  A    between atoms: C_10  and  C_12
REMARK                            x       y       z     vdW  Elec       q    Type
REMARK                         _______ _______ _______ _____ _____    ______ ____
ROOT
ATOM      1  C   UNL     1      -1.232  11.347  22.273  0.00  0.00    +0.000 A 
ATOM      2  C   UNL     1      -0.852  10.440  23.259  0.00  0.00    +0.000 A 
ATOM      3  C   UNL     1      -0.027   9.347  22.950  0.00  0.00    +0.000 A 
ATOM      4  C   UNL     1       0.428   9.158  21.630  0.00  0.00    +0.000 A 
ATOM      5  N   UNL     1       1.234   8.121  21.175  0.00  0.00    +0.000 NA
ATOM      6  C   UNL     1       1.507   8.305  19.904  0.00  0.00    +0.000 A 
ATOM      7  N   UNL     1       2.312   7.431  19.205  0.00  0.00    +0.000 N 
ATOM      8  C   UNL     1       2.874   7.687  17.972  0.00  0.00    +0.000 C 
ATOM      9  O   UNL     1       2.787   8.726  17.330  0.00  0.00    +0.000 OA
ATOM     10  S   UNL     1       0.755   9.643  19.164  0.00  0.00    +0.000 S 
ATOM     11  C   UNL     1       0.050  10.088  20.662  0.00  0.00    +0.000 A 
ATOM     12  C   UNL     1      -0.778  11.183  20.960  0.00  0.00    +0.000 A 
ATOM     13  H   UNL     1       2.609   6.636  19.750  0.00  0.00    +0.000 HD
ENDROOT
BRANCH   8  14
ATOM     14  C   UNL     1       3.727   6.609  17.391  0.00  0.00    +0.000 A 
ATOM     15  C   UNL     1       4.898   6.867  16.665  0.00  0.00    +0.000 A 
ATOM     16  C   UNL     1       5.690   5.800  16.222  0.00  0.00    +0.000 A 
ATOM     17  C   UNL     1       5.313   4.491  16.506  0.00  0.00    +0.000 A 
ATOM     18  F   UNL     1       6.090   3.477  16.099  0.00  0.00    +0.000 F 
ATOM     19  C   UNL     1       4.155   4.218  17.220  0.00  0.00    +0.000 A 
ATOM     20  C   UNL     1       3.362   5.277  17.663  0.00  0.00    +0.000 A 
ENDBRANCH   8  14
BRANCH   1  22
ATOM     21  C   UNL     1      -3.004  12.360  23.495  0.00  0.00    +0.000 C 
ATOM     22  O   UNL     1      -2.037  12.438  22.455  0.00  0.00    +0.000 OA
ENDBRANCH   1  22
TORSDOF 2
ENDMDL
MODEL 3
REMARK VINA RESULT:      -7.3      3.510      8.608
REMARK  Name = 
REMARK  3 active torsions:
REMARK  status: ('A' for Active; 'I' for Inactive)
REMARK    1  A    between atoms: C_1  and  O_2
REMARK    2  A    between atoms: O_2  and  C_3
REMARK    3  A    between atoms: C_10  and  C_12
REMARK                            x       y       z     vdW  Elec       q    Type
REMARK                         _______ _______ _______ _____ _____    ______ ____
ROOT
ATOM      1  C   UNL     1       5.071   4.071  16.411  0.00  0.00    +0.000 A 
ATOM      2  C   UNL     1       4.596   3.186  17.376  0.00  0.00    +0.000 A 
ATOM      3  C   UNL     1       3.798   3.643  18.437  0.00  0.00    +0.000 A 
ATOM      4  C   UNL     1       3.468   5.009  18.535  0.00  0.00    +0.000 A 
ATOM      5  N   UNL     1       2.703   5.605  19.531  0.00  0.00    +0.000 NA
ATOM      6  C   UNL     1       2.552   6.881  19.261  0.00  0.00    +0.000 A 
ATOM      7  N   UNL     1       1.812   7.709  20.079  0.00  0.00    +0.000 N 
ATOM      8  C   UNL     1       1.370   8.969  19.737  0.00  0.00    +0.000 C 
ATOM      9  O   UNL     1       1.522   9.530  18.660  0.00  0.00    +0.000 OA
ATOM     10  S   UNL     1       3.376   7.457  17.887  0.00  0.00    +0.000 S 
ATOM     11  C   UNL     1       3.940   5.874  17.548  0.00  0.00    +0.000 A 
ATOM     12  C   UNL     1       4.741   5.429  16.484  0.00  0.00    +0.000 A 
ATOM     13  H   UNL     1       1.462   7.247  20.905  0.00  0.00    +0.000 HD
ENDROOT
BRANCH   8  14
ATOM     14  C   UNL     1       0.570   9.697  20.766  0.00  0.00    +0.000 A 
ATOM     15  C   UNL     1      -0.110  10.894  20.501  0.00  0.00    +0.000 A 
ATOM     16  C   UNL     1      -0.907  11.474  21.495  0.00  0.00    +0.000 A 
ATOM     17  C   UNL     1      -1.023  10.861  22.739  0.00  0.00    +0.000 A 
ATOM     18  F   UNL     1      -1.807  11.411  23.676  0.00  0.00    +0.000 F 
ATOM     19  C   UNL     1      -0.353   9.678  23.019  0.00  0.00    +0.000 A 
ATOM     20  C   UNL     1       0.443   9.096  22.033  0.00  0.00    +0.000 A 
ENDBRANCH   8  14
BRANCH   1  22
ATOM     21  C   UNL     1       6.624   4.791  14.759  0.00  0.00    +0.000 C 
ATOM     22  O   UNL     1       5.861   3.743  15.343  0.00  0.00    +0.000 OA
ENDBRANCH   1  22
TORSDOF 2
ENDMDL
MODEL 4
REMARK VINA RESULT:      -7.3      1.461      1.817
REMARK  Name = 
REMARK  3 active torsions:
REMARK  status: ('A' for Active; 'I' for Inactive)
REMARK    1  A    between atoms: C_1  and  O_2
REMARK    2  A    between atoms: O_2  and  C_3
REMARK    3  A    between atoms: C_10  and  C_12
REMARK                            x       y       z     vdW  Elec       q    Type
REMARK                         _______ _______ _______ _____ _____    ______ ____
ROOT
ATOM      1  C   UNL     1      -1.047  10.981  22.219  0.00  0.00    +0.000 A 
ATOM      2  C   UNL     1      -1.089  11.710  21.033  0.00  0.00    +0.000 A 
ATOM      3  C   UNL     1      -0.359  11.295  19.908  0.00  0.00    +0.000 A 
ATOM      4  C   UNL     1       0.428  10.128  19.969  0.00  0.00    +0.000 A 
ATOM      5  N   UNL     1       1.210   9.605  18.946  0.00  0.00    +0.000 NA
ATOM      6  C   UNL     1       1.750   8.476  19.343  0.00  0.00    +0.000 A 
ATOM      7  N   UNL     1       2.559   7.731  18.511  0.00  0.00    +0.000 N 
ATOM      8  C   UNL     1       2.933   6.423  18.734  0.00  0.00    +0.000 C 
ATOM      9  O   UNL     1       2.580   5.710  19.665  0.00  0.00    +0.000 OA
ATOM     10  S   UNL     1       1.445   8.028  20.958  0.00  0.00    +0.000 S 
ATOM     11  C   UNL     1       0.442   9.403  21.161  0.00  0.00    +0.000 A 
ATOM     12  C   UNL     1      -0.282   9.811  22.293  0.00  0.00    +0.000 A 
ATOM     13  H   UNL     1       2.725   8.168  17.617  0.00  0.00    +0.000 HD
ENDROOT
BRANCH   8  14
ATOM     14  C   UNL     1       3.806   5.793  17.700  0.00  0.00    +0.000 A 
ATOM     15  C   UNL     1       3.868   4.409  17.490  0.00  0.00    +0.000 A 
ATOM     16  C   UNL     1       4.648   3.899  16.445  0.00  0.00    +0.000 A 
ATOM     17  C   UNL     1       5.357   4.767  15.620  0.00  0.00    +0.000 A 
ATOM     18  F   UNL     1       6.083   4.272  14.608  0.00  0.00    +0.000 F 
ATOM     19  C   UNL     1       5.311   6.140  15.817  0.00  0.00    +0.000 A 
ATOM     20  C   UNL     1       4.534   6.653  16.856  0.00  0.00    +0.000 A 
ENDBRANCH   8  14
BRANCH   1  22
ATOM     21  C   UNL     1      -2.836  12.149  23.265  0.00  0.00    +0.000 C 
ATOM     22  O   UNL     1      -1.706  11.294  23.377  0.00  0.00    +0.000 OA
ENDBRANCH   1  22
TORSDOF 2
ENDMDL
MODEL 5
REMARK VINA RESULT:      -7.2      1.536      2.166
REMARK  Name = 
REMARK  3 active torsions:
REMARK  status: ('A' for Active; 'I' for Inactive)
REMARK    1  A    between atoms: C_1  and  O_2
REMARK    2  A    between atoms: O_2  and  C_3
REMARK    3  A    between atoms: C_10  and  C_12
REMARK                            x       y       z     vdW  Elec       q    Type
REMARK                         _______ _______ _______ _____ _____    ______ ____
ROOT
ATOM      1  C   UNL     1      -0.771  10.540  22.085  0.00  0.00    +0.000 A 
ATOM      2  C   UNL     1      -0.818  11.325  20.936  0.00  0.00    +0.000 A 
ATOM      3  C   UNL     1      -0.096  10.961  19.788  0.00  0.00    +0.000 A 
ATOM      4  C   UNL     1       0.688   9.790  19.789  0.00  0.00    +0.000 A 
ATOM      5  N   UNL     1       1.463   9.314  18.738  0.00  0.00    +0.000 NA
ATOM      6  C   UNL     1       2.002   8.166  19.077  0.00  0.00    +0.000 A 
ATOM      7  N   UNL     1       2.804   7.460  18.207  0.00  0.00    +0.000 N 
ATOM      8  C   UNL     1       3.175   6.141  18.365  0.00  0.00    +0.000 C 
ATOM      9  O   UNL     1       2.826   5.386  19.263  0.00  0.00    +0.000 OA
ATOM     10  S   UNL     1       1.705   7.643  20.671  0.00  0.00    +0.000 S 
ATOM     11  C   UNL     1       0.707   9.010  20.945  0.00  0.00    +0.000 A 
ATOM     12  C   UNL     1      -0.009   9.366  22.100  0.00  0.00    +0.000 A 
ATOM     13  H   UNL     1       2.965   7.938  17.333  0.00  0.00    +0.000 HD
ENDROOT
BRANCH   8  14
ATOM     14  C   UNL     1       4.040   5.559  17.297  0.00  0.00    +0.000 A 
ATOM     15  C   UNL     1       4.861   6.337  16.468  0.00  0.00    +0.000 A 
ATOM     16  C   UNL     1       5.707   5.711  15.545  0.00  0.00    +0.000 A 
ATOM     17  C   UNL     1       5.732   4.322  15.455  0.00  0.00    +0.000 A 
ATOM     18  F   UNL     1       6.562   3.732  14.584  0.00  0.00    +0.000 F 
ATOM     19  C   UNL     1       4.923   3.538  16.265  0.00  0.00    +0.000 A 
ATOM     20  C   UNL     1       4.078   4.156  17.187  0.00  0.00    +0.000 A 
ENDBRANCH   8  14
BRANCH   1  22
ATOM     21  C   UNL     1      -2.362  11.866  23.255  0.00  0.00    +0.000 C 
ATOM     22  O   UNL     1      -1.422  10.799  23.261  0.00  0.00    +0.000 OA
ENDBRANCH   1  22
TORSDOF 2
ENDMDL
MODEL 6
REMARK VINA RESULT:      -7.2      3.457      8.698
REMARK  Name = 
REMARK  3 active torsions:
REMARK  status: ('A' for Active; 'I' for Inactive)
REMARK    1  A    between atoms: C_1  and  O_2
REMARK    2  A    between atoms: O_2  and  C_3
REMARK    3  A    between atoms: C_10  and  C_12
REMARK                            x       y       z     vdW  Elec       q    Type
REMARK                         _______ _______ _______ _____ _____    ______ ____
ROOT
ATOM      1  C   UNL     1       5.724   4.705  15.532  0.00  0.00    +0.000 A 
ATOM      2  C   UNL     1       5.300   3.661  16.350  0.00  0.00    +0.000 A 
ATOM      3  C   UNL     1       4.449   3.904  17.440  0.00  0.00    +0.000 A 
ATOM      4  C   UNL     1       4.013   5.215  17.717  0.00  0.00    +0.000 A 
ATOM      5  N   UNL     1       3.186   5.607  18.763  0.00  0.00    +0.000 NA
ATOM      6  C   UNL     1       2.942   6.893  18.668  0.00  0.00    +0.000 A 
ATOM      7  N   UNL     1       2.125   7.541  19.570  0.00  0.00    +0.000 N 
ATOM      8  C   UNL     1       1.593   8.801  19.394  0.00  0.00    +0.000 C 
ATOM      9  O   UNL     1       1.723   9.518  18.410  0.00  0.00    +0.000 OA
ATOM     10  S   UNL     1       3.746   7.716  17.413  0.00  0.00    +0.000 S 
ATOM     11  C   UNL     1       4.437   6.242  16.874  0.00  0.00    +0.000 A 
ATOM     12  C   UNL     1       5.290   6.012  15.783  0.00  0.00    +0.000 A 
ATOM     13  H   UNL     1       1.794   6.943  20.313  0.00  0.00    +0.000 HD
ENDROOT
BRANCH   8  14
ATOM     14  C   UNL     1       0.720   9.316  20.489  0.00  0.00    +0.000 A 
ATOM     15  C   UNL     1       0.594   8.678  21.731  0.00  0.00    +0.000 A 
ATOM     16  C   UNL     1      -0.180   9.267  22.738  0.00  0.00    +0.000 A 
ATOM     17  C   UNL     1      -0.819  10.482  22.504  0.00  0.00    +0.000 A 
ATOM     18  F   UNL     1      -1.539  11.049  23.481  0.00  0.00    +0.000 F 
ATOM     19  C   UNL     1      -0.708  11.124  21.278  0.00  0.00    +0.000 A 
ATOM     20  C   UNL     1       0.062  10.542  20.271  0.00  0.00    +0.000 A 
ENDBRANCH   8  14
BRANCH   1  22
ATOM     21  C   UNL     1       6.113   3.772  13.378  0.00  0.00    +0.000 C 
ATOM     22  O   UNL     1       6.558   4.590  14.453  0.00  0.00    +0.000 OA
ENDBRANCH   1  22
TORSDOF 2
ENDMDL
MODEL 7
REMARK VINA RESULT:      -7.2      3.564      8.584
REMARK  Name = 
REMARK  3 active torsions:
REMARK  status: ('A' for Active; 'I' for Inactive)
REMARK    1  A    between atoms: C_1  and  O_2
REMARK    2  A    between atoms: O_2  and  C_3
REMARK    3  A    between atoms: C_10  and  C_12
REMARK                            x       y       z     vdW  Elec       q    Type
REMARK                         _______ _______ _______ _____ _____    ______ ____
ROOT
ATOM      1  C   UNL     1       4.986   3.999  16.566  0.00  0.00    +0.000 A 
ATOM      2  C   UNL     1       4.475   3.101  17.500  0.00  0.00    +0.000 A 
ATOM      3  C   UNL     1       3.650   3.546  18.545  0.00  0.00    +0.000 A 
ATOM      4  C   UNL     1       3.329   4.913  18.659  0.00  0.00    +0.000 A 
ATOM      5  N   UNL     1       2.541   5.497  19.644  0.00  0.00    +0.000 NA
ATOM      6  C   UNL     1       2.409   6.780  19.394  0.00  0.00    +0.000 A 
ATOM      7  N   UNL     1       1.653   7.599  20.205  0.00  0.00    +0.000 N 
ATOM      8  C   UNL     1       1.232   8.869  19.874  0.00  0.00    +0.000 C 
ATOM      9  O   UNL     1       1.422   9.449  18.813  0.00  0.00    +0.000 OA
ATOM     10  S   UNL     1       3.279   7.374  18.055  0.00  0.00    +0.000 S 
ATOM     11  C   UNL     1       3.838   5.791  17.703  0.00  0.00    +0.000 A 
ATOM     12  C   UNL     1       4.667   5.359  16.655  0.00  0.00    +0.000 A 
ATOM     13  H   UNL     1       1.274   7.125  21.011  0.00  0.00    +0.000 HD
ENDROOT
BRANCH   8  14
ATOM     14  C   UNL     1       0.409   9.586  20.893  0.00  0.00    +0.000 A 
ATOM     15  C   UNL     1       0.324   9.179  22.231  0.00  0.00    +0.000 A 
ATOM     16  C   UNL     1      -0.403   9.950  23.146  0.00  0.00    +0.000 A 
ATOM     17  C   UNL     1      -1.035  11.116  22.725  0.00  0.00    +0.000 A 
ATOM     18  F   UNL     1      -1.709  11.860  23.612  0.00  0.00    +0.000 F 
ATOM     19  C   UNL     1      -0.964  11.531  21.402  0.00  0.00    +0.000 A 
ATOM     20  C   UNL     1      -0.241  10.766  20.486  0.00  0.00    +0.000 A 
ENDBRANCH   8  14
BRANCH   1  22
ATOM     21  C   UNL     1       5.948   4.662  14.493  0.00  0.00    +0.000 C 
ATOM     22  O   UNL     1       5.804   3.684  15.515  0.00  0.00    +0.000 OA
ENDBRANCH   1  22
TORSDOF 2
ENDMDL
MODEL 8
REMARK VINA RESULT:      -6.9      4.318      9.275
REMARK  Name = 
REMARK  3 active torsions:
REMARK  status: ('A' for Active; 'I' for Inactive)
REMARK    1  A    between atoms: C_1  and  O_2
REMARK    2  A    between atoms: O_2  and  C_3
REMARK    3  A    between atoms: C_10  and  C_12
REMARK                            x       y       z     vdW  Elec       q    Type
REMARK                         _______ _______ _______ _____ _____    ______ ____
ROOT
ATOM      1  C   UNL     1       3.017   6.651  18.657  0.00  0.00    +0.000 A 
ATOM      2  C   UNL     1       2.941   7.622  17.662  0.00  0.00    +0.000 A 
ATOM      3  C   UNL     1       2.199   8.797  17.862  0.00  0.00    +0.000 A 
ATOM      4  C   UNL     1       1.520   9.006  19.079  0.00  0.00    +0.000 A 
ATOM      5  N   UNL     1       0.740  10.107  19.412  0.00  0.00    +0.000 NA
ATOM      6  C   UNL     1       0.320   9.986  20.650  0.00  0.00    +0.000 A 
ATOM      7  N   UNL     1      -0.459  10.956  21.245  0.00  0.00    +0.000 N 
ATOM      8  C   UNL     1      -0.706  11.052  22.598  0.00  0.00    +0.000 C 
ATOM      9  O   UNL     1      -0.250  10.332  23.477  0.00  0.00    +0.000 OA
ATOM     10  S   UNL     1       0.736   8.538  21.443  0.00  0.00    +0.000 S 
ATOM     11  C   UNL     1       1.624   8.027  20.067  0.00  0.00    +0.000 A 
ATOM     12  C   UNL     1       2.361   6.847  19.878  0.00  0.00    +0.000 A 
ATOM     13  H   UNL     1      -0.702  11.712  20.623  0.00  0.00    +0.000 HD
ENDROOT
BRANCH   8  14
ATOM     14  C   UNL     1      -1.568  12.188  23.040  0.00  0.00    +0.000 A 
ATOM     15  C   UNL     1      -2.889  12.021  23.476  0.00  0.00    +0.000 A 
ATOM     16  C   UNL     1      -3.607  13.124  23.954  0.00  0.00    +0.000 A 
ATOM     17  C   UNL     1      -3.006  14.379  23.995  0.00  0.00    +0.000 A 
ATOM     18  F   UNL     1      -3.693  15.425  24.476  0.00  0.00    +0.000 F 
ATOM     19  C   UNL     1      -1.701  14.562  23.563  0.00  0.00    +0.000 A 
ATOM     20  C   UNL     1      -0.980  13.466  23.086  0.00  0.00    +0.000 A 
ENDBRANCH   8  14
BRANCH   1  22
ATOM     21  C   UNL     1       5.012   5.517  18.032  0.00  0.00    +0.000 C 
ATOM     22  O   UNL     1       3.698   5.467  18.572  0.00  0.00    +0.000 OA
ENDBRANCH   1  22
TORSDOF 2
ENDMDL
MODEL 9
REMARK VINA RESULT:      -6.9      4.371      9.377
REMARK  Name = 
REMARK  3 active torsions:
REMARK  status: ('A' for Active; 'I' for Inactive)
REMARK    1  A    between atoms: C_1  and  O_2
REMARK    2  A    between atoms: O_2  and  C_3
REMARK    3  A    between atoms: C_10  and  C_12
REMARK                            x       y       z     vdW  Elec       q    Type
REMARK                         _______ _______ _______ _____ _____    ______ ____
ROOT
ATOM      1  C   UNL     1       2.906   6.848  18.635  0.00  0.00    +0.000 A 
ATOM      2  C   UNL     1       2.786   7.809  17.633  0.00  0.00    +0.000 A 
ATOM      3  C   UNL     1       2.030   8.973  17.843  0.00  0.00    +0.000 A 
ATOM      4  C   UNL     1       1.383   9.182  19.077  0.00  0.00    +0.000 A 
ATOM      5  N   UNL     1       0.594  10.273  19.421  0.00  0.00    +0.000 NA
ATOM      6  C   UNL     1       0.210  10.158  20.672  0.00  0.00    +0.000 A 
ATOM      7  N   UNL     1      -0.568  11.120  21.280  0.00  0.00    +0.000 N 
ATOM      8  C   UNL     1      -0.778  11.225  22.638  0.00  0.00    +0.000 C 
ATOM      9  O   UNL     1      -0.286  10.521  23.511  0.00  0.00    +0.000 OA
ATOM     10  S   UNL     1       0.673   8.724  21.466  0.00  0.00    +0.000 S 
ATOM     11  C   UNL     1       1.530   8.215  20.071  0.00  0.00    +0.000 A 
ATOM     12  C   UNL     1       2.281   7.045  19.872  0.00  0.00    +0.000 A 
ATOM     13  H   UNL     1      -0.841  11.866  20.658  0.00  0.00    +0.000 HD
ENDROOT
BRANCH   8  14
ATOM     14  C   UNL     1      -1.646  12.350  23.094  0.00  0.00    +0.000 A 
ATOM     15  C   UNL     1      -1.179  13.663  23.248  0.00  0.00    +0.000 A 
ATOM     16  C   UNL     1      -2.074  14.681  23.599  0.00  0.00    +0.000 A 
ATOM     17  C   UNL     1      -3.421  14.388  23.792  0.00  0.00    +0.000 A 
ATOM     18  F   UNL     1      -4.273  15.373  24.105  0.00  0.00    +0.000 F 
ATOM     19  C   UNL     1      -3.898  13.093  23.648  0.00  0.00    +0.000 A 
ATOM     20  C   UNL     1      -3.012  12.074  23.298  0.00  0.00    +0.000 A 
ENDBRANCH   8  14
BRANCH   1  22
ATOM     21  C   UNL     1       3.065   4.669  17.693  0.00  0.00    +0.000 C 
ATOM     22  O   UNL     1       3.604   5.675  18.541  0.00  0.00    +0.000 OA
ENDBRANCH   1  22
TORSDOF 2
ENDMDL
