MODEL 1
REMARK VINA RESULT:      -7.0      0.000      0.000
REMARK  Name = 
REMARK  14 active torsions:
REMARK  status: ('A' for Active; 'I' for Inactive)
REMARK    1  A    between atoms: C_1  and  S_2
REMARK    2  A    between atoms: S_2  and  C_3
REMARK    3  A    between atoms: C_3  and  C_4
REMARK    4  A    between atoms: C_4  and  C_5
REMARK    5  A    between atoms: C_5  and  N_6
REMARK    6  A    between atoms: C_5  and  C_28
REMARK    7  A    between atoms: N_6  and  P_7
REMARK    8  A    between atoms: P_7  and  O_9
REMARK    9  A    between atoms: P_7  and  O_10
REMARK   10  A    between atoms: O_10  and  C_11
REMARK   11  A    between atoms: C_11  and  C_12
REMARK   12  A    between atoms: C_14  and  N_15
REMARK   13  A    between atoms: C_26  and  O_27
REMARK   14  A    between atoms: C_28  and  O_30
REMARK                            x       y       z     vdW  Elec       q    Type
REMARK                         _______ _______ _______ _____ _____    ______ ____
ROOT
ATOM      1  C   UNL     1       2.396   2.948  17.786  0.00  0.00    +0.000 C 
ATOM      2  O   UNL     1       3.320   3.459  16.815  0.00  0.00    +0.000 OA
ATOM      3  C   UNL     1       4.633   3.525  17.416  0.00  0.00    +0.000 C 
ATOM      4  C   UNL     1       4.507   3.085  18.870  0.00  0.00    +0.000 C 
ATOM      5  C   UNL     1       3.237   2.272  18.859  0.00  0.00    +0.000 C 
ENDROOT
BRANCH   3   6
ATOM      6  N   UNL     1       5.183   4.849  17.216  0.00  0.00    +0.000 N 
ATOM      7  C   UNL     1       4.827   5.760  16.259  0.00  0.00    +0.000 A 
ATOM      8  N   UNL     1       5.592   6.830  16.284  0.00  0.00    +0.000 NA
ATOM      9  C   UNL     1       6.488   6.595  17.307  0.00  0.00    +0.000 A 
ATOM     10  C   UNL     1       7.558   7.342  17.819  0.00  0.00    +0.000 A 
ATOM     11  N   UNL     1       7.942   8.567  17.291  0.00  0.00    +0.000 N 
ATOM     12  N   UNL     1       8.240   6.851  18.880  0.00  0.00    +0.000 NA
ATOM     13  C   UNL     1       7.879   5.643  19.370  0.00  0.00    +0.000 A 
ATOM     14  N   UNL     1       6.895   4.826  18.945  0.00  0.00    +0.000 NA
ATOM     15  C   UNL     1       6.235   5.374  17.910  0.00  0.00    +0.000 A 
ATOM     16  H   UNL     1       7.209   9.008  16.746  0.00  0.00    +0.000 HD
ATOM     17  H   UNL     1       8.435   9.135  17.965  0.00  0.00    +0.000 HD
ENDBRANCH   3   6
BRANCH   5  18
ATOM     18  O   UNL     1       3.545   0.926  18.478  0.00  0.00    +0.000 OA
ATOM     19  H   UNL     1       2.941   0.317  18.942  0.00  0.00    +0.000 HD
ENDBRANCH   5  18
BRANCH   1  20
ATOM     20  C   UNL     1       1.507   4.071  18.314  0.00  0.00    +0.000 C 
BRANCH  20  21
ATOM     21  O   UNL     1       2.076   5.381  18.182  0.00  0.00    +0.000 OA
BRANCH  21  22
ATOM     22  P   UNL     1       2.029   6.347  19.616  0.00  0.00    +0.000 P 
ATOM     23  O   UNL     1       3.496   6.025  19.907  0.00  0.00    +0.000 OA
BRANCH  22  24
ATOM     24  N   UNL     1       1.983   7.342  21.092  0.00  0.00    +0.000 NA
ATOM     25  H   UNL     1       2.968   7.415  21.338  0.00  0.00    +0.000 HD
BRANCH  24  26
ATOM     26  C   UNL     1       1.476   8.723  20.881  0.00  0.00    +0.000 C 
BRANCH  26  27
ATOM     27  C   UNL     1       0.371   8.973  21.910  0.00  0.00    +0.000 C 
ATOM     28  O   UNL     1       0.364   9.864  22.743  0.00  0.00    +0.000 OA
BRANCH  27  29
ATOM     29  O   UNL     1      -0.680   8.131  21.733  0.00  0.00    +0.000 OA
ATOM     30  H   UNL     1      -1.086   7.901  22.598  0.00  0.00    +0.000 HD
ENDBRANCH  27  29
ENDBRANCH  26  27
BRANCH  26  31
ATOM     31  C   UNL     1       1.023   8.977  19.434  0.00  0.00    +0.000 C 
BRANCH  31  32
ATOM     32  C   UNL     1       0.609  10.417  19.118  0.00  0.00    +0.000 C 
BRANCH  32  34
ATOM     33  C   UNL     1      -1.224  12.298  18.297  0.00  0.00    +0.000 C 
ATOM     34  S   UNL     1      -1.166  10.543  18.722  0.00  0.00    +0.000 S 
ENDBRANCH  32  34
ENDBRANCH  31  32
ENDBRANCH  26  31
ENDBRANCH  24  26
ENDBRANCH  22  24
BRANCH  22  35
ATOM     35  O   UNL     1       1.259   5.198  20.484  0.00  0.00    +0.000 OA
ATOM     36  H   UNL     1       1.051   5.587  21.356  0.00  0.00    +0.000 HD
ENDBRANCH  22  35
ENDBRANCH  21  22
ENDBRANCH  20  21
ENDBRANCH   1  20
TORSDOF 13
ENDMDL
MODEL 2
REMARK VINA RESULT:      -6.8      2.080      2.865
REMARK  Name = 
REMARK  14 active torsions:
REMARK  status: ('A' for Active; 'I' for Inactive)
REMARK    1  A    between atoms: C_1  and  S_2
REMARK    2  A    between atoms: S_2  and  C_3
REMARK    3  A    between atoms: C_3  and  C_4
REMARK    4  A    between atoms: C_4  and  C_5
REMARK    5  A    between atoms: C_5  and  N_6
REMARK    6  A    between atoms: C_5  and  C_28
REMARK    7  A    between atoms: N_6  and  P_7
REMARK    8  A    between atoms: P_7  and  O_9
REMARK    9  A    between atoms: P_7  and  O_10
REMARK   10  A    between atoms: O_10  and  C_11
REMARK   11  A    between atoms: C_11  and  C_12
REMARK   12  A    between atoms: C_14  and  N_15
REMARK   13  A    between atoms: C_26  and  O_27
REMARK   14  A    between atoms: C_28  and  O_30
REMARK                            x       y       z     vdW  Elec       q    Type
REMARK                         _______ _______ _______ _____ _____    ______ ____
ROOT
ATOM      1  C   UNL     1       1.178   4.118  19.333  0.00  0.00    +0.000 C 
ATOM      2  O   UNL     1       2.183   4.543  18.402  0.00  0.00    +0.000 OA
ATOM      3  C   UNL     1       3.259   3.578  18.411  0.00  0.00    +0.000 C 
ATOM      4  C   UNL     1       2.931   2.518  19.456  0.00  0.00    +0.000 C 
ATOM      5  C   UNL     1       1.435   2.640  19.591  0.00  0.00    +0.000 C 
ENDROOT
BRANCH   3   6
ATOM      6  N   UNL     1       4.517   4.268  18.603  0.00  0.00    +0.000 N 
ATOM      7  C   UNL     1       5.323   4.234  19.708  0.00  0.00    +0.000 A 
ATOM      8  N   UNL     1       6.343   5.057  19.603  0.00  0.00    +0.000 NA
ATOM      9  C   UNL     1       6.185   5.654  18.369  0.00  0.00    +0.000 A 
ATOM     10  C   UNL     1       6.928   6.626  17.686  0.00  0.00    +0.000 A 
ATOM     11  N   UNL     1       8.057   7.229  18.224  0.00  0.00    +0.000 N 
ATOM     12  N   UNL     1       6.532   6.986  16.442  0.00  0.00    +0.000 NA
ATOM     13  C   UNL     1       5.415   6.416  15.935  0.00  0.00    +0.000 A 
ATOM     14  N   UNL     1       4.608   5.501  16.507  0.00  0.00    +0.000 NA
ATOM     15  C   UNL     1       5.062   5.160  17.726  0.00  0.00    +0.000 A 
ATOM     16  H   UNL     1       8.469   6.690  18.979  0.00  0.00    +0.000 HD
ATOM     17  H   UNL     1       8.674   7.588  17.510  0.00  0.00    +0.000 HD
ENDBRANCH   3   6
BRANCH   5  18
ATOM     18  O   UNL     1       0.805   1.841  18.583  0.00  0.00    +0.000 OA
ATOM     19  H   UNL     1       1.114   2.133  17.705  0.00  0.00    +0.000 HD
ENDBRANCH   5  18
BRANCH   1  20
ATOM     20  C   UNL     1       1.222   4.982  20.591  0.00  0.00    +0.000 C 
BRANCH  20  21
ATOM     21  O   UNL     1       2.118   6.098  20.505  0.00  0.00    +0.000 OA
BRANCH  21  22
ATOM     22  P   UNL     1       1.356   7.631  20.254  0.00  0.00    +0.000 P 
ATOM     23  O   UNL     1       2.367   7.978  19.159  0.00  0.00    +0.000 OA
BRANCH  22  24
ATOM     24  N   UNL     1       0.573   9.208  19.993  0.00  0.00    +0.000 NA
ATOM     25  H   UNL     1       1.060   9.807  20.656  0.00  0.00    +0.000 HD
BRANCH  24  26
ATOM     26  C   UNL     1       0.790   9.780  18.638  0.00  0.00    +0.000 C 
BRANCH  26  27
ATOM     27  C   UNL     1       1.463  11.144  18.815  0.00  0.00    +0.000 C 
ATOM     28  O   UNL     1       1.396  11.845  19.811  0.00  0.00    +0.000 OA
BRANCH  27  29
ATOM     29  O   UNL     1       2.245  11.460  17.751  0.00  0.00    +0.000 OA
ATOM     30  H   UNL     1       1.771  12.072  17.146  0.00  0.00    +0.000 HD
ENDBRANCH  27  29
ENDBRANCH  26  27
BRANCH  26  31
ATOM     31  C   UNL     1      -0.501   9.848  17.806  0.00  0.00    +0.000 C 
BRANCH  31  32
ATOM     32  C   UNL     1      -1.745  10.327  18.560  0.00  0.00    +0.000 C 
BRANCH  32  34
ATOM     33  C   UNL     1      -2.545   9.968  15.952  0.00  0.00    +0.000 C 
ATOM     34  S   UNL     1      -3.270  10.045  17.604  0.00  0.00    +0.000 S 
ENDBRANCH  32  34
ENDBRANCH  31  32
ENDBRANCH  26  31
ENDBRANCH  24  26
ENDBRANCH  22  24
BRANCH  22  35
ATOM     35  O   UNL     1       2.051   8.303  21.570  0.00  0.00    +0.000 OA
ATOM     36  H   UNL     1       2.658   7.635  21.947  0.00  0.00    +0.000 HD
ENDBRANCH  22  35
ENDBRANCH  21  22
ENDBRANCH  20  21
ENDBRANCH   1  20
TORSDOF 13
ENDMDL
MODEL 3
REMARK VINA RESULT:      -6.7      1.938      2.704
REMARK  Name = 
REMARK  14 active torsions:
REMARK  status: ('A' for Active; 'I' for Inactive)
REMARK    1  A    between atoms: C_1  and  S_2
REMARK    2  A    between atoms: S_2  and  C_3
REMARK    3  A    between atoms: C_3  and  C_4
REMARK    4  A    between atoms: C_4  and  C_5
REMARK    5  A    between atoms: C_5  and  N_6
REMARK    6  A    between atoms: C_5  and  C_28
REMARK    7  A    between atoms: N_6  and  P_7
REMARK    8  A    between atoms: P_7  and  O_9
REMARK    9  A    between atoms: P_7  and  O_10
REMARK   10  A    between atoms: O_10  and  C_11
REMARK   11  A    between atoms: C_11  and  C_12
REMARK   12  A    between atoms: C_14  and  N_15
REMARK   13  A    between atoms: C_26  and  O_27
REMARK   14  A    between atoms: C_28  and  O_30
REMARK                            x       y       z     vdW  Elec       q    Type
REMARK                         _______ _______ _______ _____ _____    ______ ____
ROOT
ATOM      1  C   UNL     1       1.302   3.858  19.442  0.00  0.00    +0.000 C 
ATOM      2  O   UNL     1       2.148   4.244  18.349  0.00  0.00    +0.000 OA
ATOM      3  C   UNL     1       3.337   3.423  18.373  0.00  0.00    +0.000 C 
ATOM      4  C   UNL     1       3.255   2.511  19.591  0.00  0.00    +0.000 C 
ATOM      5  C   UNL     1       1.776   2.479  19.880  0.00  0.00    +0.000 C 
ENDROOT
BRANCH   3   6
ATOM      6  N   UNL     1       4.505   4.276  18.316  0.00  0.00    +0.000 N 
ATOM      7  C   UNL     1       5.135   4.893  19.362  0.00  0.00    +0.000 A 
ATOM      8  N   UNL     1       6.106   5.684  18.959  0.00  0.00    +0.000 NA
ATOM      9  C   UNL     1       6.100   5.573  17.584  0.00  0.00    +0.000 A 
ATOM     10  C   UNL     1       6.875   6.172  16.583  0.00  0.00    +0.000 A 
ATOM     11  N   UNL     1       7.869   7.103  16.854  0.00  0.00    +0.000 N 
ATOM     12  N   UNL     1       6.651   5.821  15.294  0.00  0.00    +0.000 NA
ATOM     13  C   UNL     1       5.661   4.937  15.034  0.00  0.00    +0.000 A 
ATOM     14  N   UNL     1       4.836   4.323  15.905  0.00  0.00    +0.000 NA
ATOM     15  C   UNL     1       5.121   4.686  17.168  0.00  0.00    +0.000 A 
ATOM     16  H   UNL     1       8.195   7.062  17.814  0.00  0.00    +0.000 HD
ATOM     17  H   UNL     1       8.564   7.143  16.122  0.00  0.00    +0.000 HD
ENDBRANCH   3   6
BRANCH   5  18
ATOM     18  O   UNL     1       1.162   1.463  19.078  0.00  0.00    +0.000 OA
ATOM     19  H   UNL     1       1.845   0.829  18.789  0.00  0.00    +0.000 HD
ENDBRANCH   5  18
BRANCH   1  20
ATOM     20  C   UNL     1       1.353   4.909  20.547  0.00  0.00    +0.000 C 
BRANCH  20  21
ATOM     21  O   UNL     1       2.146   6.061  20.227  0.00  0.00    +0.000 OA
BRANCH  21  22
ATOM     22  P   UNL     1       1.308   7.572  20.310  0.00  0.00    +0.000 P 
ATOM     23  O   UNL     1       2.218   8.161  19.230  0.00  0.00    +0.000 OA
BRANCH  22  24
ATOM     24  N   UNL     1       0.447   9.127  20.394  0.00  0.00    +0.000 NA
ATOM     25  H   UNL     1       0.801   9.528  21.260  0.00  0.00    +0.000 HD
BRANCH  24  26
ATOM     26  C   UNL     1       0.787  10.073  19.298  0.00  0.00    +0.000 C 
BRANCH  26  27
ATOM     27  C   UNL     1       1.033  11.445  19.933  0.00  0.00    +0.000 C 
ATOM     28  O   UNL     1       1.062  12.508  19.336  0.00  0.00    +0.000 OA
BRANCH  27  29
ATOM     29  O   UNL     1       1.122  11.364  21.285  0.00  0.00    +0.000 OA
ATOM     30  H   UNL     1       0.228  11.303  21.686  0.00  0.00    +0.000 HD
ENDBRANCH  27  29
ENDBRANCH  26  27
BRANCH  26  31
ATOM     31  C   UNL     1      -0.274  10.104  18.186  0.00  0.00    +0.000 C 
BRANCH  31  32
ATOM     32  C   UNL     1      -1.691  10.468  18.639  0.00  0.00    +0.000 C 
BRANCH  32  34
ATOM     33  C   UNL     1      -2.653   9.986  16.107  0.00  0.00    +0.000 C 
ATOM     34  S   UNL     1      -2.627  11.318  17.327  0.00  0.00    +0.000 S 
ENDBRANCH  32  34
ENDBRANCH  31  32
ENDBRANCH  26  31
ENDBRANCH  24  26
ENDBRANCH  22  24
BRANCH  22  35
ATOM     35  O   UNL     1       2.074   8.034  21.676  0.00  0.00    +0.000 OA
ATOM     36  H   UNL     1       1.501   8.690  22.119  0.00  0.00    +0.000 HD
ENDBRANCH  22  35
ENDBRANCH  21  22
ENDBRANCH  20  21
ENDBRANCH   1  20
TORSDOF 13
ENDMDL
MODEL 4
REMARK VINA RESULT:      -6.5      1.960      2.604
REMARK  Name = 
REMARK  14 active torsions:
REMARK  status: ('A' for Active; 'I' for Inactive)
REMARK    1  A    between atoms: C_1  and  S_2
REMARK    2  A    between atoms: S_2  and  C_3
REMARK    3  A    between atoms: C_3  and  C_4
REMARK    4  A    between atoms: C_4  and  C_5
REMARK    5  A    between atoms: C_5  and  N_6
REMARK    6  A    between atoms: C_5  and  C_28
REMARK    7  A    between atoms: N_6  and  P_7
REMARK    8  A    between atoms: P_7  and  O_9
REMARK    9  A    between atoms: P_7  and  O_10
REMARK   10  A    between atoms: O_10  and  C_11
REMARK   11  A    between atoms: C_11  and  C_12
REMARK   12  A    between atoms: C_14  and  N_15
REMARK   13  A    between atoms: C_26  and  O_27
REMARK   14  A    between atoms: C_28  and  O_30
REMARK                            x       y       z     vdW  Elec       q    Type
REMARK                         _______ _______ _______ _____ _____    ______ ____
ROOT
ATOM      1  C   UNL     1       1.829   3.154  18.118  0.00  0.00    +0.000 C 
ATOM      2  O   UNL     1       3.101   3.232  17.460  0.00  0.00    +0.000 OA
ATOM      3  C   UNL     1       4.141   2.975  18.431  0.00  0.00    +0.000 C 
ATOM      4  C   UNL     1       3.478   2.784  19.790  0.00  0.00    +0.000 C 
ATOM      5  C   UNL     1       2.068   2.399  19.418  0.00  0.00    +0.000 C 
ENDROOT
BRANCH   3   6
ATOM      6  N   UNL     1       5.125   4.034  18.365  0.00  0.00    +0.000 N 
ATOM      7  C   UNL     1       5.520   4.865  19.379  0.00  0.00    +0.000 A 
ATOM      8  N   UNL     1       6.358   5.790  18.963  0.00  0.00    +0.000 NA
ATOM      9  C   UNL     1       6.509   5.544  17.613  0.00  0.00    +0.000 A 
ATOM     10  C   UNL     1       7.252   6.183  16.612  0.00  0.00    +0.000 A 
ATOM     11  N   UNL     1       8.019   7.316  16.850  0.00  0.00    +0.000 N 
ATOM     12  N   UNL     1       7.227   5.669  15.360  0.00  0.00    +0.000 NA
ATOM     13  C   UNL     1       6.454   4.583  15.129  0.00  0.00    +0.000 A 
ATOM     14  N   UNL     1       5.678   3.906  15.999  0.00  0.00    +0.000 NA
ATOM     15  C   UNL     1       5.762   4.442  17.229  0.00  0.00    +0.000 A 
ATOM     16  H   UNL     1       8.250   7.436  17.830  0.00  0.00    +0.000 HD
ATOM     17  H   UNL     1       8.763   7.421  16.174  0.00  0.00    +0.000 HD
ENDBRANCH   3   6
BRANCH   5  18
ATOM     18  O   UNL     1       2.012   0.986  19.192  0.00  0.00    +0.000 OA
ATOM     19  H   UNL     1       2.436   0.526  19.940  0.00  0.00    +0.000 HD
ENDBRANCH   5  18
BRANCH   1  20
ATOM     20  C   UNL     1       1.246   4.551  18.313  0.00  0.00    +0.000 C 
BRANCH  20  21
ATOM     21  O   UNL     1       2.032   5.601  17.733  0.00  0.00    +0.000 OA
BRANCH  21  22
ATOM     22  P   UNL     1       2.090   7.066  18.652  0.00  0.00    +0.000 P 
ATOM     23  O   UNL     1       3.380   7.485  17.944  0.00  0.00    +0.000 OA
BRANCH  22  24
ATOM     24  N   UNL     1       2.149   8.573  19.596  0.00  0.00    +0.000 NA
ATOM     25  H   UNL     1       2.719   9.178  19.007  0.00  0.00    +0.000 HD
BRANCH  24  26
ATOM     26  C   UNL     1       0.831   9.239  19.767  0.00  0.00    +0.000 C 
BRANCH  26  27
ATOM     27  C   UNL     1       0.512   9.976  18.463  0.00  0.00    +0.000 C 
ATOM     28  O   UNL     1      -0.579  10.018  17.920  0.00  0.00    +0.000 OA
BRANCH  27  29
ATOM     29  O   UNL     1       1.582  10.679  18.009  0.00  0.00    +0.000 OA
ATOM     30  H   UNL     1       1.702  10.537  17.045  0.00  0.00    +0.000 HD
ENDBRANCH  27  29
ENDBRANCH  26  27
BRANCH  26  31
ATOM     31  C   UNL     1       0.779  10.150  21.004  0.00  0.00    +0.000 C 
BRANCH  31  32
ATOM     32  C   UNL     1      -0.307   9.809  22.027  0.00  0.00    +0.000 C 
BRANCH  32  34
ATOM     33  C   UNL     1      -1.589  12.082  21.155  0.00  0.00    +0.000 C 
ATOM     34  S   UNL     1      -1.094  11.304  22.709  0.00  0.00    +0.000 S 
ENDBRANCH  32  34
ENDBRANCH  31  32
ENDBRANCH  26  31
ENDBRANCH  24  26
ENDBRANCH  22  24
BRANCH  22  35
ATOM     35  O   UNL     1       2.670   6.322  19.985  0.00  0.00    +0.000 OA
ATOM     36  H   UNL     1       3.561   6.688  20.153  0.00  0.00    +0.000 HD
ENDBRANCH  22  35
ENDBRANCH  21  22
ENDBRANCH  20  21
ENDBRANCH   1  20
TORSDOF 13
ENDMDL
MODEL 5
REMARK VINA RESULT:      -6.5      3.181      4.116
REMARK  Name = 
REMARK  14 active torsions:
REMARK  status: ('A' for Active; 'I' for Inactive)
REMARK    1  A    between atoms: C_1  and  S_2
REMARK    2  A    between atoms: S_2  and  C_3
REMARK    3  A    between atoms: C_3  and  C_4
REMARK    4  A    between atoms: C_4  and  C_5
REMARK    5  A    between atoms: C_5  and  N_6
REMARK    6  A    between atoms: C_5  and  C_28
REMARK    7  A    between atoms: N_6  and  P_7
REMARK    8  A    between atoms: P_7  and  O_9
REMARK    9  A    between atoms: P_7  and  O_10
REMARK   10  A    between atoms: O_10  and  C_11
REMARK   11  A    between atoms: C_11  and  C_12
REMARK   12  A    between atoms: C_14  and  N_15
REMARK   13  A    between atoms: C_26  and  O_27
REMARK   14  A    between atoms: C_28  and  O_30
REMARK                            x       y       z     vdW  Elec       q    Type
REMARK                         _______ _______ _______ _____ _____    ______ ____
ROOT
ATOM      1  C   UNL     1       2.714   5.870  18.379  0.00  0.00    +0.000 C 
ATOM      2  O   UNL     1       3.412   5.167  17.341  0.00  0.00    +0.000 OA
ATOM      3  C   UNL     1       4.650   4.654  17.882  0.00  0.00    +0.000 C 
ATOM      4  C   UNL     1       4.758   5.118  19.330  0.00  0.00    +0.000 C 
ATOM      5  C   UNL     1       3.323   5.402  19.694  0.00  0.00    +0.000 C 
ENDROOT
BRANCH   3   6
ATOM      6  N   UNL     1       5.745   5.049  17.022  0.00  0.00    +0.000 N 
ATOM      7  C   UNL     1       6.721   5.970  17.291  0.00  0.00    +0.000 A 
ATOM      8  N   UNL     1       7.508   6.173  16.257  0.00  0.00    +0.000 NA
ATOM      9  C   UNL     1       7.013   5.345  15.271  0.00  0.00    +0.000 A 
ATOM     10  C   UNL     1       7.399   5.115  13.944  0.00  0.00    +0.000 A 
ATOM     11  N   UNL     1       8.450   5.790  13.338  0.00  0.00    +0.000 N 
ATOM     12  N   UNL     1       6.724   4.188  13.225  0.00  0.00    +0.000 NA
ATOM     13  C   UNL     1       5.682   3.556  13.812  0.00  0.00    +0.000 A 
ATOM     14  N   UNL     1       5.202   3.714  15.062  0.00  0.00    +0.000 NA
ATOM     15  C   UNL     1       5.925   4.624  15.738  0.00  0.00    +0.000 A 
ATOM     16  H   UNL     1       9.094   6.199  14.007  0.00  0.00    +0.000 HD
ATOM     17  H   UNL     1       8.842   5.270  12.566  0.00  0.00    +0.000 HD
ENDBRANCH   3   6
BRANCH   5  18
ATOM     18  O   UNL     1       2.699   4.188  20.128  0.00  0.00    +0.000 OA
ATOM     19  H   UNL     1       2.228   4.354  20.966  0.00  0.00    +0.000 HD
ENDBRANCH   5  18
BRANCH   1  20
ATOM     20  C   UNL     1       2.810   7.377  18.155  0.00  0.00    +0.000 C 
BRANCH  20  21
ATOM     21  O   UNL     1       2.101   8.161  19.125  0.00  0.00    +0.000 OA
BRANCH  21  22
ATOM     22  P   UNL     1       1.042   9.360  18.465  0.00  0.00    +0.000 P 
ATOM     23  O   UNL     1       2.189   9.951  17.643  0.00  0.00    +0.000 OA
BRANCH  22  24
ATOM     24  N   UNL     1      -0.046  10.592  17.786  0.00  0.00    +0.000 NA
ATOM     25  H   UNL     1      -0.182  10.264  16.832  0.00  0.00    +0.000 HD
BRANCH  24  26
ATOM     26  C   UNL     1      -1.386  10.645  18.429  0.00  0.00    +0.000 C 
BRANCH  26  27
ATOM     27  C   UNL     1      -2.398  10.068  17.435  0.00  0.00    +0.000 C 
ATOM     28  O   UNL     1      -3.400   9.437  17.727  0.00  0.00    +0.000 OA
BRANCH  27  29
ATOM     29  O   UNL     1      -2.108  10.426  16.157  0.00  0.00    +0.000 OA
ATOM     30  H   UNL     1      -2.833  10.971  15.780  0.00  0.00    +0.000 HD
ENDBRANCH  27  29
ENDBRANCH  26  27
BRANCH  26  31
ATOM     31  C   UNL     1      -1.757  12.053  18.919  0.00  0.00    +0.000 C 
BRANCH  31  32
ATOM     32  C   UNL     1      -2.008  12.180  20.424  0.00  0.00    +0.000 C 
BRANCH  32  34
ATOM     33  C   UNL     1      -3.451  13.584  22.301  0.00  0.00    +0.000 C 
ATOM     34  S   UNL     1      -2.336  13.904  20.916  0.00  0.00    +0.000 S 
ENDBRANCH  32  34
ENDBRANCH  31  32
ENDBRANCH  26  31
ENDBRANCH  24  26
ENDBRANCH  22  24
BRANCH  22  35
ATOM     35  O   UNL     1       1.089  10.283  19.811  0.00  0.00    +0.000 OA
ATOM     36  H   UNL     1       0.396  10.965  19.716  0.00  0.00    +0.000 HD
ENDBRANCH  22  35
ENDBRANCH  21  22
ENDBRANCH  20  21
ENDBRANCH   1  20
TORSDOF 13
ENDMDL
MODEL 6
REMARK VINA RESULT:      -6.5      2.433      3.343
REMARK  Name = 
REMARK  14 active torsions:
REMARK  status: ('A' for Active; 'I' for Inactive)
REMARK    1  A    between atoms: C_1  and  S_2
REMARK    2  A    between atoms: S_2  and  C_3
REMARK    3  A    between atoms: C_3  and  C_4
REMARK    4  A    between atoms: C_4  and  C_5
REMARK    5  A    between atoms: C_5  and  N_6
REMARK    6  A    between atoms: C_5  and  C_28
REMARK    7  A    between atoms: N_6  and  P_7
REMARK    8  A    between atoms: P_7  and  O_9
REMARK    9  A    between atoms: P_7  and  O_10
REMARK   10  A    between atoms: O_10  and  C_11
REMARK   11  A    between atoms: C_11  and  C_12
REMARK   12  A    between atoms: C_14  and  N_15
REMARK   13  A    between atoms: C_26  and  O_27
REMARK   14  A    between atoms: C_28  and  O_30
REMARK                            x       y       z     vdW  Elec       q    Type
REMARK                         _______ _______ _______ _____ _____    ______ ____
ROOT
ATOM      1  C   UNL     1       1.410   5.093  20.228  0.00  0.00    +0.000 C 
ATOM      2  O   UNL     1       1.627   4.567  18.911  0.00  0.00    +0.000 OA
ATOM      3  C   UNL     1       2.610   3.511  18.992  0.00  0.00    +0.000 C 
ATOM      4  C   UNL     1       3.079   3.414  20.439  0.00  0.00    +0.000 C 
ATOM      5  C   UNL     1       1.939   4.046  21.197  0.00  0.00    +0.000 C 
ENDROOT
BRANCH   3   6
ATOM      6  N   UNL     1       3.653   3.756  18.019  0.00  0.00    +0.000 N 
ATOM      7  C   UNL     1       3.686   3.343  16.714  0.00  0.00    +0.000 A 
ATOM      8  N   UNL     1       4.826   3.643  16.129  0.00  0.00    +0.000 NA
ATOM      9  C   UNL     1       5.565   4.278  17.106  0.00  0.00    +0.000 A 
ATOM     10  C   UNL     1       6.858   4.819  17.113  0.00  0.00    +0.000 A 
ATOM     11  N   UNL     1       7.703   4.765  16.013  0.00  0.00    +0.000 N 
ATOM     12  N   UNL     1       7.297   5.428  18.239  0.00  0.00    +0.000 NA
ATOM     13  C   UNL     1       6.480   5.450  19.317  0.00  0.00    +0.000 A 
ATOM     14  N   UNL     1       5.238   4.940  19.437  0.00  0.00    +0.000 NA
ATOM     15  C   UNL     1       4.842   4.373  18.284  0.00  0.00    +0.000 A 
ATOM     16  H   UNL     1       7.207   4.607  15.143  0.00  0.00    +0.000 HD
ATOM     17  H   UNL     1       8.400   5.497  16.032  0.00  0.00    +0.000 HD
ENDBRANCH   3   6
BRANCH   5  18
ATOM     18  O   UNL     1       0.939   3.053  21.454  0.00  0.00    +0.000 OA
ATOM     19  H   UNL     1       1.076   2.298  20.853  0.00  0.00    +0.000 HD
ENDBRANCH   5  18
BRANCH   1  20
ATOM     20  C   UNL     1       2.076   6.459  20.369  0.00  0.00    +0.000 C 
BRANCH  20  21
ATOM     21  O   UNL     1       1.588   7.240  21.469  0.00  0.00    +0.000 OA
BRANCH  21  22
ATOM     22  P   UNL     1       0.892   8.763  21.034  0.00  0.00    +0.000 P 
ATOM     23  O   UNL     1       1.537   9.430  22.250  0.00  0.00    +0.000 OA
BRANCH  22  24
ATOM     24  N   UNL     1       0.176  10.330  20.587  0.00  0.00    +0.000 NA
ATOM     25  H   UNL     1       0.890  10.990  20.887  0.00  0.00    +0.000 HD
BRANCH  24  26
ATOM     26  C   UNL     1      -0.013  10.519  19.124  0.00  0.00    +0.000 C 
BRANCH  26  27
ATOM     27  C   UNL     1       0.855  11.706  18.696  0.00  0.00    +0.000 C 
ATOM     28  O   UNL     1       0.685  12.866  19.030  0.00  0.00    +0.000 OA
BRANCH  27  29
ATOM     29  O   UNL     1       1.924  11.306  17.959  0.00  0.00    +0.000 OA
ATOM     30  H   UNL     1       1.711  11.337  17.001  0.00  0.00    +0.000 HD
ENDBRANCH  27  29
ENDBRANCH  26  27
BRANCH  26  31
ATOM     31  C   UNL     1      -1.490  10.678  18.730  0.00  0.00    +0.000 C 
BRANCH  31  32
ATOM     32  C   UNL     1      -1.898   9.998  17.420  0.00  0.00    +0.000 C 
BRANCH  32  34
ATOM     33  C   UNL     1      -2.992  10.032  14.895  0.00  0.00    +0.000 C 
ATOM     34  S   UNL     1      -2.771  11.143  16.303  0.00  0.00    +0.000 S 
ENDBRANCH  32  34
ENDBRANCH  31  32
ENDBRANCH  26  31
ENDBRANCH  24  26
ENDBRANCH  22  24
BRANCH  22  35
ATOM     35  O   UNL     1      -0.581   8.367  21.617  0.00  0.00    +0.000 OA
ATOM     36  H   UNL     1      -0.437   7.856  22.438  0.00  0.00    +0.000 HD
ENDBRANCH  22  35
ENDBRANCH  21  22
ENDBRANCH  20  21
ENDBRANCH   1  20
TORSDOF 13
ENDMDL
MODEL 7
REMARK VINA RESULT:      -6.5      1.679      1.915
REMARK  Name = 
REMARK  14 active torsions:
REMARK  status: ('A' for Active; 'I' for Inactive)
REMARK    1  A    between atoms: C_1  and  S_2
REMARK    2  A    between atoms: S_2  and  C_3
REMARK    3  A    between atoms: C_3  and  C_4
REMARK    4  A    between atoms: C_4  and  C_5
REMARK    5  A    between atoms: C_5  and  N_6
REMARK    6  A    between atoms: C_5  and  C_28
REMARK    7  A    between atoms: N_6  and  P_7
REMARK    8  A    between atoms: P_7  and  O_9
REMARK    9  A    between atoms: P_7  and  O_10
REMARK   10  A    between atoms: O_10  and  C_11
REMARK   11  A    between atoms: C_11  and  C_12
REMARK   12  A    between atoms: C_14  and  N_15
REMARK   13  A    between atoms: C_26  and  O_27
REMARK   14  A    between atoms: C_28  and  O_30
REMARK                            x       y       z     vdW  Elec       q    Type
REMARK                         _______ _______ _______ _____ _____    ______ ____
ROOT
ATOM      1  C   UNL     1       2.292   3.145  17.904  0.00  0.00    +0.000 C 
ATOM      2  O   UNL     1       3.213   3.548  16.880  0.00  0.00    +0.000 OA
ATOM      3  C   UNL     1       4.550   3.527  17.428  0.00  0.00    +0.000 C 
ATOM      4  C   UNL     1       4.449   3.147  18.900  0.00  0.00    +0.000 C 
ATOM      5  C   UNL     1       3.120   2.439  18.968  0.00  0.00    +0.000 C 
ENDROOT
BRANCH   3   6
ATOM      6  N   UNL     1       5.195   4.795  17.158  0.00  0.00    +0.000 N 
ATOM      7  C   UNL     1       4.996   5.615  16.081  0.00  0.00    +0.000 A 
ATOM      8  N   UNL     1       5.816   6.644  16.084  0.00  0.00    +0.000 NA
ATOM      9  C   UNL     1       6.583   6.476  17.219  0.00  0.00    +0.000 A 
ATOM     10  C   UNL     1       7.635   7.221  17.769  0.00  0.00    +0.000 A 
ATOM     11  N   UNL     1       8.144   8.364  17.168  0.00  0.00    +0.000 N 
ATOM     12  N   UNL     1       8.170   6.814  18.944  0.00  0.00    +0.000 NA
ATOM     13  C   UNL     1       7.689   5.683  19.509  0.00  0.00    +0.000 A 
ATOM     14  N   UNL     1       6.710   4.873  19.061  0.00  0.00    +0.000 NA
ATOM     15  C   UNL     1       6.196   5.339  17.909  0.00  0.00    +0.000 A 
ATOM     16  H   UNL     1       7.501   8.780  16.503  0.00  0.00    +0.000 HD
ATOM     17  H   UNL     1       8.595   8.976  17.833  0.00  0.00    +0.000 HD
ENDBRANCH   3   6
BRANCH   5  18
ATOM     18  O   UNL     1       3.303   1.061  18.624  0.00  0.00    +0.000 OA
ATOM     19  H   UNL     1       2.478   0.717  18.235  0.00  0.00    +0.000 HD
ENDBRANCH   5  18
BRANCH   1  20
ATOM     20  C   UNL     1       1.517   4.354  18.424  0.00  0.00    +0.000 C 
BRANCH  20  21
ATOM     21  O   UNL     1       1.843   5.587  17.767  0.00  0.00    +0.000 OA
BRANCH  21  22
ATOM     22  P   UNL     1       1.932   6.968  18.805  0.00  0.00    +0.000 P 
ATOM     23  O   UNL     1       3.032   7.578  17.935  0.00  0.00    +0.000 OA
BRANCH  22  24
ATOM     24  N   UNL     1       2.025   8.389  19.872  0.00  0.00    +0.000 NA
ATOM     25  H   UNL     1       2.767   8.938  19.443  0.00  0.00    +0.000 HD
BRANCH  24  26
ATOM     26  C   UNL     1       0.799   9.231  19.874  0.00  0.00    +0.000 C 
BRANCH  26  27
ATOM     27  C   UNL     1       0.652   9.837  18.476  0.00  0.00    +0.000 C 
ATOM     28  O   UNL     1      -0.383   9.899  17.834  0.00  0.00    +0.000 OA
BRANCH  27  29
ATOM     29  O   UNL     1       1.811  10.402  18.049  0.00  0.00    +0.000 OA
ATOM     30  H   UNL     1       2.313  10.771  18.808  0.00  0.00    +0.000 HD
ENDBRANCH  27  29
ENDBRANCH  26  27
BRANCH  26  31
ATOM     31  C   UNL     1       0.804  10.287  20.992  0.00  0.00    +0.000 C 
BRANCH  31  32
ATOM     32  C   UNL     1      -0.437  11.182  21.055  0.00  0.00    +0.000 C 
BRANCH  32  34
ATOM     33  C   UNL     1       0.770  13.323  19.819  0.00  0.00    +0.000 C 
ATOM     34  S   UNL     1      -0.006  12.919  21.399  0.00  0.00    +0.000 S 
ENDBRANCH  32  34
ENDBRANCH  31  32
ENDBRANCH  26  31
ENDBRANCH  24  26
ENDBRANCH  22  24
BRANCH  22  35
ATOM     35  O   UNL     1       2.805   6.181  19.939  0.00  0.00    +0.000 OA
ATOM     36  H   UNL     1       2.592   5.231  19.857  0.00  0.00    +0.000 HD
ENDBRANCH  22  35
ENDBRANCH  21  22
ENDBRANCH  20  21
ENDBRANCH   1  20
TORSDOF 13
ENDMDL
MODEL 8
REMARK VINA RESULT:      -6.4      3.600      7.706
REMARK  Name = 
REMARK  14 active torsions:
REMARK  status: ('A' for Active; 'I' for Inactive)
REMARK    1  A    between atoms: C_1  and  S_2
REMARK    2  A    between atoms: S_2  and  C_3
REMARK    3  A    between atoms: C_3  and  C_4
REMARK    4  A    between atoms: C_4  and  C_5
REMARK    5  A    between atoms: C_5  and  N_6
REMARK    6  A    between atoms: C_5  and  C_28
REMARK    7  A    between atoms: N_6  and  P_7
REMARK    8  A    between atoms: P_7  and  O_9
REMARK    9  A    between atoms: P_7  and  O_10
REMARK   10  A    between atoms: O_10  and  C_11
REMARK   11  A    between atoms: C_11  and  C_12
REMARK   12  A    between atoms: C_14  and  N_15
REMARK   13  A    between atoms: C_26  and  O_27
REMARK   14  A    between atoms: C_28  and  O_30
REMARK                            x       y       z     vdW  Elec       q    Type
REMARK                         _______ _______ _______ _____ _____    ______ ____
ROOT
ATOM      1  C   UNL     1       1.122   8.805  21.964  0.00  0.00    +0.000 C 
ATOM      2  O   UNL     1       1.691  10.120  21.878  0.00  0.00    +0.000 OA
ATOM      3  C   UNL     1       0.698  11.018  21.334  0.00  0.00    +0.000 C 
ATOM      4  C   UNL     1      -0.547  10.201  21.007  0.00  0.00    +0.000 C 
ATOM      5  C   UNL     1      -0.387   8.989  21.889  0.00  0.00    +0.000 C 
ENDROOT
BRANCH   3   6
ATOM      6  N   UNL     1       1.271  11.746  20.222  0.00  0.00    +0.000 N 
ATOM      7  C   UNL     1       1.305  11.363  18.909  0.00  0.00    +0.000 A 
ATOM      8  N   UNL     1       1.993  12.204  18.166  0.00  0.00    +0.000 NA
ATOM      9  C   UNL     1       2.426  13.175  19.046  0.00  0.00    +0.000 A 
ATOM     10  C   UNL     1       3.209  14.324  18.877  0.00  0.00    +0.000 A 
ATOM     11  N   UNL     1       3.758  14.689  17.655  0.00  0.00    +0.000 N 
ATOM     12  N   UNL     1       3.432  15.119  19.950  0.00  0.00    +0.000 NA
ATOM     13  C   UNL     1       2.920  14.742  21.143  0.00  0.00    +0.000 A 
ATOM     14  N   UNL     1       2.183  13.650  21.432  0.00  0.00    +0.000 NA
ATOM     15  C   UNL     1       1.969  12.914  20.328  0.00  0.00    +0.000 A 
ATOM     16  H   UNL     1       3.289  14.254  16.867  0.00  0.00    +0.000 HD
ATOM     17  H   UNL     1       3.947  15.680  17.602  0.00  0.00    +0.000 HD
ENDBRANCH   3   6
BRANCH   5  18
ATOM     18  O   UNL     1      -0.920   9.280  23.187  0.00  0.00    +0.000 OA
ATOM     19  H   UNL     1      -1.422  10.114  23.146  0.00  0.00    +0.000 HD
ENDBRANCH   5  18
BRANCH   1  20
ATOM     20  C   UNL     1       1.691   7.909  20.867  0.00  0.00    +0.000 C 
BRANCH  20  21
ATOM     21  O   UNL     1       1.127   6.590  20.836  0.00  0.00    +0.000 OA
BRANCH  21  22
ATOM     22  P   UNL     1       2.221   5.337  20.359  0.00  0.00    +0.000 P 
ATOM     23  O   UNL     1       2.163   5.810  18.906  0.00  0.00    +0.000 OA
BRANCH  22  24
ATOM     24  N   UNL     1       3.347   4.050  19.868  0.00  0.00    +0.000 NA
ATOM     25  H   UNL     1       2.901   3.214  20.241  0.00  0.00    +0.000 HD
BRANCH  24  26
ATOM     26  C   UNL     1       3.462   3.869  18.397  0.00  0.00    +0.000 C 
BRANCH  26  27
ATOM     27  C   UNL     1       2.909   2.482  18.057  0.00  0.00    +0.000 C 
ATOM     28  O   UNL     1       3.555   1.448  18.024  0.00  0.00    +0.000 OA
BRANCH  27  29
ATOM     29  O   UNL     1       1.562   2.507  17.885  0.00  0.00    +0.000 OA
ATOM     30  H   UNL     1       1.106   2.195  18.698  0.00  0.00    +0.000 HD
ENDBRANCH  27  29
ENDBRANCH  26  27
BRANCH  26  31
ATOM     31  C   UNL     1       4.893   4.091  17.879  0.00  0.00    +0.000 C 
BRANCH  31  32
ATOM     32  C   UNL     1       5.001   4.544  16.421  0.00  0.00    +0.000 C 
BRANCH  32  34
ATOM     33  C   UNL     1       6.618   6.574  17.337  0.00  0.00    +0.000 C 
ATOM     34  S   UNL     1       5.168   6.353  16.282  0.00  0.00    +0.000 S 
ENDBRANCH  32  34
ENDBRANCH  31  32
ENDBRANCH  26  31
ENDBRANCH  24  26
ENDBRANCH  22  24
BRANCH  22  35
ATOM     35  O   UNL     1       1.064   4.185  20.379  0.00  0.00    +0.000 OA
ATOM     36  H   UNL     1       0.493   4.364  21.151  0.00  0.00    +0.000 HD
ENDBRANCH  22  35
ENDBRANCH  21  22
ENDBRANCH  20  21
ENDBRANCH   1  20
TORSDOF 13
ENDMDL
MODEL 9
REMARK VINA RESULT:      -6.4      3.205      4.115
REMARK  Name = 
REMARK  14 active torsions:
REMARK  status: ('A' for Active; 'I' for Inactive)
REMARK    1  A    between atoms: C_1  and  S_2
REMARK    2  A    between atoms: S_2  and  C_3
REMARK    3  A    between atoms: C_3  and  C_4
REMARK    4  A    between atoms: C_4  and  C_5
REMARK    5  A    between atoms: C_5  and  N_6
REMARK    6  A    between atoms: C_5  and  C_28
REMARK    7  A    between atoms: N_6  and  P_7
REMARK    8  A    between atoms: P_7  and  O_9
REMARK    9  A    between atoms: P_7  and  O_10
REMARK   10  A    between atoms: O_10  and  C_11
REMARK   11  A    between atoms: C_11  and  C_12
REMARK   12  A    between atoms: C_14  and  N_15
REMARK   13  A    between atoms: C_26  and  O_27
REMARK   14  A    between atoms: C_28  and  O_30
REMARK                            x       y       z     vdW  Elec       q    Type
REMARK                         _______ _______ _______ _____ _____    ______ ____
ROOT
ATOM      1  C   UNL     1       2.643   6.271  18.349  0.00  0.00    +0.000 C 
ATOM      2  O   UNL     1       3.325   5.525  17.331  0.00  0.00    +0.000 OA
ATOM      3  C   UNL     1       4.512   4.935  17.907  0.00  0.00    +0.000 C 
ATOM      4  C   UNL     1       4.607   5.391  19.358  0.00  0.00    +0.000 C 
ATOM      5  C   UNL     1       3.183   5.767  19.680  0.00  0.00    +0.000 C 
ENDROOT
BRANCH   3   6
ATOM      6  N   UNL     1       5.654   5.259  17.080  0.00  0.00    +0.000 N 
ATOM      7  C   UNL     1       6.654   6.151  17.358  0.00  0.00    +0.000 A 
ATOM      8  N   UNL     1       7.488   6.290  16.350  0.00  0.00    +0.000 NA
ATOM      9  C   UNL     1       7.000   5.447  15.373  0.00  0.00    +0.000 A 
ATOM     10  C   UNL     1       7.429   5.158  14.071  0.00  0.00    +0.000 A 
ATOM     11  N   UNL     1       8.528   5.772  13.486  0.00  0.00    +0.000 N 
ATOM     12  N   UNL     1       6.747   4.233  13.355  0.00  0.00    +0.000 NA
ATOM     13  C   UNL     1       5.659   3.661  13.920  0.00  0.00    +0.000 A 
ATOM     14  N   UNL     1       5.137   3.880  15.143  0.00  0.00    +0.000 NA
ATOM     15  C   UNL     1       5.868   4.784  15.818  0.00  0.00    +0.000 A 
ATOM     16  H   UNL     1       9.160   6.180  14.167  0.00  0.00    +0.000 HD
ATOM     17  H   UNL     1       8.929   5.212  12.747  0.00  0.00    +0.000 HD
ENDBRANCH   3   6
BRANCH   5  18
ATOM     18  O   UNL     1       2.471   4.595  20.095  0.00  0.00    +0.000 OA
ATOM     19  H   UNL     1       2.315   4.025  19.320  0.00  0.00    +0.000 HD
ENDBRANCH   5  18
BRANCH   1  20
ATOM     20  C   UNL     1       2.841   7.769  18.130  0.00  0.00    +0.000 C 
BRANCH  20  21
ATOM     21  O   UNL     1       1.655   8.464  17.720  0.00  0.00    +0.000 OA
BRANCH  21  22
ATOM     22  P   UNL     1       1.266   9.865  18.657  0.00  0.00    +0.000 P 
ATOM     23  O   UNL     1       1.186   9.019  19.929  0.00  0.00    +0.000 OA
BRANCH  22  24
ATOM     24  N   UNL     1       0.868  11.306  19.622  0.00  0.00    +0.000 NA
ATOM     25  H   UNL     1       1.530  11.995  19.272  0.00  0.00    +0.000 HD
BRANCH  24  26
ATOM     26  C   UNL     1      -0.498  11.843  19.381  0.00  0.00    +0.000 C 
BRANCH  26  27
ATOM     27  C   UNL     1      -0.381  12.943  18.322  0.00  0.00    +0.000 C 
ATOM     28  O   UNL     1       0.388  13.889  18.363  0.00  0.00    +0.000 OA
BRANCH  27  29
ATOM     29  O   UNL     1      -1.180  12.696  17.252  0.00  0.00    +0.000 OA
ATOM     30  H   UNL     1      -1.482  13.539  16.847  0.00  0.00    +0.000 HD
ENDBRANCH  27  29
ENDBRANCH  26  27
BRANCH  26  31
ATOM     31  C   UNL     1      -1.187  12.318  20.671  0.00  0.00    +0.000 C 
BRANCH  31  32
ATOM     32  C   UNL     1      -0.946  11.445  21.905  0.00  0.00    +0.000 C 
BRANCH  32  34
ATOM     33  C   UNL     1      -3.005  13.182  22.467  0.00  0.00    +0.000 C 
ATOM     34  S   UNL     1      -2.175  11.761  23.213  0.00  0.00    +0.000 S 
ENDBRANCH  32  34
ENDBRANCH  31  32
ENDBRANCH  26  31
ENDBRANCH  24  26
ENDBRANCH  22  24
BRANCH  22  35
ATOM     35  O   UNL     1      -0.292   9.879  18.170  0.00  0.00    +0.000 OA
ATOM     36  H   UNL     1      -0.667   9.002  18.381  0.00  0.00    +0.000 HD
ENDBRANCH  22  35
ENDBRANCH  21  22
ENDBRANCH  20  21
ENDBRANCH   1  20
TORSDOF 13
ENDMDL
