MODEL 1
REMARK VINA RESULT:      -8.4      0.000      0.000
REMARK  Name = 
REMARK  7 active torsions:
REMARK  status: ('A' for Active; 'I' for Inactive)
REMARK    1  A    between atoms: C_1  and  C_2
REMARK    2  A    between atoms: C_9  and  C_10
REMARK    3  A    between atoms: C_10  and  N_11
REMARK    4  A    between atoms: N_11  and  C_12
REMARK    5  A    between atoms: N_11  and  S_18
REMARK    6  A    between atoms: C_12  and  C_13
REMARK    7  A    between atoms: S_18  and  C_21
REMARK                            x       y       z     vdW  Elec       q    Type
REMARK                         _______ _______ _______ _____ _____    ______ ____
ROOT
ATOM      1  N   UNL     1       1.528   9.040  18.990  0.00  0.00    +0.000 NA
ENDROOT
BRANCH   1   2
ATOM      2  S   UNL     1       1.220  10.737  18.847  0.00  0.00    +0.000 S 
ATOM      3  O   UNL     1       1.401  11.332  20.153  0.00  0.00    +0.000 OA
ATOM      4  O   UNL     1       1.958  11.253  17.715  0.00  0.00    +0.000 OA
BRANCH   2   5
ATOM      5  C   UNL     1      -0.518  10.829  18.453  0.00  0.00    +0.000 A 
ATOM      6  C   UNL     1      -1.324  11.798  19.048  0.00  0.00    +0.000 A 
ATOM      7  C   UNL     1      -2.699  11.779  18.806  0.00  0.00    +0.000 A 
ATOM      8  C   UNL     1      -3.256  10.804  17.975  0.00  0.00    +0.000 A 
ATOM      9  C   UNL     1      -2.436   9.873  17.341  0.00  0.00    +0.000 A 
ATOM     10  C   UNL     1      -1.060   9.905  17.556  0.00  0.00    +0.000 A 
ENDBRANCH   2   5
ENDBRANCH   1   2
BRANCH   1  11
ATOM     11  C   UNL     1       2.440   8.542  17.898  0.00  0.00    +0.000 C 
BRANCH  11  20
ATOM     12  C   UNL     1       1.421   2.403  21.842  0.00  0.00    +0.000 C 
ATOM     13  C   UNL     1       2.176   3.039  20.714  0.00  0.00    +0.000 A 
ATOM     14  C   UNL     1       3.469   2.604  20.380  0.00  0.00    +0.000 A 
ATOM     15  C   UNL     1       4.230   3.294  19.437  0.00  0.00    +0.000 A 
ATOM     16  C   UNL     1       3.704   4.458  18.882  0.00  0.00    +0.000 A 
ATOM     17  C   UNL     1       2.412   4.911  19.187  0.00  0.00    +0.000 A 
ATOM     18  C   UNL     1       1.635   4.171  20.079  0.00  0.00    +0.000 A 
ATOM     19  C   UNL     1       1.965   6.233  18.714  0.00  0.00    +0.000 A 
ATOM     20  C   UNL     1       2.812   7.081  18.083  0.00  0.00    +0.000 A 
ATOM     21  C   UNL     1       4.086   6.571  17.683  0.00  0.00    +0.000 A 
ATOM     22  N   UNL     1       5.081   7.109  17.007  0.00  0.00    +0.000 NA
ATOM     23  N   UNL     1       6.082   6.162  16.986  0.00  0.00    +0.000 NA
ATOM     24  N   UNL     1       5.724   5.070  17.648  0.00  0.00    +0.000 NA
ATOM     25  N   UNL     1       4.471   5.309  18.078  0.00  0.00    +0.000 N 
ENDBRANCH  11  20
ENDBRANCH   1  11
BRANCH   1  26
ATOM     26  C   UNL     1       1.896   8.530  20.354  0.00  0.00    +0.000 C 
BRANCH  26  27
ATOM     27  C   UNL     1       0.907   8.791  21.436  0.00  0.00    +0.000 A 
ATOM     28  C   UNL     1      -0.455   8.630  21.584  0.00  0.00    +0.000 A 
ATOM     29  C   UNL     1      -0.788   9.144  22.862  0.00  0.00    +0.000 A 
ATOM     30  C   UNL     1       0.396   9.527  23.442  0.00  0.00    +0.000 A 
ATOM     31  O   UNL     1       1.430   9.302  22.593  0.00  0.00    +0.000 OA
ENDBRANCH  26  27
ENDBRANCH   1  26
TORSDOF 6
ENDMDL
MODEL 2
REMARK VINA RESULT:      -8.2      3.493      7.504
REMARK  Name = 
REMARK  7 active torsions:
REMARK  status: ('A' for Active; 'I' for Inactive)
REMARK    1  A    between atoms: C_1  and  C_2
REMARK    2  A    between atoms: C_9  and  C_10
REMARK    3  A    between atoms: C_10  and  N_11
REMARK    4  A    between atoms: N_11  and  C_12
REMARK    5  A    between atoms: N_11  and  S_18
REMARK    6  A    between atoms: C_12  and  C_13
REMARK    7  A    between atoms: S_18  and  C_21
REMARK                            x       y       z     vdW  Elec       q    Type
REMARK                         _______ _______ _______ _____ _____    ______ ____
ROOT
ATOM      1  N   UNL     1       3.400   5.229  19.035  0.00  0.00    +0.000 NA
ENDROOT
BRANCH   1   2
ATOM      2  S   UNL     1       3.047   4.025  17.843  0.00  0.00    +0.000 S 
ATOM      3  O   UNL     1       3.345   2.731  18.416  0.00  0.00    +0.000 OA
ATOM      4  O   UNL     1       1.733   4.281  17.294  0.00  0.00    +0.000 OA
BRANCH   2   5
ATOM      5  C   UNL     1       4.245   4.328  16.555  0.00  0.00    +0.000 A 
ATOM      6  C   UNL     1       5.025   3.286  16.060  0.00  0.00    +0.000 A 
ATOM      7  C   UNL     1       6.029   3.570  15.131  0.00  0.00    +0.000 A 
ATOM      8  C   UNL     1       6.241   4.882  14.702  0.00  0.00    +0.000 A 
ATOM      9  C   UNL     1       5.421   5.911  15.161  0.00  0.00    +0.000 A 
ATOM     10  C   UNL     1       4.400   5.629  16.065  0.00  0.00    +0.000 A 
ENDBRANCH   2   5
ENDBRANCH   1   2
BRANCH   1  11
ATOM     11  C   UNL     1       2.198   5.540  19.890  0.00  0.00    +0.000 C 
BRANCH  11  20
ATOM     12  C   UNL     1      -1.559  10.874  23.312  0.00  0.00    +0.000 C 
ATOM     13  C   UNL     1      -0.555  10.555  22.246  0.00  0.00    +0.000 A 
ATOM     14  C   UNL     1      -0.419  11.381  21.118  0.00  0.00    +0.000 A 
ATOM     15  C   UNL     1       0.401  11.004  20.055  0.00  0.00    +0.000 A 
ATOM     16  C   UNL     1       1.031   9.762  20.110  0.00  0.00    +0.000 A 
ATOM     17  C   UNL     1       0.923   8.921  21.227  0.00  0.00    +0.000 A 
ATOM     18  C   UNL     1       0.155   9.343  22.313  0.00  0.00    +0.000 A 
ATOM     19  C   UNL     1       1.459   7.549  21.169  0.00  0.00    +0.000 A 
ATOM     20  C   UNL     1       1.958   7.033  20.021  0.00  0.00    +0.000 A 
ATOM     21  C   UNL     1       2.163   7.929  18.925  0.00  0.00    +0.000 A 
ATOM     22  N   UNL     1       2.683   7.755  17.727  0.00  0.00    +0.000 NA
ATOM     23  N   UNL     1       2.553   8.963  17.077  0.00  0.00    +0.000 NA
ATOM     24  N   UNL     1       1.951   9.860  17.847  0.00  0.00    +0.000 NA
ATOM     25  N   UNL     1       1.713   9.227  19.011  0.00  0.00    +0.000 N 
ENDBRANCH  11  20
ENDBRANCH   1  11
BRANCH   1  26
ATOM     26  C   UNL     1       4.665   5.050  19.825  0.00  0.00    +0.000 C 
BRANCH  26  27
ATOM     27  C   UNL     1       5.931   5.371  19.111  0.00  0.00    +0.000 A 
ATOM     28  C   UNL     1       6.534   6.522  18.646  0.00  0.00    +0.000 A 
ATOM     29  C   UNL     1       7.723   6.119  17.987  0.00  0.00    +0.000 A 
ATOM     30  C   UNL     1       7.806   4.758  18.144  0.00  0.00    +0.000 A 
ATOM     31  O   UNL     1       6.735   4.297  18.837  0.00  0.00    +0.000 OA
ENDBRANCH  26  27
ENDBRANCH   1  26
TORSDOF 6
ENDMDL
MODEL 3
REMARK VINA RESULT:      -8.0      4.602      7.629
REMARK  Name = 
REMARK  7 active torsions:
REMARK  status: ('A' for Active; 'I' for Inactive)
REMARK    1  A    between atoms: C_1  and  C_2
REMARK    2  A    between atoms: C_9  and  C_10
REMARK    3  A    between atoms: C_10  and  N_11
REMARK    4  A    between atoms: N_11  and  C_12
REMARK    5  A    between atoms: N_11  and  S_18
REMARK    6  A    between atoms: C_12  and  C_13
REMARK    7  A    between atoms: S_18  and  C_21
REMARK                            x       y       z     vdW  Elec       q    Type
REMARK                         _______ _______ _______ _____ _____    ______ ____
ROOT
ATOM      1  N   UNL     1       6.634   6.193  16.535  0.00  0.00    +0.000 NA
ENDROOT
BRANCH   1   2
ATOM      2  S   UNL     1       6.833   4.525  16.117  0.00  0.00    +0.000 S 
ATOM      3  O   UNL     1       8.126   4.096  16.606  0.00  0.00    +0.000 OA
ATOM      4  O   UNL     1       5.644   3.800  16.503  0.00  0.00    +0.000 OA
BRANCH   2   5
ATOM      5  C   UNL     1       6.913   4.534  14.334  0.00  0.00    +0.000 A 
ATOM      6  C   UNL     1       6.172   3.616  13.592  0.00  0.00    +0.000 A 
ATOM      7  C   UNL     1       6.336   3.573  12.206  0.00  0.00    +0.000 A 
ATOM      8  C   UNL     1       7.227   4.444  11.574  0.00  0.00    +0.000 A 
ATOM      9  C   UNL     1       7.923   5.395  12.317  0.00  0.00    +0.000 A 
ATOM     10  C   UNL     1       7.742   5.461  13.696  0.00  0.00    +0.000 A 
ENDBRANCH   2   5
ENDBRANCH   1   2
BRANCH   1  11
ATOM     11  C   UNL     1       5.231   6.674  16.265  0.00  0.00    +0.000 C 
BRANCH  11  20
ATOM     12  C   UNL     1       2.146   2.622  21.590  0.00  0.00    +0.000 C 
ATOM     13  C   UNL     1       2.297   3.996  21.009  0.00  0.00    +0.000 A 
ATOM     14  C   UNL     1       1.279   4.952  21.154  0.00  0.00    +0.000 A 
ATOM     15  C   UNL     1       1.350   6.174  20.485  0.00  0.00    +0.000 A 
ATOM     16  C   UNL     1       2.421   6.398  19.623  0.00  0.00    +0.000 A 
ATOM     17  C   UNL     1       3.459   5.467  19.467  0.00  0.00    +0.000 A 
ATOM     18  C   UNL     1       3.409   4.279  20.197  0.00  0.00    +0.000 A 
ATOM     19  C   UNL     1       4.475   5.667  18.419  0.00  0.00    +0.000 A 
ATOM     20  C   UNL     1       4.374   6.674  17.519  0.00  0.00    +0.000 A 
ATOM     21  C   UNL     1       3.379   7.674  17.752  0.00  0.00    +0.000 A 
ATOM     22  N   UNL     1       3.081   8.789  17.116  0.00  0.00    +0.000 NA
ATOM     23  N   UNL     1       1.981   9.312  17.760  0.00  0.00    +0.000 NA
ATOM     24  N   UNL     1       1.594   8.531  18.761  0.00  0.00    +0.000 NA
ATOM     25  N   UNL     1       2.471   7.509  18.774  0.00  0.00    +0.000 N 
ENDBRANCH  11  20
ENDBRANCH   1  11
BRANCH   1  26
ATOM     26  C   UNL     1       7.167   6.625  17.872  0.00  0.00    +0.000 C 
BRANCH  26  27
ATOM     27  C   UNL     1       7.703   8.012  17.943  0.00  0.00    +0.000 A 
ATOM     28  C   UNL     1       7.473   9.191  17.265  0.00  0.00    +0.000 A 
ATOM     29  C   UNL     1       8.380  10.145  17.792  0.00  0.00    +0.000 A 
ATOM     30  C   UNL     1       9.061   9.509  18.800  0.00  0.00    +0.000 A 
ATOM     31  O   UNL     1       8.647   8.222  18.911  0.00  0.00    +0.000 OA
ENDBRANCH  26  27
ENDBRANCH   1  26
TORSDOF 6
ENDMDL
MODEL 4
REMARK VINA RESULT:      -7.9      3.692      8.139
REMARK  Name = 
REMARK  7 active torsions:
REMARK  status: ('A' for Active; 'I' for Inactive)
REMARK    1  A    between atoms: C_1  and  C_2
REMARK    2  A    between atoms: C_9  and  C_10
REMARK    3  A    between atoms: C_10  and  N_11
REMARK    4  A    between atoms: N_11  and  C_12
REMARK    5  A    between atoms: N_11  and  S_18
REMARK    6  A    between atoms: C_12  and  C_13
REMARK    7  A    between atoms: S_18  and  C_21
REMARK                            x       y       z     vdW  Elec       q    Type
REMARK                         _______ _______ _______ _____ _____    ______ ____
ROOT
ATOM      1  N   UNL     1       0.685  11.294  20.598  0.00  0.00    +0.000 NA
ENDROOT
BRANCH   1   2
ATOM      2  S   UNL     1       0.814   9.760  21.388  0.00  0.00    +0.000 S 
ATOM      3  O   UNL     1       1.832   9.871  22.410  0.00  0.00    +0.000 OA
ATOM      4  O   UNL     1      -0.511   9.302  21.742  0.00  0.00    +0.000 OA
BRANCH   2   5
ATOM      5  C   UNL     1       1.446   8.673  20.121  0.00  0.00    +0.000 A 
ATOM      6  C   UNL     1       1.879   7.390  20.446  0.00  0.00    +0.000 A 
ATOM      7  C   UNL     1       2.469   6.600  19.456  0.00  0.00    +0.000 A 
ATOM      8  C   UNL     1       2.617   7.093  18.157  0.00  0.00    +0.000 A 
ATOM      9  C   UNL     1       2.132   8.357  17.827  0.00  0.00    +0.000 A 
ATOM     10  C   UNL     1       1.517   9.137  18.804  0.00  0.00    +0.000 A 
ENDBRANCH   2   5
ENDBRANCH   1   2
BRANCH   1  11
ATOM     11  C   UNL     1      -0.558  12.037  21.016  0.00  0.00    +0.000 C 
BRANCH  11  20
ATOM     12  C   UNL     1      -2.771   9.955  14.304  0.00  0.00    +0.000 C 
ATOM     13  C   UNL     1      -3.205  10.404  15.667  0.00  0.00    +0.000 A 
ATOM     14  C   UNL     1      -4.410  11.102  15.843  0.00  0.00    +0.000 A 
ATOM     15  C   UNL     1      -4.739  11.655  17.081  0.00  0.00    +0.000 A 
ATOM     16  C   UNL     1      -3.816  11.553  18.120  0.00  0.00    +0.000 A 
ATOM     17  C   UNL     1      -2.609  10.852  17.977  0.00  0.00    +0.000 A 
ATOM     18  C   UNL     1      -2.327  10.244  16.754  0.00  0.00    +0.000 A 
ATOM     19  C   UNL     1      -1.591  10.918  19.041  0.00  0.00    +0.000 A 
ATOM     20  C   UNL     1      -1.740  11.734  20.112  0.00  0.00    +0.000 A 
ATOM     21  C   UNL     1      -3.013  12.356  20.300  0.00  0.00    +0.000 A 
ATOM     22  N   UNL     1      -3.485  13.130  21.256  0.00  0.00    +0.000 NA
ATOM     23  N   UNL     1      -4.758  13.483  20.865  0.00  0.00    +0.000 NA
ATOM     24  N   UNL     1      -5.062  12.956  19.686  0.00  0.00    +0.000 NA
ATOM     25  N   UNL     1      -3.981  12.238  19.328  0.00  0.00    +0.000 N 
ENDBRANCH  11  20
ENDBRANCH   1  11
BRANCH   1  26
ATOM     26  C   UNL     1       1.917  12.154  20.581  0.00  0.00    +0.000 C 
BRANCH  26  27
ATOM     27  C   UNL     1       1.763  13.502  19.969  0.00  0.00    +0.000 A 
ATOM     28  C   UNL     1       1.386  13.984  18.733  0.00  0.00    +0.000 A 
ATOM     29  C   UNL     1       1.517  15.395  18.791  0.00  0.00    +0.000 A 
ATOM     30  C   UNL     1       1.903  15.691  20.074  0.00  0.00    +0.000 A 
ATOM     31  O   UNL     1       2.040  14.554  20.800  0.00  0.00    +0.000 OA
ENDBRANCH  26  27
ENDBRANCH   1  26
TORSDOF 6
ENDMDL
MODEL 5
REMARK VINA RESULT:      -7.9      3.185      7.803
REMARK  Name = 
REMARK  7 active torsions:
REMARK  status: ('A' for Active; 'I' for Inactive)
REMARK    1  A    between atoms: C_1  and  C_2
REMARK    2  A    between atoms: C_9  and  C_10
REMARK    3  A    between atoms: C_10  and  N_11
REMARK    4  A    between atoms: N_11  and  C_12
REMARK    5  A    between atoms: N_11  and  S_18
REMARK    6  A    between atoms: C_12  and  C_13
REMARK    7  A    between atoms: S_18  and  C_21
REMARK                            x       y       z     vdW  Elec       q    Type
REMARK                         _______ _______ _______ _____ _____    ______ ____
ROOT
ATOM      1  N   UNL     1       2.500   5.692  19.492  0.00  0.00    +0.000 NA
ENDROOT
BRANCH   1   2
ATOM      2  S   UNL     1       1.615   4.289  19.000  0.00  0.00    +0.000 S 
ATOM      3  O   UNL     1       0.532   4.094  19.940  0.00  0.00    +0.000 OA
ATOM      4  O   UNL     1       1.328   4.388  17.586  0.00  0.00    +0.000 OA
BRANCH   2   5
ATOM      5  C   UNL     1       2.770   2.948  19.230  0.00  0.00    +0.000 A 
ATOM      6  C   UNL     1       3.400   2.764  20.459  0.00  0.00    +0.000 A 
ATOM      7  C   UNL     1       4.378   1.775  20.580  0.00  0.00    +0.000 A 
ATOM      8  C   UNL     1       4.715   0.979  19.483  0.00  0.00    +0.000 A 
ATOM      9  C   UNL     1       4.043   1.133  18.272  0.00  0.00    +0.000 A 
ATOM     10  C   UNL     1       3.045   2.098  18.155  0.00  0.00    +0.000 A 
ENDBRANCH   2   5
ENDBRANCH   1   2
BRANCH   1  11
ATOM     11  C   UNL     1       1.961   6.273  20.775  0.00  0.00    +0.000 C 
BRANCH  11  20
ATOM     12  C   UNL     1      -2.147  11.849  23.286  0.00  0.00    +0.000 C 
ATOM     13  C   UNL     1      -1.148  11.413  22.258  0.00  0.00    +0.000 A 
ATOM     14  C   UNL     1      -1.112  12.016  20.990  0.00  0.00    +0.000 A 
ATOM     15  C   UNL     1      -0.291  11.509  19.984  0.00  0.00    +0.000 A 
ATOM     16  C   UNL     1       0.444  10.354  20.244  0.00  0.00    +0.000 A 
ATOM     17  C   UNL     1       0.437   9.736  21.504  0.00  0.00    +0.000 A 
ATOM     18  C   UNL     1      -0.335  10.296  22.522  0.00  0.00    +0.000 A 
ATOM     19  C   UNL     1       1.087   8.425  21.683  0.00  0.00    +0.000 A 
ATOM     20  C   UNL     1       1.598   7.740  20.632  0.00  0.00    +0.000 A 
ATOM     21  C   UNL     1       1.697   8.423  19.380  0.00  0.00    +0.000 A 
ATOM     22  N   UNL     1       2.198   8.065  18.215  0.00  0.00    +0.000 NA
ATOM     23  N   UNL     1       1.949   9.113  17.356  0.00  0.00    +0.000 NA
ATOM     24  N   UNL     1       1.292  10.090  17.967  0.00  0.00    +0.000 NA
ATOM     25  N   UNL     1       1.140   9.675  19.239  0.00  0.00    +0.000 N 
ENDBRANCH  11  20
ENDBRANCH   1  11
BRANCH   1  26
ATOM     26  C   UNL     1       3.999   5.592  19.465  0.00  0.00    +0.000 C 
BRANCH  26  27
ATOM     27  C   UNL     1       4.617   5.421  18.122  0.00  0.00    +0.000 A 
ATOM     28  C   UNL     1       4.427   5.976  16.873  0.00  0.00    +0.000 A 
ATOM     29  C   UNL     1       5.320   5.313  15.994  0.00  0.00    +0.000 A 
ATOM     30  C   UNL     1       6.044   4.441  16.769  0.00  0.00    +0.000 A 
ATOM     31  O   UNL     1       5.638   4.510  18.062  0.00  0.00    +0.000 OA
ENDBRANCH  26  27
ENDBRANCH   1  26
TORSDOF 6
ENDMDL
MODEL 6
REMARK VINA RESULT:      -7.8      4.124      7.909
REMARK  Name = 
REMARK  7 active torsions:
REMARK  status: ('A' for Active; 'I' for Inactive)
REMARK    1  A    between atoms: C_1  and  C_2
REMARK    2  A    between atoms: C_9  and  C_10
REMARK    3  A    between atoms: C_10  and  N_11
REMARK    4  A    between atoms: N_11  and  C_12
REMARK    5  A    between atoms: N_11  and  S_18
REMARK    6  A    between atoms: C_12  and  C_13
REMARK    7  A    between atoms: S_18  and  C_21
REMARK                            x       y       z     vdW  Elec       q    Type
REMARK                         _______ _______ _______ _____ _____    ______ ____
ROOT
ATOM      1  N   UNL     1       5.201   5.495  16.936  0.00  0.00    +0.000 NA
ENDROOT
BRANCH   1   2
ATOM      2  S   UNL     1       6.868   5.282  16.524  0.00  0.00    +0.000 S 
ATOM      3  O   UNL     1       7.522   6.568  16.640  0.00  0.00    +0.000 OA
ATOM      4  O   UNL     1       7.389   4.144  17.249  0.00  0.00    +0.000 OA
BRANCH   2   5
ATOM      5  C   UNL     1       6.834   4.855  14.791  0.00  0.00    +0.000 A 
ATOM      6  C   UNL     1       6.022   3.818  14.338  0.00  0.00    +0.000 A 
ATOM      7  C   UNL     1       6.096   3.434  12.997  0.00  0.00    +0.000 A 
ATOM      8  C   UNL     1       6.970   4.086  12.124  0.00  0.00    +0.000 A 
ATOM      9  C   UNL     1       7.738   5.158  12.573  0.00  0.00    +0.000 A 
ATOM     10  C   UNL     1       7.647   5.564  13.902  0.00  0.00    +0.000 A 
ENDBRANCH   2   5
ENDBRANCH   1   2
BRANCH   1  11
ATOM     11  C   UNL     1       4.802   6.949  16.924  0.00  0.00    +0.000 C 
BRANCH  11  20
ATOM     12  C   UNL     1      -0.020  11.963  19.351  0.00  0.00    +0.000 C 
ATOM     13  C   UNL     1       0.426  10.534  19.429  0.00  0.00    +0.000 A 
ATOM     14  C   UNL     1       0.229   9.784  20.600  0.00  0.00    +0.000 A 
ATOM     15  C   UNL     1       0.779   8.510  20.730  0.00  0.00    +0.000 A 
ATOM     16  C   UNL     1       1.581   8.024  19.699  0.00  0.00    +0.000 A 
ATOM     17  C   UNL     1       1.787   8.744  18.514  0.00  0.00    +0.000 A 
ATOM     18  C   UNL     1       1.172   9.988  18.369  0.00  0.00    +0.000 A 
ATOM     19  C   UNL     1       2.777   8.273  17.530  0.00  0.00    +0.000 A 
ATOM     20  C   UNL     1       3.583   7.216  17.789  0.00  0.00    +0.000 A 
ATOM     21  C   UNL     1       3.292   6.428  18.946  0.00  0.00    +0.000 A 
ATOM     22  N   UNL     1       3.832   5.324  19.421  0.00  0.00    +0.000 NA
ATOM     23  N   UNL     1       3.179   5.062  20.606  0.00  0.00    +0.000 NA
ATOM     24  N   UNL     1       2.268   5.990  20.869  0.00  0.00    +0.000 NA
ATOM     25  N   UNL     1       2.321   6.844  19.829  0.00  0.00    +0.000 N 
ENDBRANCH  11  20
ENDBRANCH   1  11
BRANCH   1  26
ATOM     26  C   UNL     1       4.213   4.598  16.245  0.00  0.00    +0.000 C 
BRANCH  26  27
ATOM     27  C   UNL     1       3.654   3.489  17.065  0.00  0.00    +0.000 A 
ATOM     28  C   UNL     1       4.181   2.438  17.788  0.00  0.00    +0.000 A 
ATOM     29  C   UNL     1       3.080   1.699  18.289  0.00  0.00    +0.000 A 
ATOM     30  C   UNL     1       1.952   2.377  17.897  0.00  0.00    +0.000 A 
ATOM     31  O   UNL     1       2.289   3.471  17.170  0.00  0.00    +0.000 OA
ENDBRANCH  26  27
ENDBRANCH   1  26
TORSDOF 6
ENDMDL
MODEL 7
REMARK VINA RESULT:      -7.8      4.073      7.861
REMARK  Name = 
REMARK  7 active torsions:
REMARK  status: ('A' for Active; 'I' for Inactive)
REMARK    1  A    between atoms: C_1  and  C_2
REMARK    2  A    between atoms: C_9  and  C_10
REMARK    3  A    between atoms: C_10  and  N_11
REMARK    4  A    between atoms: N_11  and  C_12
REMARK    5  A    between atoms: N_11  and  S_18
REMARK    6  A    between atoms: C_12  and  C_13
REMARK    7  A    between atoms: S_18  and  C_21
REMARK                            x       y       z     vdW  Elec       q    Type
REMARK                         _______ _______ _______ _____ _____    ______ ____
ROOT
ATOM      1  N   UNL     1       5.238   4.892  16.776  0.00  0.00    +0.000 NA
ENDROOT
BRANCH   1   2
ATOM      2  S   UNL     1       6.039   5.921  15.637  0.00  0.00    +0.000 S 
ATOM      3  O   UNL     1       5.112   6.963  15.253  0.00  0.00    +0.000 OA
ATOM      4  O   UNL     1       7.340   6.274  16.159  0.00  0.00    +0.000 OA
BRANCH   2   5
ATOM      5  C   UNL     1       6.288   4.875  14.213  0.00  0.00    +0.000 A 
ATOM      6  C   UNL     1       7.449   4.989  13.450  0.00  0.00    +0.000 A 
ATOM      7  C   UNL     1       7.570   4.236  12.280  0.00  0.00    +0.000 A 
ATOM      8  C   UNL     1       6.541   3.378  11.885  0.00  0.00    +0.000 A 
ATOM      9  C   UNL     1       5.407   3.230  12.680  0.00  0.00    +0.000 A 
ATOM     10  C   UNL     1       5.294   3.956  13.863  0.00  0.00    +0.000 A 
ENDBRANCH   2   5
ENDBRANCH   1   2
BRANCH   1  11
ATOM     11  C   UNL     1       5.274   5.466  18.170  0.00  0.00    +0.000 C 
BRANCH  11  20
ATOM     12  C   UNL     1       1.524  11.807  18.233  0.00  0.00    +0.000 C 
ATOM     13  C   UNL     1       1.516  10.360  18.622  0.00  0.00    +0.000 A 
ATOM     14  C   UNL     1       0.782   9.920  19.735  0.00  0.00    +0.000 A 
ATOM     15  C   UNL     1       0.895   8.606  20.189  0.00  0.00    +0.000 A 
ATOM     16  C   UNL     1       1.801   7.760  19.553  0.00  0.00    +0.000 A 
ATOM     17  C   UNL     1       2.539   8.167  18.431  0.00  0.00    +0.000 A 
ATOM     18  C   UNL     1       2.361   9.462  17.946  0.00  0.00    +0.000 A 
ATOM     19  C   UNL     1       3.607   7.301  17.901  0.00  0.00    +0.000 A 
ATOM     20  C   UNL     1       3.976   6.164  18.536  0.00  0.00    +0.000 A 
ATOM     21  C   UNL     1       3.150   5.705  19.609  0.00  0.00    +0.000 A 
ATOM     22  N   UNL     1       3.200   4.626  20.363  0.00  0.00    +0.000 NA
ATOM     23  N   UNL     1       2.179   4.756  21.280  0.00  0.00    +0.000 NA
ATOM     24  N   UNL     1       1.524   5.897  21.111  0.00  0.00    +0.000 NA
ATOM     25  N   UNL     1       2.115   6.494  20.059  0.00  0.00    +0.000 N 
ENDBRANCH  11  20
ENDBRANCH   1  11
BRANCH   1  26
ATOM     26  C   UNL     1       3.888   4.366  16.381  0.00  0.00    +0.000 C 
BRANCH  26  27
ATOM     27  C   UNL     1       3.332   3.286  17.242  0.00  0.00    +0.000 A 
ATOM     28  C   UNL     1       3.854   2.215  17.938  0.00  0.00    +0.000 A 
ATOM     29  C   UNL     1       2.754   1.529  18.511  0.00  0.00    +0.000 A 
ATOM     30  C   UNL     1       1.636   2.257  18.186  0.00  0.00    +0.000 A 
ATOM     31  O   UNL     1       1.976   3.331  17.431  0.00  0.00    +0.000 OA
ENDBRANCH  26  27
ENDBRANCH   1  26
TORSDOF 6
ENDMDL
MODEL 8
REMARK VINA RESULT:      -7.8      5.832      8.397
REMARK  Name = 
REMARK  7 active torsions:
REMARK  status: ('A' for Active; 'I' for Inactive)
REMARK    1  A    between atoms: C_1  and  C_2
REMARK    2  A    between atoms: C_9  and  C_10
REMARK    3  A    between atoms: C_10  and  N_11
REMARK    4  A    between atoms: N_11  and  C_12
REMARK    5  A    between atoms: N_11  and  S_18
REMARK    6  A    between atoms: C_12  and  C_13
REMARK    7  A    between atoms: S_18  and  C_21
REMARK                            x       y       z     vdW  Elec       q    Type
REMARK                         _______ _______ _______ _____ _____    ______ ____
ROOT
ATOM      1  N   UNL     1      -4.270  14.286  22.041  0.00  0.00    +0.000 NA
ENDROOT
BRANCH   1   2
ATOM      2  S   UNL     1      -3.753  15.872  22.503  0.00  0.00    +0.000 S 
ATOM      3  O   UNL     1      -4.934  16.661  22.778  0.00  0.00    +0.000 OA
ATOM      4  O   UNL     1      -2.719  15.754  23.507  0.00  0.00    +0.000 OA
BRANCH   2   5
ATOM      5  C   UNL     1      -3.003  16.530  21.024  0.00  0.00    +0.000 A 
ATOM      6  C   UNL     1      -1.700  16.177  20.678  0.00  0.00    +0.000 A 
ATOM      7  C   UNL     1      -1.100  16.791  19.575  0.00  0.00    +0.000 A 
ATOM      8  C   UNL     1      -1.801  17.741  18.829  0.00  0.00    +0.000 A 
ATOM      9  C   UNL     1      -3.122  18.048  19.149  0.00  0.00    +0.000 A 
ATOM     10  C   UNL     1      -3.735  17.418  20.229  0.00  0.00    +0.000 A 
ENDBRANCH   2   5
ENDBRANCH   1   2
BRANCH   1  11
ATOM     11  C   UNL     1      -3.381  13.216  22.621  0.00  0.00    +0.000 C 
BRANCH  11  20
ATOM     12  C   UNL     1      -2.940  10.536  15.773  0.00  0.00    +0.000 C 
ATOM     13  C   UNL     1      -2.212  10.761  17.064  0.00  0.00    +0.000 A 
ATOM     14  C   UNL     1      -1.174   9.903  17.461  0.00  0.00    +0.000 A 
ATOM     15  C   UNL     1      -0.602  10.017  18.728  0.00  0.00    +0.000 A 
ATOM     16  C   UNL     1      -1.127  10.959  19.612  0.00  0.00    +0.000 A 
ATOM     17  C   UNL     1      -2.155  11.836  19.239  0.00  0.00    +0.000 A 
ATOM     18  C   UNL     1      -2.669  11.757  17.945  0.00  0.00    +0.000 A 
ATOM     19  C   UNL     1      -2.795  12.692  20.254  0.00  0.00    +0.000 A 
ATOM     20  C   UNL     1      -2.494  12.574  21.570  0.00  0.00    +0.000 A 
ATOM     21  C   UNL     1      -1.374  11.759  21.923  0.00  0.00    +0.000 A 
ATOM     22  N   UNL     1      -0.798  11.503  23.080  0.00  0.00    +0.000 NA
ATOM     23  N   UNL     1       0.200  10.590  22.814  0.00  0.00    +0.000 NA
ATOM     24  N   UNL     1       0.231  10.274  21.526  0.00  0.00    +0.000 NA
ATOM     25  N   UNL     1      -0.743  11.009  20.956  0.00  0.00    +0.000 N 
ENDBRANCH  11  20
ENDBRANCH   1  11
BRANCH   1  26
ATOM     26  C   UNL     1      -5.735  13.985  22.177  0.00  0.00    +0.000 C 
BRANCH  26  27
ATOM     27  C   UNL     1      -6.304  13.045  21.172  0.00  0.00    +0.000 A 
ATOM     28  C   UNL     1      -6.635  13.117  19.835  0.00  0.00    +0.000 A 
ATOM     29  C   UNL     1      -7.202  11.864  19.489  0.00  0.00    +0.000 A 
ATOM     30  C   UNL     1      -7.123  11.084  20.616  0.00  0.00    +0.000 A 
ATOM     31  O   UNL     1      -6.566  11.784  21.636  0.00  0.00    +0.000 OA
ENDBRANCH  26  27
ENDBRANCH   1  26
TORSDOF 6
ENDMDL
MODEL 9
REMARK VINA RESULT:      -7.8      3.335      7.846
REMARK  Name = 
REMARK  7 active torsions:
REMARK  status: ('A' for Active; 'I' for Inactive)
REMARK    1  A    between atoms: C_1  and  C_2
REMARK    2  A    between atoms: C_9  and  C_10
REMARK    3  A    between atoms: C_10  and  N_11
REMARK    4  A    between atoms: N_11  and  C_12
REMARK    5  A    between atoms: N_11  and  S_18
REMARK    6  A    between atoms: C_12  and  C_13
REMARK    7  A    between atoms: S_18  and  C_21
REMARK                            x       y       z     vdW  Elec       q    Type
REMARK                         _______ _______ _______ _____ _____    ______ ____
ROOT
ATOM      1  N   UNL     1       2.957   6.087  17.755  0.00  0.00    +0.000 NA
ENDROOT
BRANCH   1   2
ATOM      2  S   UNL     1       2.425   4.451  17.573  0.00  0.00    +0.000 S 
ATOM      3  O   UNL     1       1.040   4.478  17.153  0.00  0.00    +0.000 OA
ATOM      4  O   UNL     1       3.398   3.726  16.786  0.00  0.00    +0.000 OA
BRANCH   2   5
ATOM      5  C   UNL     1       2.467   3.796  19.232  0.00  0.00    +0.000 A 
ATOM      6  C   UNL     1       3.612   3.159  19.709  0.00  0.00    +0.000 A 
ATOM      7  C   UNL     1       3.581   2.561  20.970  0.00  0.00    +0.000 A 
ATOM      8  C   UNL     1       2.418   2.606  21.744  0.00  0.00    +0.000 A 
ATOM      9  C   UNL     1       1.296   3.291  21.282  0.00  0.00    +0.000 A 
ATOM     10  C   UNL     1       1.331   3.914  20.038  0.00  0.00    +0.000 A 
ENDBRANCH   2   5
ENDBRANCH   1   2
BRANCH   1  11
ATOM     11  C   UNL     1       2.821   6.566  19.178  0.00  0.00    +0.000 C 
BRANCH  11  20
ATOM     12  C   UNL     1       2.709  13.802  17.797  0.00  0.00    +0.000 C 
ATOM     13  C   UNL     1       1.975  12.646  18.406  0.00  0.00    +0.000 A 
ATOM     14  C   UNL     1       1.093  12.842  19.481  0.00  0.00    +0.000 A 
ATOM     15  C   UNL     1       0.530  11.754  20.148  0.00  0.00    +0.000 A 
ATOM     16  C   UNL     1       0.911  10.470  19.763  0.00  0.00    +0.000 A 
ATOM     17  C   UNL     1       1.780  10.243  18.686  0.00  0.00    +0.000 A 
ATOM     18  C   UNL     1       2.280  11.340  17.984  0.00  0.00    +0.000 A 
ATOM     19  C   UNL     1       2.291   8.885  18.428  0.00  0.00    +0.000 A 
ATOM     20  C   UNL     1       2.032   7.859  19.274  0.00  0.00    +0.000 A 
ATOM     21  C   UNL     1       1.063   8.076  20.302  0.00  0.00    +0.000 A 
ATOM     22  N   UNL     1       0.552   7.278  21.218  0.00  0.00    +0.000 NA
ATOM     23  N   UNL     1      -0.291   8.060  21.977  0.00  0.00    +0.000 NA
ATOM     24  N   UNL     1      -0.290   9.318  21.554  0.00  0.00    +0.000 NA
ATOM     25  N   UNL     1       0.544   9.337  20.497  0.00  0.00    +0.000 N 
ENDBRANCH  11  20
ENDBRANCH   1  11
BRANCH   1  26
ATOM     26  C   UNL     1       4.275   6.444  17.128  0.00  0.00    +0.000 C 
BRANCH  26  27
ATOM     27  C   UNL     1       5.481   5.837  17.755  0.00  0.00    +0.000 A 
ATOM     28  C   UNL     1       5.973   5.727  19.039  0.00  0.00    +0.000 A 
ATOM     29  C   UNL     1       7.227   5.073  18.938  0.00  0.00    +0.000 A 
ATOM     30  C   UNL     1       7.394   4.767  17.610  0.00  0.00    +0.000 A 
ATOM     31  O   UNL     1       6.336   5.211  16.887  0.00  0.00    +0.000 OA
ENDBRANCH  26  27
ENDBRANCH   1  26
TORSDOF 6
ENDMDL
