MODEL 1
REMARK VINA RESULT:      -8.4      0.000      0.000
REMARK  Name = 
REMARK  7 active torsions:
REMARK  status: ('A' for Active; 'I' for Inactive)
REMARK    1  A    between atoms: C_1  and  S_2
REMARK    2  A    between atoms: S_2  and  N_5
REMARK    3  A    between atoms: C_8  and  C_9
REMARK    4  A    between atoms: C_12  and  C_13
REMARK    5  A    between atoms: C_17  and  N_18
REMARK    6  A    between atoms: N_18  and  C_19
REMARK    7  A    between atoms: C_19  and  C_20
REMARK                            x       y       z     vdW  Elec       q    Type
REMARK                         _______ _______ _______ _____ _____    ______ ____
ROOT
ATOM      1  C   UNL     1       7.432   7.776  17.661  0.00  0.00    +0.000 A 
ATOM      2  C   UNL     1       6.464   6.962  18.214  0.00  0.00    +0.000 A 
ATOM      3  C   UNL     1       6.266   5.841  17.360  0.00  0.00    +0.000 A 
ATOM      4  C   UNL     1       5.455   4.682  17.381  0.00  0.00    +0.000 A 
ATOM      5  C   UNL     1       5.582   3.831  16.257  0.00  0.00    +0.000 A 
ATOM      6  C   UNL     1       6.471   4.139  15.248  0.00  0.00    +0.000 A 
ATOM      7  N   UNL     1       7.271   5.231  15.203  0.00  0.00    +0.000 NA
ATOM      8  C   UNL     1       7.114   6.030  16.273  0.00  0.00    +0.000 A 
ATOM      9  N   UNL     1       7.805   7.195  16.471  0.00  0.00    +0.000 N 
ATOM     10  H   UNL     1       8.506   7.532  15.830  0.00  0.00    +0.000 HD
ENDROOT
BRANCH   1  14
ATOM     11  N   UNL     1       9.108  11.560  18.892  0.00  0.00    +0.000 NA
ATOM     12  C   UNL     1       8.305  11.470  17.643  0.00  0.00    +0.000 C 
ATOM     13  C   UNL     1       7.800  10.089  17.361  0.00  0.00    +0.000 C 
ATOM     14  C   UNL     1       8.066   8.982  18.079  0.00  0.00    +0.000 C 
ATOM     15  C   UNL     1       8.996   9.102  19.261  0.00  0.00    +0.000 C 
ATOM     16  C   UNL     1       9.900  10.331  19.179  0.00  0.00    +0.000 C 
BRANCH  11  18
ATOM     17  C   UNL     1       8.758  14.246  19.194  0.00  0.00    +0.000 C 
ATOM     18  S   UNL     1      10.016  13.012  18.947  0.00  0.00    +0.000 S 
ATOM     19  O   UNL     1      10.578  13.242  17.633  0.00  0.00    +0.000 OA
ATOM     20  O   UNL     1      10.856  12.968  20.125  0.00  0.00    +0.000 OA
ENDBRANCH  11  18
ENDBRANCH   1  14
BRANCH   4  21
ATOM     21  C   UNL     1       4.552   4.417  18.509  0.00  0.00    +0.000 A 
ATOM     22  C   UNL     1       4.426   3.144  19.059  0.00  0.00    +0.000 A 
ATOM     23  C   UNL     1       3.527   2.950  20.096  0.00  0.00    +0.000 A 
ATOM     24  C   UNL     1       2.762   4.026  20.535  0.00  0.00    +0.000 A 
ATOM     25  C   UNL     1       2.945   5.286  19.972  0.00  0.00    +0.000 A 
ATOM     26  N   UNL     1       3.835   5.480  18.982  0.00  0.00    +0.000 NA
BRANCH  25  27
ATOM     27  N   UNL     1       2.139   6.334  20.440  0.00  0.00    +0.000 N 
ATOM     28  H   UNL     1       1.196   5.982  20.583  0.00  0.00    +0.000 HD
BRANCH  27  29
ATOM     29  C   UNL     1       2.153   7.590  19.683  0.00  0.00    +0.000 C 
BRANCH  29  30
ATOM     30  C   UNL     1       1.266   8.607  20.392  0.00  0.00    +0.000 A 
ATOM     31  C   UNL     1       1.215   8.562  21.801  0.00  0.00    +0.000 A 
ATOM     32  C   UNL     1       0.442   9.463  22.539  0.00  0.00    +0.000 A 
ATOM     33  C   UNL     1      -0.304  10.435  21.883  0.00  0.00    +0.000 A 
ATOM     34  C   UNL     1      -0.255  10.516  20.492  0.00  0.00    +0.000 A 
ATOM     35  C   UNL     1       0.535   9.621  19.749  0.00  0.00    +0.000 A 
ATOM     36 CL   UNL     1       0.580   9.856  18.039  0.00  0.00    +0.000 Cl
ENDBRANCH  29  30
ENDBRANCH  27  29
ENDBRANCH  25  27
ENDBRANCH   4  21
TORSDOF 6
ENDMDL
MODEL 2
REMARK VINA RESULT:      -8.4      1.060      1.233
REMARK  Name = 
REMARK  7 active torsions:
REMARK  status: ('A' for Active; 'I' for Inactive)
REMARK    1  A    between atoms: C_1  and  S_2
REMARK    2  A    between atoms: S_2  and  N_5
REMARK    3  A    between atoms: C_8  and  C_9
REMARK    4  A    between atoms: C_12  and  C_13
REMARK    5  A    between atoms: C_17  and  N_18
REMARK    6  A    between atoms: N_18  and  C_19
REMARK    7  A    between atoms: C_19  and  C_20
REMARK                            x       y       z     vdW  Elec       q    Type
REMARK                         _______ _______ _______ _____ _____    ______ ____
ROOT
ATOM      1  C   UNL     1       7.309   7.774  17.464  0.00  0.00    +0.000 A 
ATOM      2  C   UNL     1       6.126   7.129  17.763  0.00  0.00    +0.000 A 
ATOM      3  C   UNL     1       6.007   5.982  16.930  0.00  0.00    +0.000 A 
ATOM      4  C   UNL     1       5.066   4.937  16.773  0.00  0.00    +0.000 A 
ATOM      5  C   UNL     1       5.366   3.996  15.759  0.00  0.00    +0.000 A 
ATOM      6  C   UNL     1       6.525   4.117  15.018  0.00  0.00    +0.000 A 
ATOM      7  N   UNL     1       7.451   5.095  15.152  0.00  0.00    +0.000 NA
ATOM      8  C   UNL     1       7.130   5.983  16.109  0.00  0.00    +0.000 A 
ATOM      9  N   UNL     1       7.899   7.065  16.443  0.00  0.00    +0.000 N 
ATOM     10  H   UNL     1       8.784   7.265  16.005  0.00  0.00    +0.000 HD
ENDROOT
BRANCH   1  14
ATOM     11  N   UNL     1       9.084  11.392  19.014  0.00  0.00    +0.000 NA
ATOM     12  C   UNL     1       8.409  11.399  17.688  0.00  0.00    +0.000 C 
ATOM     13  C   UNL     1       7.850  10.067  17.299  0.00  0.00    +0.000 C 
ATOM     14  C   UNL     1       7.971   8.919  17.993  0.00  0.00    +0.000 C 
ATOM     15  C   UNL     1       8.781   8.935  19.266  0.00  0.00    +0.000 C 
ATOM     16  C   UNL     1       9.763  10.103  19.326  0.00  0.00    +0.000 C 
BRANCH  11  18
ATOM     17  C   UNL     1      11.538  12.099  19.963  0.00  0.00    +0.000 C 
ATOM     18  S   UNL     1      10.071  12.777  19.220  0.00  0.00    +0.000 S 
ATOM     19  O   UNL     1       9.451  13.629  20.212  0.00  0.00    +0.000 OA
ATOM     20  O   UNL     1      10.412  13.281  17.906  0.00  0.00    +0.000 OA
ENDBRANCH  11  18
ENDBRANCH   1  14
BRANCH   4  21
ATOM     21  C   UNL     1       3.869   4.869  17.621  0.00  0.00    +0.000 A 
ATOM     22  C   UNL     1       2.966   3.812  17.527  0.00  0.00    +0.000 A 
ATOM     23  C   UNL     1       1.835   3.826  18.327  0.00  0.00    +0.000 A 
ATOM     24  C   UNL     1       1.625   4.906  19.178  0.00  0.00    +0.000 A 
ATOM     25  C   UNL     1       2.571   5.925  19.258  0.00  0.00    +0.000 A 
ATOM     26  N   UNL     1       3.681   5.899  18.499  0.00  0.00    +0.000 NA
BRANCH  25  27
ATOM     27  N   UNL     1       2.305   6.998  20.121  0.00  0.00    +0.000 N 
ATOM     28  H   UNL     1       1.684   6.677  20.859  0.00  0.00    +0.000 HD
BRANCH  27  29
ATOM     29  C   UNL     1       1.848   8.254  19.518  0.00  0.00    +0.000 C 
BRANCH  29  30
ATOM     30  C   UNL     1       1.005   9.014  20.535  0.00  0.00    +0.000 A 
ATOM     31  C   UNL     1       1.198   8.716  21.901  0.00  0.00    +0.000 A 
ATOM     32  C   UNL     1       0.484   9.372  22.907  0.00  0.00    +0.000 A 
ATOM     33  C   UNL     1      -0.449  10.346  22.572  0.00  0.00    +0.000 A 
ATOM     34  C   UNL     1      -0.645  10.677  21.231  0.00  0.00    +0.000 A 
ATOM     35  C   UNL     1       0.085  10.029  20.219  0.00  0.00    +0.000 A 
ATOM     36 CL   UNL     1      -0.183  10.567  18.599  0.00  0.00    +0.000 Cl
ENDBRANCH  29  30
ENDBRANCH  27  29
ENDBRANCH  25  27
ENDBRANCH   4  21
TORSDOF 6
ENDMDL
MODEL 3
REMARK VINA RESULT:      -8.3      0.728      1.173
REMARK  Name = 
REMARK  7 active torsions:
REMARK  status: ('A' for Active; 'I' for Inactive)
REMARK    1  A    between atoms: C_1  and  S_2
REMARK    2  A    between atoms: S_2  and  N_5
REMARK    3  A    between atoms: C_8  and  C_9
REMARK    4  A    between atoms: C_12  and  C_13
REMARK    5  A    between atoms: C_17  and  N_18
REMARK    6  A    between atoms: N_18  and  C_19
REMARK    7  A    between atoms: C_19  and  C_20
REMARK                            x       y       z     vdW  Elec       q    Type
REMARK                         _______ _______ _______ _____ _____    ______ ____
ROOT
ATOM      1  C   UNL     1       7.417   7.718  17.578  0.00  0.00    +0.000 A 
ATOM      2  C   UNL     1       6.452   6.920  18.160  0.00  0.00    +0.000 A 
ATOM      3  C   UNL     1       6.245   5.778  17.338  0.00  0.00    +0.000 A 
ATOM      4  C   UNL     1       5.432   4.621  17.396  0.00  0.00    +0.000 A 
ATOM      5  C   UNL     1       5.549   3.740  16.294  0.00  0.00    +0.000 A 
ATOM      6  C   UNL     1       6.431   4.020  15.270  0.00  0.00    +0.000 A 
ATOM      7  N   UNL     1       7.232   5.108  15.190  0.00  0.00    +0.000 NA
ATOM      8  C   UNL     1       7.085   5.936  16.240  0.00  0.00    +0.000 A 
ATOM      9  N   UNL     1       7.780   7.104  16.401  0.00  0.00    +0.000 N 
ATOM     10  H   UNL     1       8.477   7.423  15.747  0.00  0.00    +0.000 HD
ENDROOT
BRANCH   1  14
ATOM     11  N   UNL     1       9.585  11.252  18.783  0.00  0.00    +0.000 NA
ATOM     12  C   UNL     1       9.605  10.035  19.639  0.00  0.00    +0.000 C 
ATOM     13  C   UNL     1       8.803   8.902  19.079  0.00  0.00    +0.000 C 
ATOM     14  C   UNL     1       8.056   8.932  17.959  0.00  0.00    +0.000 C 
ATOM     15  C   UNL     1       7.960  10.232  17.199  0.00  0.00    +0.000 C 
ATOM     16  C   UNL     1       8.296  11.447  18.061  0.00  0.00    +0.000 C 
BRANCH  11  18
ATOM     17  C   UNL     1      11.009  13.543  18.399  0.00  0.00    +0.000 C 
ATOM     18  S   UNL     1      10.125  12.630  19.645  0.00  0.00    +0.000 S 
ATOM     19  O   UNL     1      11.102  12.197  20.621  0.00  0.00    +0.000 OA
ATOM     20  O   UNL     1       8.961  13.396  20.037  0.00  0.00    +0.000 OA
ENDBRANCH  11  18
ENDBRANCH   1  14
BRANCH   4  21
ATOM     21  C   UNL     1       4.537   4.388  18.536  0.00  0.00    +0.000 A 
ATOM     22  C   UNL     1       4.376   3.120  19.090  0.00  0.00    +0.000 A 
ATOM     23  C   UNL     1       3.486   2.958  20.140  0.00  0.00    +0.000 A 
ATOM     24  C   UNL     1       2.765   4.060  20.589  0.00  0.00    +0.000 A 
ATOM     25  C   UNL     1       2.982   5.313  20.022  0.00  0.00    +0.000 A 
ATOM     26  N   UNL     1       3.863   5.475  19.019  0.00  0.00    +0.000 NA
BRANCH  25  27
ATOM     27  N   UNL     1       2.219   6.388  20.501  0.00  0.00    +0.000 N 
ATOM     28  H   UNL     1       1.306   6.040  20.781  0.00  0.00    +0.000 HD
BRANCH  27  29
ATOM     29  C   UNL     1       2.123   7.580  19.652  0.00  0.00    +0.000 C 
BRANCH  29  30
ATOM     30  C   UNL     1       1.291   8.635  20.372  0.00  0.00    +0.000 A 
ATOM     31  C   UNL     1       1.058   8.456  21.753  0.00  0.00    +0.000 A 
ATOM     32  C   UNL     1       0.320   9.378  22.501  0.00  0.00    +0.000 A 
ATOM     33  C   UNL     1      -0.207  10.507  21.885  0.00  0.00    +0.000 A 
ATOM     34  C   UNL     1       0.026  10.720  20.526  0.00  0.00    +0.000 A 
ATOM     35  C   UNL     1       0.781   9.802  19.776  0.00  0.00    +0.000 A 
ATOM     36 CL   UNL     1       1.071  10.199  18.120  0.00  0.00    +0.000 Cl
ENDBRANCH  29  30
ENDBRANCH  27  29
ENDBRANCH  25  27
ENDBRANCH   4  21
TORSDOF 6
ENDMDL
MODEL 4
REMARK VINA RESULT:      -8.2      5.833      9.516
REMARK  Name = 
REMARK  7 active torsions:
REMARK  status: ('A' for Active; 'I' for Inactive)
REMARK    1  A    between atoms: C_1  and  S_2
REMARK    2  A    between atoms: S_2  and  N_5
REMARK    3  A    between atoms: C_8  and  C_9
REMARK    4  A    between atoms: C_12  and  C_13
REMARK    5  A    between atoms: C_17  and  N_18
REMARK    6  A    between atoms: N_18  and  C_19
REMARK    7  A    between atoms: C_19  and  C_20
REMARK                            x       y       z     vdW  Elec       q    Type
REMARK                         _______ _______ _______ _____ _____    ______ ____
ROOT
ATOM      1  C   UNL     1       1.146  10.283  19.201  0.00  0.00    +0.000 A 
ATOM      2  C   UNL     1       0.156  10.796  20.015  0.00  0.00    +0.000 A 
ATOM      3  C   UNL     1       0.042  12.193  19.774  0.00  0.00    +0.000 A 
ATOM      4  C   UNL     1      -0.773  13.243  20.260  0.00  0.00    +0.000 A 
ATOM      5  C   UNL     1      -0.494  14.525  19.728  0.00  0.00    +0.000 A 
ATOM      6  C   UNL     1       0.498  14.685  18.782  0.00  0.00    +0.000 A 
ATOM      7  N   UNL     1       1.286  13.703  18.287  0.00  0.00    +0.000 NA
ATOM      8  C   UNL     1       1.011  12.500  18.823  0.00  0.00    +0.000 A 
ATOM      9  N   UNL     1       1.662  11.343  18.492  0.00  0.00    +0.000 N 
ATOM     10  H   UNL     1       2.391  11.303  17.797  0.00  0.00    +0.000 HD
ENDROOT
BRANCH   1  14
ATOM     11  N   UNL     1       2.485   6.214  18.660  0.00  0.00    +0.000 NA
ATOM     12  C   UNL     1       2.140   6.713  20.018  0.00  0.00    +0.000 C 
ATOM     13  C   UNL     1       1.696   8.142  20.031  0.00  0.00    +0.000 C 
ATOM     14  C   UNL     1       1.657   8.974  18.973  0.00  0.00    +0.000 C 
ATOM     15  C   UNL     1       2.146   8.459  17.641  0.00  0.00    +0.000 C 
ATOM     16  C   UNL     1       3.080   7.258  17.778  0.00  0.00    +0.000 C 
BRANCH  11  18
ATOM     17  C   UNL     1       4.070   4.639  17.100  0.00  0.00    +0.000 C 
ATOM     18  S   UNL     1       3.387   4.761  18.739  0.00  0.00    +0.000 S 
ATOM     19  O   UNL     1       2.458   3.661  18.890  0.00  0.00    +0.000 OA
ATOM     20  O   UNL     1       4.473   4.960  19.676  0.00  0.00    +0.000 OA
ENDBRANCH  11  18
ENDBRANCH   1  14
BRANCH   4  21
ATOM     21  C   UNL     1      -1.825  12.981  21.250  0.00  0.00    +0.000 A 
ATOM     22  C   UNL     1      -1.555  12.314  22.443  0.00  0.00    +0.000 A 
ATOM     23  C   UNL     1      -2.599  12.062  23.319  0.00  0.00    +0.000 A 
ATOM     24  C   UNL     1      -3.885  12.458  22.967  0.00  0.00    +0.000 A 
ATOM     25  C   UNL     1      -4.100  13.147  21.776  0.00  0.00    +0.000 A 
ATOM     26  N   UNL     1      -3.083  13.413  20.937  0.00  0.00    +0.000 NA
BRANCH  25  27
ATOM     27  N   UNL     1      -5.417  13.512  21.461  0.00  0.00    +0.000 N 
ATOM     28  H   UNL     1      -6.039  13.133  22.170  0.00  0.00    +0.000 HD
BRANCH  27  29
ATOM     29  C   UNL     1      -5.890  13.233  20.102  0.00  0.00    +0.000 C 
BRANCH  29  30
ATOM     30  C   UNL     1      -6.454  11.817  20.054  0.00  0.00    +0.000 A 
ATOM     31  C   UNL     1      -7.336  11.429  21.085  0.00  0.00    +0.000 A 
ATOM     32  C   UNL     1      -7.916  10.157  21.117  0.00  0.00    +0.000 A 
ATOM     33  C   UNL     1      -7.626   9.237  20.117  0.00  0.00    +0.000 A 
ATOM     34  C   UNL     1      -6.775   9.602  19.074  0.00  0.00    +0.000 A 
ATOM     35  C   UNL     1      -6.203  10.886  19.031  0.00  0.00    +0.000 A 
ATOM     36 CL   UNL     1      -5.222  11.257  17.659  0.00  0.00    +0.000 Cl
ENDBRANCH  29  30
ENDBRANCH  27  29
ENDBRANCH  25  27
ENDBRANCH   4  21
TORSDOF 6
ENDMDL
MODEL 5
REMARK VINA RESULT:      -8.2      5.117      8.417
REMARK  Name = 
REMARK  7 active torsions:
REMARK  status: ('A' for Active; 'I' for Inactive)
REMARK    1  A    between atoms: C_1  and  S_2
REMARK    2  A    between atoms: S_2  and  N_5
REMARK    3  A    between atoms: C_8  and  C_9
REMARK    4  A    between atoms: C_12  and  C_13
REMARK    5  A    between atoms: C_17  and  N_18
REMARK    6  A    between atoms: N_18  and  C_19
REMARK    7  A    between atoms: C_19  and  C_20
REMARK                            x       y       z     vdW  Elec       q    Type
REMARK                         _______ _______ _______ _____ _____    ______ ____
ROOT
ATOM      1  C   UNL     1       2.333   7.571  19.436  0.00  0.00    +0.000 A 
ATOM      2  C   UNL     1       1.413   8.513  19.019  0.00  0.00    +0.000 A 
ATOM      3  C   UNL     1       0.770   9.063  20.162  0.00  0.00    +0.000 A 
ATOM      4  C   UNL     1      -0.217  10.051  20.393  0.00  0.00    +0.000 A 
ATOM      5  C   UNL     1      -0.575  10.248  21.748  0.00  0.00    +0.000 A 
ATOM      6  C   UNL     1       0.045   9.520  22.744  0.00  0.00    +0.000 A 
ATOM      7  N   UNL     1       1.000   8.579  22.560  0.00  0.00    +0.000 NA
ATOM      8  C   UNL     1       1.306   8.401  21.262  0.00  0.00    +0.000 A 
ATOM      9  N   UNL     1       2.241   7.510  20.808  0.00  0.00    +0.000 N 
ATOM     10  H   UNL     1       2.791   6.930  21.422  0.00  0.00    +0.000 HD
ENDROOT
BRANCH   1  14
ATOM     11  N   UNL     1       5.365   5.312  17.352  0.00  0.00    +0.000 NA
ATOM     12  C   UNL     1       4.833   6.570  16.762  0.00  0.00    +0.000 C 
ATOM     13  C   UNL     1       3.789   7.228  17.610  0.00  0.00    +0.000 C 
ATOM     14  C   UNL     1       3.282   6.751  18.762  0.00  0.00    +0.000 C 
ATOM     15  C   UNL     1       3.758   5.404  19.250  0.00  0.00    +0.000 C 
ATOM     16  C   UNL     1       4.352   4.548  18.133  0.00  0.00    +0.000 C 
BRANCH  11  18
ATOM     17  C   UNL     1       5.846   5.245  14.671  0.00  0.00    +0.000 C 
ATOM     18  S   UNL     1       6.205   4.382  16.185  0.00  0.00    +0.000 S 
ATOM     19  O   UNL     1       5.563   3.087  16.094  0.00  0.00    +0.000 OA
ATOM     20  O   UNL     1       7.622   4.499  16.456  0.00  0.00    +0.000 OA
ENDBRANCH  11  18
ENDBRANCH   1  14
BRANCH   4  21
ATOM     21  C   UNL     1      -0.808  10.798  19.275  0.00  0.00    +0.000 A 
ATOM     22  C   UNL     1      -0.276  12.012  18.846  0.00  0.00    +0.000 A 
ATOM     23  C   UNL     1      -0.904  12.688  17.812  0.00  0.00    +0.000 A 
ATOM     24  C   UNL     1      -2.057  12.146  17.255  0.00  0.00    +0.000 A 
ATOM     25  C   UNL     1      -2.534  10.915  17.699  0.00  0.00    +0.000 A 
ATOM     26  N   UNL     1      -1.911  10.247  18.686  0.00  0.00    +0.000 NA
BRANCH  25  27
ATOM     27  N   UNL     1      -3.709  10.420  17.114  0.00  0.00    +0.000 N 
ATOM     28  H   UNL     1      -3.457   9.742  16.399  0.00  0.00    +0.000 HD
BRANCH  27  29
ATOM     29  C   UNL     1      -4.689  11.398  16.631  0.00  0.00    +0.000 C 
BRANCH  29  30
ATOM     30  C   UNL     1      -5.759  11.596  17.698  0.00  0.00    +0.000 A 
ATOM     31  C   UNL     1      -5.855  10.625  18.718  0.00  0.00    +0.000 A 
ATOM     32  C   UNL     1      -6.794  10.729  19.748  0.00  0.00    +0.000 A 
ATOM     33  C   UNL     1      -7.666  11.810  19.784  0.00  0.00    +0.000 A 
ATOM     34  C   UNL     1      -7.579  12.796  18.801  0.00  0.00    +0.000 A 
ATOM     35  C   UNL     1      -6.624  12.701  17.773  0.00  0.00    +0.000 A 
ATOM     36 CL   UNL     1      -6.553  14.012  16.651  0.00  0.00    +0.000 Cl
ENDBRANCH  29  30
ENDBRANCH  27  29
ENDBRANCH  25  27
ENDBRANCH   4  21
TORSDOF 6
ENDMDL
MODEL 6
REMARK VINA RESULT:      -8.2      4.742      9.238
REMARK  Name = 
REMARK  7 active torsions:
REMARK  status: ('A' for Active; 'I' for Inactive)
REMARK    1  A    between atoms: C_1  and  S_2
REMARK    2  A    between atoms: S_2  and  N_5
REMARK    3  A    between atoms: C_8  and  C_9
REMARK    4  A    between atoms: C_12  and  C_13
REMARK    5  A    between atoms: C_17  and  N_18
REMARK    6  A    between atoms: N_18  and  C_19
REMARK    7  A    between atoms: C_19  and  C_20
REMARK                            x       y       z     vdW  Elec       q    Type
REMARK                         _______ _______ _______ _____ _____    ______ ____
ROOT
ATOM      1  C   UNL     1       1.501   8.507  19.995  0.00  0.00    +0.000 A 
ATOM      2  C   UNL     1       1.310   9.869  19.879  0.00  0.00    +0.000 A 
ATOM      3  C   UNL     1       0.523  10.317  20.977  0.00  0.00    +0.000 A 
ATOM      4  C   UNL     1       0.021  11.562  21.424  0.00  0.00    +0.000 A 
ATOM      5  C   UNL     1      -0.766  11.514  22.600  0.00  0.00    +0.000 A 
ATOM      6  C   UNL     1      -0.978  10.313  23.246  0.00  0.00    +0.000 A 
ATOM      7  N   UNL     1      -0.502   9.108  22.854  0.00  0.00    +0.000 NA
ATOM      8  C   UNL     1       0.225   9.182  21.725  0.00  0.00    +0.000 A 
ATOM      9  N   UNL     1       0.819   8.107  21.121  0.00  0.00    +0.000 N 
ATOM     10  H   UNL     1       0.772   7.172  21.495  0.00  0.00    +0.000 HD
ENDROOT
BRANCH   1  14
ATOM     11  N   UNL     1       3.495   5.409  17.744  0.00  0.00    +0.000 NA
ATOM     12  C   UNL     1       2.931   5.111  19.088  0.00  0.00    +0.000 C 
ATOM     13  C   UNL     1       2.276   6.292  19.732  0.00  0.00    +0.000 C 
ATOM     14  C   UNL     1       2.228   7.544  19.238  0.00  0.00    +0.000 C 
ATOM     15  C   UNL     1       2.933   7.825  17.934  0.00  0.00    +0.000 C 
ATOM     16  C   UNL     1       4.017   6.798  17.615  0.00  0.00    +0.000 C 
BRANCH  11  18
ATOM     17  C   UNL     1       6.085   4.643  18.105  0.00  0.00    +0.000 C 
ATOM     18  S   UNL     1       4.593   4.194  17.245  0.00  0.00    +0.000 S 
ATOM     19  O   UNL     1       4.853   4.373  15.832  0.00  0.00    +0.000 OA
ATOM     20  O   UNL     1       4.125   2.927  17.767  0.00  0.00    +0.000 OA
ENDBRANCH  11  18
ENDBRANCH   1  14
BRANCH   4  21
ATOM     21  C   UNL     1       0.316  12.799  20.689  0.00  0.00    +0.000 A 
ATOM     22  C   UNL     1      -0.329  13.109  19.494  0.00  0.00    +0.000 A 
ATOM     23  C   UNL     1       0.022  14.272  18.827  0.00  0.00    +0.000 A 
ATOM     24  C   UNL     1       1.024  15.077  19.358  0.00  0.00    +0.000 A 
ATOM     25  C   UNL     1       1.620  14.739  20.571  0.00  0.00    +0.000 A 
ATOM     26  N   UNL     1       1.262  13.623  21.230  0.00  0.00    +0.000 NA
BRANCH  25  27
ATOM     27  N   UNL     1       2.636  15.576  21.056  0.00  0.00    +0.000 N 
ATOM     28  H   UNL     1       2.297  16.052  21.887  0.00  0.00    +0.000 HD
BRANCH  27  29
ATOM     29  C   UNL     1       3.264  16.499  20.105  0.00  0.00    +0.000 C 
BRANCH  29  30
ATOM     30  C   UNL     1       4.557  15.877  19.591  0.00  0.00    +0.000 A 
ATOM     31  C   UNL     1       5.586  15.638  20.526  0.00  0.00    +0.000 A 
ATOM     32  C   UNL     1       6.802  15.058  20.152  0.00  0.00    +0.000 A 
ATOM     33  C   UNL     1       7.021  14.702  18.827  0.00  0.00    +0.000 A 
ATOM     34  C   UNL     1       6.013  14.906  17.885  0.00  0.00    +0.000 A 
ATOM     35  C   UNL     1       4.784  15.475  18.263  0.00  0.00    +0.000 A 
ATOM     36 CL   UNL     1       3.579  15.617  17.033  0.00  0.00    +0.000 Cl
ENDBRANCH  29  30
ENDBRANCH  27  29
ENDBRANCH  25  27
ENDBRANCH   4  21
TORSDOF 6
ENDMDL
MODEL 7
REMARK VINA RESULT:      -8.2      5.292      8.656
REMARK  Name = 
REMARK  7 active torsions:
REMARK  status: ('A' for Active; 'I' for Inactive)
REMARK    1  A    between atoms: C_1  and  S_2
REMARK    2  A    between atoms: S_2  and  N_5
REMARK    3  A    between atoms: C_8  and  C_9
REMARK    4  A    between atoms: C_12  and  C_13
REMARK    5  A    between atoms: C_17  and  N_18
REMARK    6  A    between atoms: N_18  and  C_19
REMARK    7  A    between atoms: C_19  and  C_20
REMARK                            x       y       z     vdW  Elec       q    Type
REMARK                         _______ _______ _______ _____ _____    ______ ____
ROOT
ATOM      1  C   UNL     1       2.274   7.672  19.549  0.00  0.00    +0.000 A 
ATOM      2  C   UNL     1       1.644   8.861  19.241  0.00  0.00    +0.000 A 
ATOM      3  C   UNL     1       0.861   9.268  20.357  0.00  0.00    +0.000 A 
ATOM      4  C   UNL     1       0.028  10.370  20.663  0.00  0.00    +0.000 A 
ATOM      5  C   UNL     1      -0.589  10.330  21.937  0.00  0.00    +0.000 A 
ATOM      6  C   UNL     1      -0.341   9.280  22.797  0.00  0.00    +0.000 A 
ATOM      7  N   UNL     1       0.459   8.219  22.542  0.00  0.00    +0.000 NA
ATOM      8  C   UNL     1       1.016   8.274  21.319  0.00  0.00    +0.000 A 
ATOM      9  N   UNL     1       1.866   7.326  20.817  0.00  0.00    +0.000 N 
ATOM     10  H   UNL     1       2.158   6.517  21.342  0.00  0.00    +0.000 HD
ENDROOT
BRANCH   1  14
ATOM     11  N   UNL     1       5.238   5.365  17.420  0.00  0.00    +0.000 NA
ATOM     12  C   UNL     1       4.723   6.636  16.842  0.00  0.00    +0.000 C 
ATOM     13  C   UNL     1       3.702   7.309  17.704  0.00  0.00    +0.000 C 
ATOM     14  C   UNL     1       3.199   6.837  18.860  0.00  0.00    +0.000 C 
ATOM     15  C   UNL     1       3.654   5.479  19.335  0.00  0.00    +0.000 C 
ATOM     16  C   UNL     1       4.219   4.617  18.208  0.00  0.00    +0.000 C 
BRANCH  11  18
ATOM     17  C   UNL     1       5.668   5.289  14.730  0.00  0.00    +0.000 C 
ATOM     18  S   UNL     1       6.046   4.424  16.238  0.00  0.00    +0.000 S 
ATOM     19  O   UNL     1       5.389   3.137  16.161  0.00  0.00    +0.000 OA
ATOM     20  O   UNL     1       7.469   4.527  16.483  0.00  0.00    +0.000 OA
ENDBRANCH  11  18
ENDBRANCH   1  14
BRANCH   4  21
ATOM     21  C   UNL     1      -0.162  11.459  19.698  0.00  0.00    +0.000 A 
ATOM     22  C   UNL     1      -1.231  11.465  18.804  0.00  0.00    +0.000 A 
ATOM     23  C   UNL     1      -1.332  12.502  17.891  0.00  0.00    +0.000 A 
ATOM     24  C   UNL     1      -0.351  13.488  17.878  0.00  0.00    +0.000 A 
ATOM     25  C   UNL     1       0.683  13.454  18.811  0.00  0.00    +0.000 A 
ATOM     26  N   UNL     1       0.768  12.461  19.713  0.00  0.00    +0.000 NA
BRANCH  25  27
ATOM     27  N   UNL     1       1.654  14.464  18.746  0.00  0.00    +0.000 N 
ATOM     28  H   UNL     1       2.563  14.055  18.945  0.00  0.00    +0.000 HD
BRANCH  27  29
ATOM     29  C   UNL     1       1.413  15.685  19.521  0.00  0.00    +0.000 C 
BRANCH  29  30
ATOM     30  C   UNL     1       0.732  16.714  18.626  0.00  0.00    +0.000 A 
ATOM     31  C   UNL     1      -0.599  17.071  18.934  0.00  0.00    +0.000 A 
ATOM     32  C   UNL     1      -1.300  18.016  18.180  0.00  0.00    +0.000 A 
ATOM     33  C   UNL     1      -0.688  18.629  17.094  0.00  0.00    +0.000 A 
ATOM     34  C   UNL     1       0.633  18.312  16.781  0.00  0.00    +0.000 A 
ATOM     35  C   UNL     1       1.346  17.373  17.547  0.00  0.00    +0.000 A 
ATOM     36 CL   UNL     1       2.998  17.108  17.117  0.00  0.00    +0.000 Cl
ENDBRANCH  29  30
ENDBRANCH  27  29
ENDBRANCH  25  27
ENDBRANCH   4  21
TORSDOF 6
ENDMDL
MODEL 8
REMARK VINA RESULT:      -8.1      5.672      9.230
REMARK  Name = 
REMARK  7 active torsions:
REMARK  status: ('A' for Active; 'I' for Inactive)
REMARK    1  A    between atoms: C_1  and  S_2
REMARK    2  A    between atoms: S_2  and  N_5
REMARK    3  A    between atoms: C_8  and  C_9
REMARK    4  A    between atoms: C_12  and  C_13
REMARK    5  A    between atoms: C_17  and  N_18
REMARK    6  A    between atoms: N_18  and  C_19
REMARK    7  A    between atoms: C_19  and  C_20
REMARK                            x       y       z     vdW  Elec       q    Type
REMARK                         _______ _______ _______ _____ _____    ______ ____
ROOT
ATOM      1  C   UNL     1       1.237   9.019  19.292  0.00  0.00    +0.000 A 
ATOM      2  C   UNL     1       0.065   9.505  18.748  0.00  0.00    +0.000 A 
ATOM      3  C   UNL     1      -0.348  10.645  19.493  0.00  0.00    +0.000 A 
ATOM      4  C   UNL     1      -1.419  11.567  19.424  0.00  0.00    +0.000 A 
ATOM      5  C   UNL     1      -1.433  12.559  20.434  0.00  0.00    +0.000 A 
ATOM      6  C   UNL     1      -0.432  12.599  21.383  0.00  0.00    +0.000 A 
ATOM      7  N   UNL     1       0.613  11.742  21.469  0.00  0.00    +0.000 NA
ATOM      8  C   UNL     1       0.589  10.801  20.510  0.00  0.00    +0.000 A 
ATOM      9  N   UNL     1       1.531   9.818  20.374  0.00  0.00    +0.000 N 
ATOM     10  H   UNL     1       2.334   9.739  20.978  0.00  0.00    +0.000 HD
ENDROOT
BRANCH   1  14
ATOM     11  N   UNL     1       3.722   5.617  18.350  0.00  0.00    +0.000 NA
ATOM     12  C   UNL     1       3.116   5.748  19.702  0.00  0.00    +0.000 C 
ATOM     13  C   UNL     1       2.286   6.983  19.863  0.00  0.00    +0.000 C 
ATOM     14  C   UNL     1       2.119   7.955  18.948  0.00  0.00    +0.000 C 
ATOM     15  C   UNL     1       2.864   7.842  17.640  0.00  0.00    +0.000 C 
ATOM     16  C   UNL     1       4.082   6.924  17.732  0.00  0.00    +0.000 C 
BRANCH  11  18
ATOM     17  C   UNL     1       5.738   4.722  16.749  0.00  0.00    +0.000 C 
ATOM     18  S   UNL     1       4.987   4.462  18.341  0.00  0.00    +0.000 S 
ATOM     19  O   UNL     1       4.393   3.142  18.316  0.00  0.00    +0.000 OA
ATOM     20  O   UNL     1       5.939   4.836  19.365  0.00  0.00    +0.000 OA
ENDBRANCH  11  18
ENDBRANCH   1  14
BRANCH   4  21
ATOM     21  C   UNL     1      -2.430  11.467  18.364  0.00  0.00    +0.000 A 
ATOM     22  C   UNL     1      -2.082  11.164  17.050  0.00  0.00    +0.000 A 
ATOM     23  C   UNL     1      -3.078  11.123  16.087  0.00  0.00    +0.000 A 
ATOM     24  C   UNL     1      -4.387  11.412  16.459  0.00  0.00    +0.000 A 
ATOM     25  C   UNL     1      -4.690  11.681  17.791  0.00  0.00    +0.000 A 
ATOM     26  N   UNL     1      -3.727  11.697  18.730  0.00  0.00    +0.000 NA
BRANCH  25  27
ATOM     27  N   UNL     1      -6.022  11.980  18.112  0.00  0.00    +0.000 N 
ATOM     28  H   UNL     1      -6.595  11.847  17.282  0.00  0.00    +0.000 HD
BRANCH  27  29
ATOM     29  C   UNL     1      -6.288  13.263  18.770  0.00  0.00    +0.000 C 
BRANCH  29  30
ATOM     30  C   UNL     1      -6.557  13.015  20.249  0.00  0.00    +0.000 A 
ATOM     31  C   UNL     1      -7.605  12.131  20.586  0.00  0.00    +0.000 A 
ATOM     32  C   UNL     1      -7.915  11.830  21.915  0.00  0.00    +0.000 A 
ATOM     33  C   UNL     1      -7.186  12.409  22.946  0.00  0.00    +0.000 A 
ATOM     34  C   UNL     1      -6.131  13.269  22.642  0.00  0.00    +0.000 A 
ATOM     35  C   UNL     1      -5.807  13.561  21.305  0.00  0.00    +0.000 A 
ATOM     36 CL   UNL     1      -4.438  14.581  21.040  0.00  0.00    +0.000 Cl
ENDBRANCH  29  30
ENDBRANCH  27  29
ENDBRANCH  25  27
ENDBRANCH   4  21
TORSDOF 6
ENDMDL
MODEL 9
REMARK VINA RESULT:      -8.1      4.011      7.717
REMARK  Name = 
REMARK  7 active torsions:
REMARK  status: ('A' for Active; 'I' for Inactive)
REMARK    1  A    between atoms: C_1  and  S_2
REMARK    2  A    between atoms: S_2  and  N_5
REMARK    3  A    between atoms: C_8  and  C_9
REMARK    4  A    between atoms: C_12  and  C_13
REMARK    5  A    between atoms: C_17  and  N_18
REMARK    6  A    between atoms: N_18  and  C_19
REMARK    7  A    between atoms: C_19  and  C_20
REMARK                            x       y       z     vdW  Elec       q    Type
REMARK                         _______ _______ _______ _____ _____    ______ ____
ROOT
ATOM      1  C   UNL     1       2.048   7.246  20.169  0.00  0.00    +0.000 A 
ATOM      2  C   UNL     1       3.158   7.014  19.382  0.00  0.00    +0.000 A 
ATOM      3  C   UNL     1       3.502   5.636  19.470  0.00  0.00    +0.000 A 
ATOM      4  C   UNL     1       4.492   4.800  18.901  0.00  0.00    +0.000 A 
ATOM      5  C   UNL     1       4.460   3.448  19.320  0.00  0.00    +0.000 A 
ATOM      6  C   UNL     1       3.492   3.017  20.204  0.00  0.00    +0.000 A 
ATOM      7  N   UNL     1       2.523   3.785  20.755  0.00  0.00    +0.000 NA
ATOM      8  C   UNL     1       2.590   5.067  20.354  0.00  0.00    +0.000 A 
ATOM      9  N   UNL     1       1.727   6.047  20.763  0.00  0.00    +0.000 N 
ATOM     10  H   UNL     1       0.955   5.873  21.386  0.00  0.00    +0.000 HD
ENDROOT
BRANCH   1  14
ATOM     11  N   UNL     1      -0.495  10.695  20.700  0.00  0.00    +0.000 NA
ATOM     12  C   UNL     1       0.347  10.568  19.480  0.00  0.00    +0.000 C 
ATOM     13  C   UNL     1       1.168   9.317  19.453  0.00  0.00    +0.000 C 
ATOM     14  C   UNL     1       1.244   8.393  20.429  0.00  0.00    +0.000 C 
ATOM     15  C   UNL     1       0.475   8.635  21.704  0.00  0.00    +0.000 C 
ATOM     16  C   UNL     1       0.133  10.108  21.917  0.00  0.00    +0.000 C 
BRANCH  11  18
ATOM     17  C   UNL     1      -1.182  12.445  22.671  0.00  0.00    +0.000 C 
ATOM     18  S   UNL     1      -1.063  12.298  20.902  0.00  0.00    +0.000 S 
ATOM     19  O   UNL     1      -2.413  12.367  20.383  0.00  0.00    +0.000 OA
ATOM     20  O   UNL     1      -0.032  13.199  20.434  0.00  0.00    +0.000 OA
ENDBRANCH  11  18
ENDBRANCH   1  14
BRANCH   4  21
ATOM     21  C   UNL     1       5.471   5.336  17.947  0.00  0.00    +0.000 A 
ATOM     22  C   UNL     1       5.635   4.782  16.680  0.00  0.00    +0.000 A 
ATOM     23  C   UNL     1       6.604   5.308  15.841  0.00  0.00    +0.000 A 
ATOM     24  C   UNL     1       7.398   6.354  16.300  0.00  0.00    +0.000 A 
ATOM     25  C   UNL     1       7.177   6.893  17.565  0.00  0.00    +0.000 A 
ATOM     26  N   UNL     1       6.220   6.398  18.370  0.00  0.00    +0.000 NA
BRANCH  25  27
ATOM     27  N   UNL     1       8.014   7.937  17.986  0.00  0.00    +0.000 N 
ATOM     28  H   UNL     1       8.128   7.878  18.994  0.00  0.00    +0.000 HD
BRANCH  27  29
ATOM     29  C   UNL     1       7.677   9.294  17.544  0.00  0.00    +0.000 C 
BRANCH  29  30
ATOM     30  C   UNL     1       8.510  10.295  18.338  0.00  0.00    +0.000 A 
ATOM     31  C   UNL     1       9.384   9.785  19.322  0.00  0.00    +0.000 A 
ATOM     32  C   UNL     1      10.199  10.623  20.089  0.00  0.00    +0.000 A 
ATOM     33  C   UNL     1      10.158  11.998  19.893  0.00  0.00    +0.000 A 
ATOM     34  C   UNL     1       9.319  12.528  18.912  0.00  0.00    +0.000 A 
ATOM     35  C   UNL     1       8.511  11.685  18.129  0.00  0.00    +0.000 A 
ATOM     36 CL   UNL     1       7.565  12.438  16.895  0.00  0.00    +0.000 Cl
ENDBRANCH  29  30
ENDBRANCH  27  29
ENDBRANCH  25  27
ENDBRANCH   4  21
TORSDOF 6
ENDMDL
