MODEL 1
REMARK VINA RESULT:      -7.5      0.000      0.000
REMARK  Name = 
REMARK  7 active torsions:
REMARK  status: ('A' for Active; 'I' for Inactive)
REMARK    1  A    between atoms: C_1  and  C_2
REMARK    2  A    between atoms: C_4  and  O_5
REMARK    3  A    between atoms: O_5  and  C_6
REMARK    4  A    between atoms: C_6  and  C_7
REMARK    5  A    between atoms: C_6  and  C_8
REMARK    6  A    between atoms: N_10  and  C_11
REMARK    7  A    between atoms: C_15  and  C_16
REMARK                            x       y       z     vdW  Elec       q    Type
REMARK                         _______ _______ _______ _____ _____    ______ ____
ROOT
ATOM      1  C   UNL     1       2.718   4.159  17.582  0.00  0.00    +0.000 C 
ATOM      2  O   UNL     1       1.505   3.992  17.449  0.00  0.00    +0.000 OA
ATOM      3  N   UNL     1       3.343   5.297  18.090  0.00  0.00    +0.000 N 
ATOM      4  H   UNL     1       4.357   5.335  18.034  0.00  0.00    +0.000 HD
ENDROOT
BRANCH   3   5
ATOM      5  C   UNL     1       2.693   6.375  18.693  0.00  0.00    +0.000 A 
ATOM      6  S   UNL     1       2.718   7.887  17.913  0.00  0.00    +0.000 S 
ATOM      7  C   UNL     1       1.781   8.617  19.100  0.00  0.00    +0.000 A 
ATOM      8  C   UNL     1       1.408   7.738  20.097  0.00  0.00    +0.000 A 
ATOM      9  C   UNL     1       1.923   6.397  19.855  0.00  0.00    +0.000 A 
ATOM     10  C   UNL     1       0.608   8.218  21.278  0.00  0.00    +0.000 C 
ATOM     11  C   UNL     1      -0.092   9.558  20.992  0.00  0.00    +0.000 C 
ATOM     12  C   UNL     1       0.858  10.571  20.340  0.00  0.00    +0.000 C 
ATOM     13  C   UNL     1       1.398  10.060  19.002  0.00  0.00    +0.000 C 
BRANCH   9  14
ATOM     14  C   UNL     1       1.655   5.252  20.732  0.00  0.00    +0.000 C 
ATOM     15  N   UNL     1       2.598   4.986  21.689  0.00  0.00    +0.000 N 
ATOM     16  O   UNL     1       0.634   4.578  20.682  0.00  0.00    +0.000 OA
ATOM     17  H   UNL     1       3.182   5.746  22.015  0.00  0.00    +0.000 HD
ATOM     18  H   UNL     1       2.294   4.315  22.385  0.00  0.00    +0.000 HD
ENDBRANCH   9  14
ENDBRANCH   3   5
BRANCH   1  19
ATOM     19  C   UNL     1       3.697   3.115  17.019  0.00  0.00    +0.000 C 
ATOM     20  C   UNL     1       3.530   1.808  17.799  0.00  0.00    +0.000 C 
BRANCH  19  21
ATOM     21  O   UNL     1       5.033   3.601  17.120  0.00  0.00    +0.000 OA
BRANCH  21  25
ATOM     22  C   UNL     1       5.956   3.361  12.227  0.00  0.00    +0.000 C 
ATOM     23  C   UNL     1       6.213   3.938  13.592  0.00  0.00    +0.000 A 
ATOM     24  C   UNL     1       5.453   3.485  14.689  0.00  0.00    +0.000 A 
ATOM     25  C   UNL     1       5.688   3.971  15.978  0.00  0.00    +0.000 A 
ATOM     26  C   UNL     1       6.683   4.930  16.172  0.00  0.00    +0.000 A 
ATOM     27  C   UNL     1       7.435   5.401  15.094  0.00  0.00    +0.000 A 
ATOM     28  C   UNL     1       7.202   4.908  13.810  0.00  0.00    +0.000 A 
ATOM     29 CL   UNL     1       8.171   5.519  12.518  0.00  0.00    +0.000 Cl
ENDBRANCH  21  25
ENDBRANCH  19  21
ENDBRANCH   1  19
TORSDOF 5
ENDMDL
MODEL 2
REMARK VINA RESULT:      -7.3      4.752      7.294
REMARK  Name = 
REMARK  7 active torsions:
REMARK  status: ('A' for Active; 'I' for Inactive)
REMARK    1  A    between atoms: C_1  and  C_2
REMARK    2  A    between atoms: C_4  and  O_5
REMARK    3  A    between atoms: O_5  and  C_6
REMARK    4  A    between atoms: C_6  and  C_7
REMARK    5  A    between atoms: C_6  and  C_8
REMARK    6  A    between atoms: N_10  and  C_11
REMARK    7  A    between atoms: C_15  and  C_16
REMARK                            x       y       z     vdW  Elec       q    Type
REMARK                         _______ _______ _______ _____ _____    ______ ____
ROOT
ATOM      1  C   UNL     1       1.226  10.090  19.548  0.00  0.00    +0.000 C 
ATOM      2  O   UNL     1       1.672  10.199  18.405  0.00  0.00    +0.000 OA
ATOM      3  N   UNL     1       0.955  11.133  20.432  0.00  0.00    +0.000 N 
ATOM      4  H   UNL     1       0.698  10.884  21.383  0.00  0.00    +0.000 HD
ENDROOT
BRANCH   3   5
ATOM      5  C   UNL     1       0.983  12.491  20.111  0.00  0.00    +0.000 A 
ATOM      6  S   UNL     1       2.359  13.403  20.521  0.00  0.00    +0.000 S 
ATOM      7  C   UNL     1       1.741  14.811  19.846  0.00  0.00    +0.000 A 
ATOM      8  C   UNL     1       0.498  14.624  19.276  0.00  0.00    +0.000 A 
ATOM      9  C   UNL     1       0.046  13.245  19.405  0.00  0.00    +0.000 A 
ATOM     10  C   UNL     1      -0.244  15.783  18.665  0.00  0.00    +0.000 C 
ATOM     11  C   UNL     1       0.693  16.960  18.344  0.00  0.00    +0.000 C 
ATOM     12  C   UNL     1       1.634  17.278  19.513  0.00  0.00    +0.000 C 
ATOM     13  C   UNL     1       2.527  16.084  19.862  0.00  0.00    +0.000 C 
BRANCH   9  14
ATOM     14  C   UNL     1      -1.224  12.751  18.862  0.00  0.00    +0.000 C 
ATOM     15  N   UNL     1      -1.259  12.520  17.513  0.00  0.00    +0.000 N 
ATOM     16  O   UNL     1      -2.206  12.494  19.547  0.00  0.00    +0.000 OA
ATOM     17  H   UNL     1      -0.391  12.310  17.037  0.00  0.00    +0.000 HD
ATOM     18  H   UNL     1      -2.080  12.010  17.207  0.00  0.00    +0.000 HD
ENDBRANCH   9  14
ENDBRANCH   3   5
BRANCH   1  19
ATOM     19  C   UNL     1       1.071   8.694  20.174  0.00  0.00    +0.000 C 
ATOM     20  C   UNL     1       0.805   8.850  21.674  0.00  0.00    +0.000 C 
BRANCH  19  21
ATOM     21  O   UNL     1       2.250   7.926  19.943  0.00  0.00    +0.000 OA
BRANCH  21  25
ATOM     22  C   UNL     1       1.351   3.169  21.131  0.00  0.00    +0.000 C 
ATOM     23  C   UNL     1       1.694   4.237  20.130  0.00  0.00    +0.000 A 
ATOM     24  C   UNL     1       1.773   5.580  20.550  0.00  0.00    +0.000 A 
ATOM     25  C   UNL     1       2.125   6.595  19.656  0.00  0.00    +0.000 A 
ATOM     26  C   UNL     1       2.386   6.267  18.324  0.00  0.00    +0.000 A 
ATOM     27  C   UNL     1       2.298   4.945  17.888  0.00  0.00    +0.000 A 
ATOM     28  C   UNL     1       1.954   3.933  18.785  0.00  0.00    +0.000 A 
ATOM     29 CL   UNL     1       1.872   2.314  18.191  0.00  0.00    +0.000 Cl
ENDBRANCH  21  25
ENDBRANCH  19  21
ENDBRANCH   1  19
TORSDOF 5
ENDMDL
MODEL 3
REMARK VINA RESULT:      -7.2      4.313      8.408
REMARK  Name = 
REMARK  7 active torsions:
REMARK  status: ('A' for Active; 'I' for Inactive)
REMARK    1  A    between atoms: C_1  and  C_2
REMARK    2  A    between atoms: C_4  and  O_5
REMARK    3  A    between atoms: O_5  and  C_6
REMARK    4  A    between atoms: C_6  and  C_7
REMARK    5  A    between atoms: C_6  and  C_8
REMARK    6  A    between atoms: N_10  and  C_11
REMARK    7  A    between atoms: C_15  and  C_16
REMARK                            x       y       z     vdW  Elec       q    Type
REMARK                         _______ _______ _______ _____ _____    ______ ____
ROOT
ATOM      1  C   UNL     1       0.738   8.378  21.273  0.00  0.00    +0.000 C 
ATOM      2  O   UNL     1      -0.330   7.766  21.321  0.00  0.00    +0.000 OA
ATOM      3  N   UNL     1       1.954   7.881  20.806  0.00  0.00    +0.000 N 
ATOM      4  H   UNL     1       2.776   8.465  20.934  0.00  0.00    +0.000 HD
ENDROOT
BRANCH   3   5
ATOM      5  C   UNL     1       2.131   6.660  20.154  0.00  0.00    +0.000 A 
ATOM      6  S   UNL     1       1.656   5.231  20.947  0.00  0.00    +0.000 S 
ATOM      7  C   UNL     1       2.093   4.258  19.650  0.00  0.00    +0.000 A 
ATOM      8  C   UNL     1       2.584   4.984  18.584  0.00  0.00    +0.000 A 
ATOM      9  C   UNL     1       2.590   6.414  18.861  0.00  0.00    +0.000 A 
ATOM     10  C   UNL     1       3.079   4.284  17.346  0.00  0.00    +0.000 C 
ATOM     11  C   UNL     1       2.544   2.845  17.247  0.00  0.00    +0.000 C 
ATOM     12  C   UNL     1       2.685   2.089  18.575  0.00  0.00    +0.000 C 
ATOM     13  C   UNL     1       1.907   2.774  19.701  0.00  0.00    +0.000 C 
BRANCH   9  14
ATOM     14  C   UNL     1       3.026   7.428  17.895  0.00  0.00    +0.000 C 
ATOM     15  N   UNL     1       4.249   7.225  17.312  0.00  0.00    +0.000 N 
ATOM     16  O   UNL     1       2.346   8.389  17.560  0.00  0.00    +0.000 OA
ATOM     17  H   UNL     1       4.598   6.278  17.241  0.00  0.00    +0.000 HD
ATOM     18  H   UNL     1       4.432   7.837  16.524  0.00  0.00    +0.000 HD
ENDBRANCH   9  14
ENDBRANCH   3   5
BRANCH   1  19
ATOM     19  C   UNL     1       0.844   9.774  21.909  0.00  0.00    +0.000 C 
ATOM     20  C   UNL     1      -0.343   9.980  22.854  0.00  0.00    +0.000 C 
BRANCH  19  21
ATOM     21  O   UNL     1       0.863  10.770  20.890  0.00  0.00    +0.000 OA
BRANCH  21  25
ATOM     22  C   UNL     1      -1.984   9.811  16.913  0.00  0.00    +0.000 C 
ATOM     23  C   UNL     1      -1.721  10.536  18.204  0.00  0.00    +0.000 A 
ATOM     24  C   UNL     1      -0.544  10.258  18.926  0.00  0.00    +0.000 A 
ATOM     25  C   UNL     1      -0.247  10.938  20.111  0.00  0.00    +0.000 A 
ATOM     26  C   UNL     1      -1.144  11.896  20.587  0.00  0.00    +0.000 A 
ATOM     27  C   UNL     1      -2.322  12.173  19.892  0.00  0.00    +0.000 A 
ATOM     28  C   UNL     1      -2.611  11.498  18.705  0.00  0.00    +0.000 A 
ATOM     29 CL   UNL     1      -4.077  11.891  17.883  0.00  0.00    +0.000 Cl
ENDBRANCH  21  25
ENDBRANCH  19  21
ENDBRANCH   1  19
TORSDOF 5
ENDMDL
MODEL 4
REMARK VINA RESULT:      -7.1      4.816      7.423
REMARK  Name = 
REMARK  7 active torsions:
REMARK  status: ('A' for Active; 'I' for Inactive)
REMARK    1  A    between atoms: C_1  and  C_2
REMARK    2  A    between atoms: C_4  and  O_5
REMARK    3  A    between atoms: O_5  and  C_6
REMARK    4  A    between atoms: C_6  and  C_7
REMARK    5  A    between atoms: C_6  and  C_8
REMARK    6  A    between atoms: N_10  and  C_11
REMARK    7  A    between atoms: C_15  and  C_16
REMARK                            x       y       z     vdW  Elec       q    Type
REMARK                         _______ _______ _______ _____ _____    ______ ____
ROOT
ATOM      1  C   UNL     1       0.891  10.395  20.708  0.00  0.00    +0.000 C 
ATOM      2  O   UNL     1       1.145  10.944  21.781  0.00  0.00    +0.000 OA
ATOM      3  N   UNL     1       0.693  11.030  19.483  0.00  0.00    +0.000 N 
ATOM      4  H   UNL     1       0.378  10.455  18.706  0.00  0.00    +0.000 HD
ENDROOT
BRANCH   3   5
ATOM      5  C   UNL     1       0.917  12.384  19.228  0.00  0.00    +0.000 A 
ATOM      6  S   UNL     1       2.412  12.858  18.569  0.00  0.00    +0.000 S 
ATOM      7  C   UNL     1       1.974  14.478  18.505  0.00  0.00    +0.000 A 
ATOM      8  C   UNL     1       0.687  14.697  18.955  0.00  0.00    +0.000 A 
ATOM      9  C   UNL     1       0.040  13.459  19.365  0.00  0.00    +0.000 A 
ATOM     10  C   UNL     1       0.130  16.094  19.024  0.00  0.00    +0.000 C 
ATOM     11  C   UNL     1       0.923  17.073  18.140  0.00  0.00    +0.000 C 
ATOM     12  C   UNL     1       2.437  16.920  18.333  0.00  0.00    +0.000 C 
ATOM     13  C   UNL     1       2.914  15.511  17.970  0.00  0.00    +0.000 C 
BRANCH   9  14
ATOM     14  C   UNL     1      -1.342  13.386  19.853  0.00  0.00    +0.000 C 
ATOM     15  N   UNL     1      -2.253  12.802  19.013  0.00  0.00    +0.000 N 
ATOM     16  O   UNL     1      -1.695  13.765  20.963  0.00  0.00    +0.000 OA
ATOM     17  H   UNL     1      -1.921  12.128  18.335  0.00  0.00    +0.000 HD
ATOM     18  H   UNL     1      -3.145  12.603  19.454  0.00  0.00    +0.000 HD
ENDBRANCH   9  14
ENDBRANCH   3   5
BRANCH   1  19
ATOM     19  C   UNL     1       0.606   8.885  20.675  0.00  0.00    +0.000 C 
ATOM     20  C   UNL     1      -0.318   8.530  21.844  0.00  0.00    +0.000 C 
BRANCH  19  21
ATOM     21  O   UNL     1       1.830   8.159  20.755  0.00  0.00    +0.000 OA
BRANCH  21  25
ATOM     22  C   UNL     1       1.328   3.205  20.527  0.00  0.00    +0.000 C 
ATOM     23  C   UNL     1       1.706   4.523  19.909  0.00  0.00    +0.000 A 
ATOM     24  C   UNL     1       1.546   5.707  20.655  0.00  0.00    +0.000 A 
ATOM     25  C   UNL     1       1.921   6.947  20.129  0.00  0.00    +0.000 A 
ATOM     26  C   UNL     1       2.446   7.005  18.837  0.00  0.00    +0.000 A 
ATOM     27  C   UNL     1       2.597   5.844  18.079  0.00  0.00    +0.000 A 
ATOM     28  C   UNL     1       2.230   4.607  18.611  0.00  0.00    +0.000 A 
ATOM     29 CL   UNL     1       2.451   3.204  17.630  0.00  0.00    +0.000 Cl
ENDBRANCH  21  25
ENDBRANCH  19  21
ENDBRANCH   1  19
TORSDOF 5
ENDMDL
MODEL 5
REMARK VINA RESULT:      -7.1      4.209      8.604
REMARK  Name = 
REMARK  7 active torsions:
REMARK  status: ('A' for Active; 'I' for Inactive)
REMARK    1  A    between atoms: C_1  and  C_2
REMARK    2  A    between atoms: C_4  and  O_5
REMARK    3  A    between atoms: O_5  and  C_6
REMARK    4  A    between atoms: C_6  and  C_7
REMARK    5  A    between atoms: C_6  and  C_8
REMARK    6  A    between atoms: N_10  and  C_11
REMARK    7  A    between atoms: C_15  and  C_16
REMARK                            x       y       z     vdW  Elec       q    Type
REMARK                         _______ _______ _______ _____ _____    ______ ____
ROOT
ATOM      1  C   UNL     1       0.791   8.297  21.288  0.00  0.00    +0.000 C 
ATOM      2  O   UNL     1      -0.291   7.709  21.297  0.00  0.00    +0.000 OA
ATOM      3  N   UNL     1       2.008   7.781  20.846  0.00  0.00    +0.000 N 
ATOM      4  H   UNL     1       2.839   8.344  21.005  0.00  0.00    +0.000 HD
ENDROOT
BRANCH   3   5
ATOM      5  C   UNL     1       2.176   6.566  20.180  0.00  0.00    +0.000 A 
ATOM      6  S   UNL     1       1.707   5.130  20.962  0.00  0.00    +0.000 S 
ATOM      7  C   UNL     1       2.129   4.169  19.651  0.00  0.00    +0.000 A 
ATOM      8  C   UNL     1       2.611   4.906  18.587  0.00  0.00    +0.000 A 
ATOM      9  C   UNL     1       2.621   6.333  18.879  0.00  0.00    +0.000 A 
ATOM     10  C   UNL     1       3.092   4.218  17.337  0.00  0.00    +0.000 C 
ATOM     11  C   UNL     1       2.553   2.782  17.228  0.00  0.00    +0.000 C 
ATOM     12  C   UNL     1       2.706   2.012  18.546  0.00  0.00    +0.000 C 
ATOM     13  C   UNL     1       1.940   2.686  19.688  0.00  0.00    +0.000 C 
BRANCH   9  14
ATOM     14  C   UNL     1       3.051   7.357  17.920  0.00  0.00    +0.000 C 
ATOM     15  N   UNL     1       4.276   7.169  17.338  0.00  0.00    +0.000 N 
ATOM     16  O   UNL     1       2.362   8.313  17.588  0.00  0.00    +0.000 OA
ATOM     17  H   UNL     1       4.635   6.225  17.263  0.00  0.00    +0.000 HD
ATOM     18  H   UNL     1       4.455   7.786  16.554  0.00  0.00    +0.000 HD
ENDBRANCH   9  14
ENDBRANCH   3   5
BRANCH   1  19
ATOM     19  C   UNL     1       0.910   9.681  21.949  0.00  0.00    +0.000 C 
ATOM     20  C   UNL     1      -0.294   9.894  22.871  0.00  0.00    +0.000 C 
BRANCH  19  21
ATOM     21  O   UNL     1       0.970  10.693  20.947  0.00  0.00    +0.000 OA
BRANCH  21  25
ATOM     22  C   UNL     1      -3.456  12.865  20.218  0.00  0.00    +0.000 C 
ATOM     23  C   UNL     1      -2.323  11.991  19.757  0.00  0.00    +0.000 A 
ATOM     24  C   UNL     1      -1.208  11.802  20.597  0.00  0.00    +0.000 A 
ATOM     25  C   UNL     1      -0.153  10.967  20.217  0.00  0.00    +0.000 A 
ATOM     26  C   UNL     1      -0.206  10.326  18.979  0.00  0.00    +0.000 A 
ATOM     27  C   UNL     1      -1.296  10.513  18.128  0.00  0.00    +0.000 A 
ATOM     28  C   UNL     1      -2.351  11.341  18.514  0.00  0.00    +0.000 A 
ATOM     29 CL   UNL     1      -3.678  11.526  17.424  0.00  0.00    +0.000 Cl
ENDBRANCH  21  25
ENDBRANCH  19  21
ENDBRANCH   1  19
TORSDOF 5
ENDMDL
MODEL 6
REMARK VINA RESULT:      -7.1      1.524      2.290
REMARK  Name = 
REMARK  7 active torsions:
REMARK  status: ('A' for Active; 'I' for Inactive)
REMARK    1  A    between atoms: C_1  and  C_2
REMARK    2  A    between atoms: C_4  and  O_5
REMARK    3  A    between atoms: O_5  and  C_6
REMARK    4  A    between atoms: C_6  and  C_7
REMARK    5  A    between atoms: C_6  and  C_8
REMARK    6  A    between atoms: N_10  and  C_11
REMARK    7  A    between atoms: C_15  and  C_16
REMARK                            x       y       z     vdW  Elec       q    Type
REMARK                         _______ _______ _______ _____ _____    ______ ____
ROOT
ATOM      1  C   UNL     1       2.427   4.308  17.925  0.00  0.00    +0.000 C 
ATOM      2  O   UNL     1       1.314   4.395  17.406  0.00  0.00    +0.000 OA
ATOM      3  N   UNL     1       3.003   5.224  18.804  0.00  0.00    +0.000 N 
ATOM      4  H   UNL     1       3.975   5.076  19.061  0.00  0.00    +0.000 HD
ENDROOT
BRANCH   3   5
ATOM      5  C   UNL     1       2.346   6.313  19.380  0.00  0.00    +0.000 A 
ATOM      6  S   UNL     1       1.575   6.103  20.882  0.00  0.00    +0.000 S 
ATOM      7  C   UNL     1       1.085   7.708  20.958  0.00  0.00    +0.000 A 
ATOM      8  C   UNL     1       1.509   8.443  19.869  0.00  0.00    +0.000 A 
ATOM      9  C   UNL     1       2.280   7.633  18.936  0.00  0.00    +0.000 A 
ATOM     10  C   UNL     1       1.124   9.892  19.730  0.00  0.00    +0.000 C 
ATOM     11  C   UNL     1       0.677  10.499  21.071  0.00  0.00    +0.000 C 
ATOM     12  C   UNL     1      -0.309   9.588  21.812  0.00  0.00    +0.000 C 
ATOM     13  C   UNL     1       0.309   8.223  22.129  0.00  0.00    +0.000 C 
BRANCH   9  14
ATOM     14  C   UNL     1       2.884   8.159  17.708  0.00  0.00    +0.000 C 
ATOM     15  N   UNL     1       4.007   7.517  17.260  0.00  0.00    +0.000 N 
ATOM     16  O   UNL     1       2.415   9.085  17.058  0.00  0.00    +0.000 OA
ATOM     17  H   UNL     1       4.140   6.545  17.511  0.00  0.00    +0.000 HD
ATOM     18  H   UNL     1       4.285   7.785  16.322  0.00  0.00    +0.000 HD
ENDBRANCH   9  14
ENDBRANCH   3   5
BRANCH   1  19
ATOM     19  C   UNL     1       3.384   3.185  17.489  0.00  0.00    +0.000 C 
ATOM     20  C   UNL     1       3.116   1.946  18.348  0.00  0.00    +0.000 C 
BRANCH  19  21
ATOM     21  O   UNL     1       4.735   3.618  17.628  0.00  0.00    +0.000 OA
BRANCH  21  25
ATOM     22  C   UNL     1       5.669   3.524  12.733  0.00  0.00    +0.000 C 
ATOM     23  C   UNL     1       5.969   4.008  14.125  0.00  0.00    +0.000 A 
ATOM     24  C   UNL     1       5.161   3.578  15.196  0.00  0.00    +0.000 A 
ATOM     25  C   UNL     1       5.431   3.977  16.508  0.00  0.00    +0.000 A 
ATOM     26  C   UNL     1       6.511   4.828  16.750  0.00  0.00    +0.000 A 
ATOM     27  C   UNL     1       7.312   5.275  15.699  0.00  0.00    +0.000 A 
ATOM     28  C   UNL     1       7.044   4.868  14.392  0.00  0.00    +0.000 A 
ATOM     29 CL   UNL     1       8.077   5.444  13.134  0.00  0.00    +0.000 Cl
ENDBRANCH  21  25
ENDBRANCH  19  21
ENDBRANCH   1  19
TORSDOF 5
ENDMDL
MODEL 7
REMARK VINA RESULT:      -7.0      4.283      9.235
REMARK  Name = 
REMARK  7 active torsions:
REMARK  status: ('A' for Active; 'I' for Inactive)
REMARK    1  A    between atoms: C_1  and  C_2
REMARK    2  A    between atoms: C_4  and  O_5
REMARK    3  A    between atoms: O_5  and  C_6
REMARK    4  A    between atoms: C_6  and  C_7
REMARK    5  A    between atoms: C_6  and  C_8
REMARK    6  A    between atoms: N_10  and  C_11
REMARK    7  A    between atoms: C_15  and  C_16
REMARK                            x       y       z     vdW  Elec       q    Type
REMARK                         _______ _______ _______ _____ _____    ______ ____
ROOT
ATOM      1  C   UNL     1       1.366   8.450  20.761  0.00  0.00    +0.000 C 
ATOM      2  O   UNL     1       1.350   9.049  19.685  0.00  0.00    +0.000 OA
ATOM      3  N   UNL     1       1.749   7.125  20.963  0.00  0.00    +0.000 N 
ATOM      4  H   UNL     1       1.601   6.733  21.889  0.00  0.00    +0.000 HD
ENDROOT
BRANCH   3   5
ATOM      5  C   UNL     1       2.342   6.300  20.006  0.00  0.00    +0.000 A 
ATOM      6  S   UNL     1       3.269   7.014  18.771  0.00  0.00    +0.000 S 
ATOM      7  C   UNL     1       3.662   5.532  18.084  0.00  0.00    +0.000 A 
ATOM      8  C   UNL     1       3.126   4.467  18.779  0.00  0.00    +0.000 A 
ATOM      9  C   UNL     1       2.359   4.908  19.937  0.00  0.00    +0.000 A 
ATOM     10  C   UNL     1       3.323   3.057  18.288  0.00  0.00    +0.000 C 
ATOM     11  C   UNL     1       4.502   2.951  17.306  0.00  0.00    +0.000 C 
ATOM     12  C   UNL     1       4.463   4.057  16.243  0.00  0.00    +0.000 C 
ATOM     13  C   UNL     1       4.536   5.451  16.873  0.00  0.00    +0.000 C 
BRANCH   9  14
ATOM     14  C   UNL     1       1.705   3.991  20.877  0.00  0.00    +0.000 C 
ATOM     15  N   UNL     1       0.519   3.444  20.466  0.00  0.00    +0.000 N 
ATOM     16  O   UNL     1       2.183   3.663  21.955  0.00  0.00    +0.000 OA
ATOM     17  H   UNL     1       0.347   3.355  19.472  0.00  0.00    +0.000 HD
ATOM     18  H   UNL     1       0.196   2.683  21.053  0.00  0.00    +0.000 HD
ENDBRANCH   9  14
ENDBRANCH   3   5
BRANCH   1  19
ATOM     19  C   UNL     1       0.781   9.122  22.015  0.00  0.00    +0.000 C 
ATOM     20  C   UNL     1      -0.639   8.596  22.242  0.00  0.00    +0.000 C 
BRANCH  19  21
ATOM     21  O   UNL     1       0.779  10.538  21.849  0.00  0.00    +0.000 OA
BRANCH  21  25
ATOM     22  C   UNL     1      -3.347  12.458  23.882  0.00  0.00    +0.000 C 
ATOM     23  C   UNL     1      -2.469  12.176  22.694  0.00  0.00    +0.000 A 
ATOM     24  C   UNL     1      -1.244  11.506  22.882  0.00  0.00    +0.000 A 
ATOM     25  C   UNL     1      -0.419  11.195  21.798  0.00  0.00    +0.000 A 
ATOM     26  C   UNL     1      -0.815  11.570  20.513  0.00  0.00    +0.000 A 
ATOM     27  C   UNL     1      -2.018  12.248  20.310  0.00  0.00    +0.000 A 
ATOM     28  C   UNL     1      -2.843  12.550  21.395  0.00  0.00    +0.000 A 
ATOM     29 CL   UNL     1      -4.325  13.379  21.081  0.00  0.00    +0.000 Cl
ENDBRANCH  21  25
ENDBRANCH  19  21
ENDBRANCH   1  19
TORSDOF 5
ENDMDL
MODEL 8
REMARK VINA RESULT:      -6.9      4.142      6.396
REMARK  Name = 
REMARK  7 active torsions:
REMARK  status: ('A' for Active; 'I' for Inactive)
REMARK    1  A    between atoms: C_1  and  C_2
REMARK    2  A    between atoms: C_4  and  O_5
REMARK    3  A    between atoms: O_5  and  C_6
REMARK    4  A    between atoms: C_6  and  C_7
REMARK    5  A    between atoms: C_6  and  C_8
REMARK    6  A    between atoms: N_10  and  C_11
REMARK    7  A    between atoms: C_15  and  C_16
REMARK                            x       y       z     vdW  Elec       q    Type
REMARK                         _______ _______ _______ _____ _____    ______ ____
ROOT
ATOM      1  C   UNL     1       1.308   8.679  19.840  0.00  0.00    +0.000 C 
ATOM      2  O   UNL     1       0.982   8.119  20.887  0.00  0.00    +0.000 OA
ATOM      3  N   UNL     1       0.770   9.860  19.333  0.00  0.00    +0.000 N 
ATOM      4  H   UNL     1       1.059  10.142  18.400  0.00  0.00    +0.000 HD
ENDROOT
BRANCH   3   5
ATOM      5  C   UNL     1      -0.113  10.703  20.011  0.00  0.00    +0.000 A 
ATOM      6  S   UNL     1       0.279  11.200  21.590  0.00  0.00    +0.000 S 
ATOM      7  C   UNL     1      -1.103  12.144  21.735  0.00  0.00    +0.000 A 
ATOM      8  C   UNL     1      -1.878  12.125  20.593  0.00  0.00    +0.000 A 
ATOM      9  C   UNL     1      -1.290  11.293  19.553  0.00  0.00    +0.000 A 
ATOM     10  C   UNL     1      -3.187  12.869  20.546  0.00  0.00    +0.000 C 
ATOM     11  C   UNL     1      -3.275  13.945  21.642  0.00  0.00    +0.000 C 
ATOM     12  C   UNL     1      -2.830  13.408  23.009  0.00  0.00    +0.000 C 
ATOM     13  C   UNL     1      -1.378  12.923  22.981  0.00  0.00    +0.000 C 
BRANCH   9  14
ATOM     14  C   UNL     1      -1.880  11.116  18.221  0.00  0.00    +0.000 C 
ATOM     15  N   UNL     1      -1.637  12.111  17.312  0.00  0.00    +0.000 N 
ATOM     16  O   UNL     1      -2.514  10.126  17.882  0.00  0.00    +0.000 OA
ATOM     17  H   UNL     1      -0.803  12.674  17.424  0.00  0.00    +0.000 HD
ATOM     18  H   UNL     1      -1.898  11.869  16.363  0.00  0.00    +0.000 HD
ENDBRANCH   9  14
ENDBRANCH   3   5
BRANCH   1  19
ATOM     19  C   UNL     1       2.290   7.985  18.880  0.00  0.00    +0.000 C 
ATOM     20  C   UNL     1       2.507   8.884  17.660  0.00  0.00    +0.000 C 
BRANCH  19  21
ATOM     21  O   UNL     1       1.771   6.715  18.492  0.00  0.00    +0.000 OA
BRANCH  21  25
ATOM     22  C   UNL     1       2.041   2.862  21.642  0.00  0.00    +0.000 C 
ATOM     23  C   UNL     1       2.572   3.658  20.483  0.00  0.00    +0.000 A 
ATOM     24  C   UNL     1       1.869   4.798  20.046  0.00  0.00    +0.000 A 
ATOM     25  C   UNL     1       2.351   5.584  18.995  0.00  0.00    +0.000 A 
ATOM     26  C   UNL     1       3.541   5.218  18.364  0.00  0.00    +0.000 A 
ATOM     27  C   UNL     1       4.243   4.084  18.774  0.00  0.00    +0.000 A 
ATOM     28  C   UNL     1       3.762   3.307  19.829  0.00  0.00    +0.000 A 
ATOM     29 CL   UNL     1       4.680   1.922  20.300  0.00  0.00    +0.000 Cl
ENDBRANCH  21  25
ENDBRANCH  19  21
ENDBRANCH   1  19
TORSDOF 5
ENDMDL
MODEL 9
REMARK VINA RESULT:      -6.9      3.142      7.663
REMARK  Name = 
REMARK  7 active torsions:
REMARK  status: ('A' for Active; 'I' for Inactive)
REMARK    1  A    between atoms: C_1  and  C_2
REMARK    2  A    between atoms: C_4  and  O_5
REMARK    3  A    between atoms: O_5  and  C_6
REMARK    4  A    between atoms: C_6  and  C_7
REMARK    5  A    between atoms: C_6  and  C_8
REMARK    6  A    between atoms: N_10  and  C_11
REMARK    7  A    between atoms: C_15  and  C_16
REMARK                            x       y       z     vdW  Elec       q    Type
REMARK                         _______ _______ _______ _____ _____    ______ ____
ROOT
ATOM      1  C   UNL     1       4.725   4.204  18.706  0.00  0.00    +0.000 C 
ATOM      2  O   UNL     1       5.869   3.860  19.004  0.00  0.00    +0.000 OA
ATOM      3  N   UNL     1       4.292   4.637  17.453  0.00  0.00    +0.000 N 
ATOM      4  H   UNL     1       3.344   4.996  17.386  0.00  0.00    +0.000 HD
ENDROOT
BRANCH   3   5
ATOM      5  C   UNL     1       5.046   4.593  16.279  0.00  0.00    +0.000 A 
ATOM      6  S   UNL     1       4.498   3.628  14.990  0.00  0.00    +0.000 S 
ATOM      7  C   UNL     1       5.777   4.069  13.995  0.00  0.00    +0.000 A 
ATOM      8  C   UNL     1       6.632   4.969  14.600  0.00  0.00    +0.000 A 
ATOM      9  C   UNL     1       6.196   5.307  15.948  0.00  0.00    +0.000 A 
ATOM     10  C   UNL     1       7.870   5.445  13.886  0.00  0.00    +0.000 C 
ATOM     11  C   UNL     1       7.783   5.211  12.368  0.00  0.00    +0.000 C 
ATOM     12  C   UNL     1       7.290   3.796  12.034  0.00  0.00    +0.000 C 
ATOM     13  C   UNL     1       5.892   3.535  12.603  0.00  0.00    +0.000 C 
BRANCH   9  14
ATOM     14  C   UNL     1       6.894   6.265  16.812  0.00  0.00    +0.000 C 
ATOM     15  N   UNL     1       7.789   5.738  17.705  0.00  0.00    +0.000 N 
ATOM     16  O   UNL     1       6.754   7.479  16.738  0.00  0.00    +0.000 OA
ATOM     17  H   UNL     1       8.219   4.848  17.488  0.00  0.00    +0.000 HD
ATOM     18  H   UNL     1       8.380   6.433  18.148  0.00  0.00    +0.000 HD
ENDBRANCH   9  14
ENDBRANCH   3   5
BRANCH   1  19
ATOM     19  C   UNL     1       3.658   4.332  19.806  0.00  0.00    +0.000 C 
ATOM     20  C   UNL     1       3.440   2.959  20.448  0.00  0.00    +0.000 C 
BRANCH  19  21
ATOM     21  O   UNL     1       2.445   4.833  19.248  0.00  0.00    +0.000 OA
BRANCH  21  25
ATOM     22  C   UNL     1       2.028   9.602  17.863  0.00  0.00    +0.000 C 
ATOM     23  C   UNL     1       1.860   8.502  18.875  0.00  0.00    +0.000 A 
ATOM     24  C   UNL     1       2.222   7.185  18.530  0.00  0.00    +0.000 A 
ATOM     25  C   UNL     1       2.114   6.143  19.456  0.00  0.00    +0.000 A 
ATOM     26  C   UNL     1       1.627   6.418  20.734  0.00  0.00    +0.000 A 
ATOM     27  C   UNL     1       1.250   7.714  21.087  0.00  0.00    +0.000 A 
ATOM     28  C   UNL     1       1.366   8.753  20.163  0.00  0.00    +0.000 A 
ATOM     29 CL   UNL     1       0.896  10.338  20.661  0.00  0.00    +0.000 Cl
ENDBRANCH  21  25
ENDBRANCH  19  21
ENDBRANCH   1  19
TORSDOF 5
ENDMDL
