MODEL 1
REMARK VINA RESULT:      -8.0      0.000      0.000
REMARK  Name = 
REMARK  7 active torsions:
REMARK  status: ('A' for Active; 'I' for Inactive)
REMARK    1  A    between atoms: C_1  and  C_2
REMARK    2  A    between atoms: N_10  and  C_11
REMARK    3  A    between atoms: C_11  and  C_12
REMARK    4  A    between atoms: C_16  and  C_17
REMARK    5  A    between atoms: C_17  and  O_19
REMARK    6  A    between atoms: O_19  and  C_20
REMARK    7  A    between atoms: C_20  and  C_21
REMARK                            x       y       z     vdW  Elec       q    Type
REMARK                         _______ _______ _______ _____ _____    ______ ____
ROOT
ATOM      1  C   UNL     1       5.689   5.316  17.511  0.00  0.00    +0.000 A 
ATOM      2  O   UNL     1       5.928   5.338  18.861  0.00  0.00    +0.000 OA
ATOM      3  C   UNL     1       7.243   5.076  19.048  0.00  0.00    +0.000 A 
ATOM      4  C   UNL     1       7.870   4.881  17.845  0.00  0.00    +0.000 A 
ATOM      5  C   UNL     1       6.869   5.020  16.834  0.00  0.00    +0.000 A 
ENDROOT
BRANCH   5   6
ATOM      6  C   UNL     1       7.025   4.857  15.401  0.00  0.00    +0.000 C 
ATOM      7  O   UNL     1       7.659   5.626  14.689  0.00  0.00    +0.000 OA
BRANCH   6   8
ATOM      8  O   UNL     1       6.361   3.767  14.919  0.00  0.00    +0.000 OA
BRANCH   8   9
ATOM      9  C   UNL     1       5.612   4.003  13.725  0.00  0.00    +0.000 C 
BRANCH   9  10
ATOM     10  C   UNL     1       6.337   3.494  12.484  0.00  0.00    +0.000 C 
ATOM     11  N   UNL     1       6.006   2.234  12.078  0.00  0.00    +0.000 N 
ATOM     12  O   UNL     1       7.185   4.147  11.882  0.00  0.00    +0.000 OA
ATOM     13  H   UNL     1       5.138   1.811  12.394  0.00  0.00    +0.000 HD
ATOM     14  H   UNL     1       6.387   1.923  11.195  0.00  0.00    +0.000 HD
ENDBRANCH   9  10
ENDBRANCH   8   9
ENDBRANCH   6   8
ENDBRANCH   5   6
BRANCH   1  15
ATOM     15  C   UNL     1       4.256   5.546  17.103  0.00  0.00    +0.000 C 
BRANCH  15  25
ATOM     16  C   UNL     1       2.613   7.978  18.149  0.00  0.00    +0.000 C 
ATOM     17  C   UNL     1       2.976   6.766  18.993  0.00  0.00    +0.000 C 
ATOM     18  C   UNL     1       1.798   6.367  19.929  0.00  0.00    +0.000 C 
ATOM     19  C   UNL     1       1.798   4.878  19.801  0.00  0.00    +0.000 A 
ATOM     20  C   UNL     1       1.011   3.961  20.483  0.00  0.00    +0.000 A 
ATOM     21  C   UNL     1       1.210   2.606  20.229  0.00  0.00    +0.000 A 
ATOM     22  C   UNL     1       2.215   2.198  19.344  0.00  0.00    +0.000 A 
ATOM     23  C   UNL     1       2.980   3.145  18.655  0.00  0.00    +0.000 A 
ATOM     24  C   UNL     1       2.733   4.491  18.838  0.00  0.00    +0.000 A 
ATOM     25  N   UNL     1       3.284   5.576  18.184  0.00  0.00    +0.000 N 
ENDBRANCH  15  25
ENDBRANCH   1  15
TORSDOF 6
ENDMDL
MODEL 2
REMARK VINA RESULT:      -7.9      1.355      2.741
REMARK  Name = 
REMARK  7 active torsions:
REMARK  status: ('A' for Active; 'I' for Inactive)
REMARK    1  A    between atoms: C_1  and  C_2
REMARK    2  A    between atoms: N_10  and  C_11
REMARK    3  A    between atoms: C_11  and  C_12
REMARK    4  A    between atoms: C_16  and  C_17
REMARK    5  A    between atoms: C_17  and  O_19
REMARK    6  A    between atoms: O_19  and  C_20
REMARK    7  A    between atoms: C_20  and  C_21
REMARK                            x       y       z     vdW  Elec       q    Type
REMARK                         _______ _______ _______ _____ _____    ______ ____
ROOT
ATOM      1  C   UNL     1       5.465   4.499  17.689  0.00  0.00    +0.000 A 
ATOM      2  O   UNL     1       6.359   4.322  18.714  0.00  0.00    +0.000 OA
ATOM      3  C   UNL     1       7.510   4.942  18.366  0.00  0.00    +0.000 A 
ATOM      4  C   UNL     1       7.388   5.521  17.129  0.00  0.00    +0.000 A 
ATOM      5  C   UNL     1       6.066   5.230  16.669  0.00  0.00    +0.000 A 
ENDROOT
BRANCH   5   6
ATOM      6  C   UNL     1       5.472   5.586  15.394  0.00  0.00    +0.000 C 
ATOM      7  O   UNL     1       5.203   6.733  15.060  0.00  0.00    +0.000 OA
BRANCH   6   8
ATOM      8  O   UNL     1       5.211   4.498  14.612  0.00  0.00    +0.000 OA
BRANCH   8   9
ATOM      9  C   UNL     1       6.297   4.088  13.778  0.00  0.00    +0.000 C 
BRANCH   9  10
ATOM     10  C   UNL     1       5.816   3.364  12.526  0.00  0.00    +0.000 C 
ATOM     11  N   UNL     1       6.712   2.509  11.953  0.00  0.00    +0.000 N 
ATOM     12  O   UNL     1       4.705   3.536  12.031  0.00  0.00    +0.000 OA
ATOM     13  H   UNL     1       7.500   2.165  12.493  0.00  0.00    +0.000 HD
ATOM     14  H   UNL     1       6.374   1.935  11.193  0.00  0.00    +0.000 HD
ENDBRANCH   9  10
ENDBRANCH   8   9
ENDBRANCH   6   8
ENDBRANCH   5   6
BRANCH   1  15
ATOM     15  C   UNL     1       4.124   3.836  17.876  0.00  0.00    +0.000 C 
BRANCH  15  25
ATOM     16  C   UNL     1       3.535   2.540  20.648  0.00  0.00    +0.000 C 
ATOM     17  C   UNL     1       2.608   3.524  19.952  0.00  0.00    +0.000 C 
ATOM     18  C   UNL     1       1.968   4.506  20.975  0.00  0.00    +0.000 C 
ATOM     19  C   UNL     1       2.066   5.808  20.250  0.00  0.00    +0.000 A 
ATOM     20  C   UNL     1       1.571   7.045  20.641  0.00  0.00    +0.000 A 
ATOM     21  C   UNL     1       1.746   8.126  19.781  0.00  0.00    +0.000 A 
ATOM     22  C   UNL     1       2.364   7.941  18.539  0.00  0.00    +0.000 A 
ATOM     23  C   UNL     1       2.872   6.689  18.178  0.00  0.00    +0.000 A 
ATOM     24  C   UNL     1       2.775   5.630  19.060  0.00  0.00    +0.000 A 
ATOM     25  N   UNL     1       3.302   4.357  18.956  0.00  0.00    +0.000 N 
ENDBRANCH  15  25
ENDBRANCH   1  15
TORSDOF 6
ENDMDL
MODEL 3
REMARK VINA RESULT:      -7.8      1.084      2.509
REMARK  Name = 
REMARK  7 active torsions:
REMARK  status: ('A' for Active; 'I' for Inactive)
REMARK    1  A    between atoms: C_1  and  C_2
REMARK    2  A    between atoms: N_10  and  C_11
REMARK    3  A    between atoms: C_11  and  C_12
REMARK    4  A    between atoms: C_16  and  C_17
REMARK    5  A    between atoms: C_17  and  O_19
REMARK    6  A    between atoms: O_19  and  C_20
REMARK    7  A    between atoms: C_20  and  C_21
REMARK                            x       y       z     vdW  Elec       q    Type
REMARK                         _______ _______ _______ _____ _____    ______ ____
ROOT
ATOM      1  C   UNL     1       5.655   4.367  17.186  0.00  0.00    +0.000 A 
ATOM      2  O   UNL     1       5.940   4.351  18.527  0.00  0.00    +0.000 OA
ATOM      3  C   UNL     1       7.271   4.559  18.665  0.00  0.00    +0.000 A 
ATOM      4  C   UNL     1       7.863   4.710  17.438  0.00  0.00    +0.000 A 
ATOM      5  C   UNL     1       6.826   4.574  16.464  0.00  0.00    +0.000 A 
ENDROOT
BRANCH   5   6
ATOM      6  C   UNL     1       6.956   4.608  15.019  0.00  0.00    +0.000 C 
ATOM      7  O   UNL     1       7.599   5.453  14.408  0.00  0.00    +0.000 OA
BRANCH   6   8
ATOM      8  O   UNL     1       6.256   3.611  14.403  0.00  0.00    +0.000 OA
BRANCH   8   9
ATOM      9  C   UNL     1       5.409   4.047  13.338  0.00  0.00    +0.000 C 
BRANCH   9  10
ATOM     10  C   UNL     1       5.457   3.100  12.144  0.00  0.00    +0.000 C 
ATOM     11  N   UNL     1       6.654   2.482  11.924  0.00  0.00    +0.000 N 
ATOM     12  O   UNL     1       4.501   2.903  11.399  0.00  0.00    +0.000 OA
ATOM     13  H   UNL     1       7.341   2.428  12.670  0.00  0.00    +0.000 HD
ATOM     14  H   UNL     1       6.674   1.765  11.211  0.00  0.00    +0.000 HD
ENDBRANCH   9  10
ENDBRANCH   8   9
ENDBRANCH   6   8
ENDBRANCH   5   6
BRANCH   1  15
ATOM     15  C   UNL     1       4.214   4.108  16.827  0.00  0.00    +0.000 C 
BRANCH  15  25
ATOM     16  C   UNL     1       3.439   1.501  18.348  0.00  0.00    +0.000 C 
ATOM     17  C   UNL     1       2.547   2.728  18.248  0.00  0.00    +0.000 C 
ATOM     18  C   UNL     1       1.804   2.987  19.591  0.00  0.00    +0.000 C 
ATOM     19  C   UNL     1       1.928   4.470  19.726  0.00  0.00    +0.000 A 
ATOM     20  C   UNL     1       1.374   5.290  20.699  0.00  0.00    +0.000 A 
ATOM     21  C   UNL     1       1.590   6.663  20.606  0.00  0.00    +0.000 A 
ATOM     22  C   UNL     1       2.308   7.187  19.525  0.00  0.00    +0.000 A 
ATOM     23  C   UNL     1       2.873   6.336  18.569  0.00  0.00    +0.000 A 
ATOM     24  C   UNL     1       2.733   4.969  18.700  0.00  0.00    +0.000 A 
ATOM     25  N   UNL     1       3.297   3.958  17.945  0.00  0.00    +0.000 N 
ENDBRANCH  15  25
ENDBRANCH   1  15
TORSDOF 6
ENDMDL
MODEL 4
REMARK VINA RESULT:      -7.8      1.032      1.174
REMARK  Name = 
REMARK  7 active torsions:
REMARK  status: ('A' for Active; 'I' for Inactive)
REMARK    1  A    between atoms: C_1  and  C_2
REMARK    2  A    between atoms: N_10  and  C_11
REMARK    3  A    between atoms: C_11  and  C_12
REMARK    4  A    between atoms: C_16  and  C_17
REMARK    5  A    between atoms: C_17  and  O_19
REMARK    6  A    between atoms: O_19  and  C_20
REMARK    7  A    between atoms: C_20  and  C_21
REMARK                            x       y       z     vdW  Elec       q    Type
REMARK                         _______ _______ _______ _____ _____    ______ ____
ROOT
ATOM      1  C   UNL     1       5.231   6.018  17.920  0.00  0.00    +0.000 A 
ATOM      2  O   UNL     1       5.723   5.771  19.176  0.00  0.00    +0.000 OA
ATOM      3  C   UNL     1       6.994   5.325  19.037  0.00  0.00    +0.000 A 
ATOM      4  C   UNL     1       7.343   5.276  17.712  0.00  0.00    +0.000 A 
ATOM      5  C   UNL     1       6.201   5.711  16.971  0.00  0.00    +0.000 A 
ENDROOT
BRANCH   5   6
ATOM      6  C   UNL     1       6.055   5.789  15.530  0.00  0.00    +0.000 C 
ATOM      7  O   UNL     1       5.256   6.523  14.961  0.00  0.00    +0.000 OA
BRANCH   6   8
ATOM      8  O   UNL     1       6.885   4.932  14.869  0.00  0.00    +0.000 OA
BRANCH   8   9
ATOM      9  C   UNL     1       6.229   3.822  14.251  0.00  0.00    +0.000 C 
BRANCH   9  10
ATOM     10  C   UNL     1       6.546   3.726  12.763  0.00  0.00    +0.000 C 
ATOM     11  N   UNL     1       5.926   2.715  12.088  0.00  0.00    +0.000 N 
ATOM     12  O   UNL     1       7.323   4.483  12.187  0.00  0.00    +0.000 OA
ATOM     13  H   UNL     1       5.100   2.274  12.482  0.00  0.00    +0.000 HD
ATOM     14  H   UNL     1       6.032   2.704  11.083  0.00  0.00    +0.000 HD
ENDBRANCH   9  10
ENDBRANCH   8   9
ENDBRANCH   6   8
ENDBRANCH   5   6
BRANCH   1  15
ATOM     15  C   UNL     1       3.799   6.486  17.867  0.00  0.00    +0.000 C 
BRANCH  15  25
ATOM     16  C   UNL     1       1.950   7.739  20.040  0.00  0.00    +0.000 C 
ATOM     17  C   UNL     1       2.474   6.312  20.085  0.00  0.00    +0.000 C 
ATOM     18  C   UNL     1       1.385   5.336  20.616  0.00  0.00    +0.000 C 
ATOM     19  C   UNL     1       1.539   4.175  19.688  0.00  0.00    +0.000 A 
ATOM     20  C   UNL     1       0.883   2.952  19.732  0.00  0.00    +0.000 A 
ATOM     21  C   UNL     1       1.215   1.992  18.778  0.00  0.00    +0.000 A 
ATOM     22  C   UNL     1       2.220   2.254  17.840  0.00  0.00    +0.000 A 
ATOM     23  C   UNL     1       2.851   3.503  17.806  0.00  0.00    +0.000 A 
ATOM     24  C   UNL     1       2.470   4.488  18.695  0.00  0.00    +0.000 A 
ATOM     25  N   UNL     1       2.874   5.808  18.761  0.00  0.00    +0.000 N 
ENDBRANCH  15  25
ENDBRANCH   1  15
TORSDOF 6
ENDMDL
MODEL 5
REMARK VINA RESULT:      -7.7      1.540      2.856
REMARK  Name = 
REMARK  7 active torsions:
REMARK  status: ('A' for Active; 'I' for Inactive)
REMARK    1  A    between atoms: C_1  and  C_2
REMARK    2  A    between atoms: N_10  and  C_11
REMARK    3  A    between atoms: C_11  and  C_12
REMARK    4  A    between atoms: C_16  and  C_17
REMARK    5  A    between atoms: C_17  and  O_19
REMARK    6  A    between atoms: O_19  and  C_20
REMARK    7  A    between atoms: C_20  and  C_21
REMARK                            x       y       z     vdW  Elec       q    Type
REMARK                         _______ _______ _______ _____ _____    ______ ____
ROOT
ATOM      1  C   UNL     1       6.032   4.964  18.499  0.00  0.00    +0.000 A 
ATOM      2  O   UNL     1       6.605   4.950  19.746  0.00  0.00    +0.000 OA
ATOM      3  C   UNL     1       7.695   5.752  19.705  0.00  0.00    +0.000 A 
ATOM      4  C   UNL     1       7.847   6.291  18.454  0.00  0.00    +0.000 A 
ATOM      5  C   UNL     1       6.781   5.777  17.653  0.00  0.00    +0.000 A 
ENDROOT
BRANCH   5   6
ATOM      6  C   UNL     1       6.535   6.016  16.244  0.00  0.00    +0.000 C 
ATOM      7  O   UNL     1       5.588   6.663  15.813  0.00  0.00    +0.000 OA
BRANCH   6   8
ATOM      8  O   UNL     1       7.458   5.416  15.438  0.00  0.00    +0.000 OA
BRANCH   8   9
ATOM      9  C   UNL     1       6.921   4.813  14.259  0.00  0.00    +0.000 C 
BRANCH   9  10
ATOM     10  C   UNL     1       7.748   5.141  13.020  0.00  0.00    +0.000 C 
ATOM     11  N   UNL     1       7.404   4.470  11.882  0.00  0.00    +0.000 N 
ATOM     12  O   UNL     1       8.683   5.937  13.024  0.00  0.00    +0.000 OA
ATOM     13  H   UNL     1       6.490   4.034  11.807  0.00  0.00    +0.000 HD
ATOM     14  H   UNL     1       7.862   4.756  11.028  0.00  0.00    +0.000 HD
ENDBRANCH   9  10
ENDBRANCH   8   9
ENDBRANCH   6   8
ENDBRANCH   5   6
BRANCH   1  15
ATOM     15  C   UNL     1       4.818   4.087  18.333  0.00  0.00    +0.000 C 
BRANCH  15  25
ATOM     16  C   UNL     1       3.954   2.273  20.715  0.00  0.00    +0.000 C 
ATOM     17  C   UNL     1       3.022   3.231  19.990  0.00  0.00    +0.000 C 
ATOM     18  C   UNL     1       2.057   3.932  20.989  0.00  0.00    +0.000 C 
ATOM     19  C   UNL     1       2.073   5.341  20.491  0.00  0.00    +0.000 A 
ATOM     20  C   UNL     1       1.322   6.417  20.943  0.00  0.00    +0.000 A 
ATOM     21  C   UNL     1       1.473   7.642  20.299  0.00  0.00    +0.000 A 
ATOM     22  C   UNL     1       2.327   7.754  19.195  0.00  0.00    +0.000 A 
ATOM     23  C   UNL     1       3.088   6.658  18.773  0.00  0.00    +0.000 A 
ATOM     24  C   UNL     1       3.005   5.462  19.458  0.00  0.00    +0.000 A 
ATOM     25  N   UNL     1       3.740   4.305  19.285  0.00  0.00    +0.000 N 
ENDBRANCH  15  25
ENDBRANCH   1  15
TORSDOF 6
ENDMDL
MODEL 6
REMARK VINA RESULT:      -7.6      1.666      2.442
REMARK  Name = 
REMARK  7 active torsions:
REMARK  status: ('A' for Active; 'I' for Inactive)
REMARK    1  A    between atoms: C_1  and  C_2
REMARK    2  A    between atoms: N_10  and  C_11
REMARK    3  A    between atoms: C_11  and  C_12
REMARK    4  A    between atoms: C_16  and  C_17
REMARK    5  A    between atoms: C_17  and  O_19
REMARK    6  A    between atoms: O_19  and  C_20
REMARK    7  A    between atoms: C_20  and  C_21
REMARK                            x       y       z     vdW  Elec       q    Type
REMARK                         _______ _______ _______ _____ _____    ______ ____
ROOT
ATOM      1  C   UNL     1       5.539   5.827  18.417  0.00  0.00    +0.000 A 
ATOM      2  O   UNL     1       6.030   5.547  19.667  0.00  0.00    +0.000 OA
ATOM      3  C   UNL     1       7.381   5.521  19.580  0.00  0.00    +0.000 A 
ATOM      4  C   UNL     1       7.783   5.778  18.295  0.00  0.00    +0.000 A 
ATOM      5  C   UNL     1       6.596   5.966  17.523  0.00  0.00    +0.000 A 
ENDROOT
BRANCH   5   6
ATOM      6  C   UNL     1       6.493   6.215  16.097  0.00  0.00    +0.000 C 
ATOM      7  O   UNL     1       5.604   6.880  15.580  0.00  0.00    +0.000 OA
BRANCH   6   8
ATOM      8  O   UNL     1       7.482   5.603  15.382  0.00  0.00    +0.000 OA
BRANCH   8   9
ATOM      9  C   UNL     1       7.019   4.754  14.329  0.00  0.00    +0.000 C 
BRANCH   9  10
ATOM     10  C   UNL     1       7.722   5.046  13.008  0.00  0.00    +0.000 C 
ATOM     11  N   UNL     1       8.724   5.971  13.060  0.00  0.00    +0.000 N 
ATOM     12  O   UNL     1       7.412   4.513  11.947  0.00  0.00    +0.000 OA
ATOM     13  H   UNL     1       9.155   6.202  13.951  0.00  0.00    +0.000 HD
ATOM     14  H   UNL     1       9.277   6.093  12.223  0.00  0.00    +0.000 HD
ENDBRANCH   9  10
ENDBRANCH   8   9
ENDBRANCH   6   8
ENDBRANCH   5   6
BRANCH   1  15
ATOM     15  C   UNL     1       4.036   5.855  18.303  0.00  0.00    +0.000 C 
BRANCH  15  25
ATOM     16  C   UNL     1       4.122   3.489  16.277  0.00  0.00    +0.000 C 
ATOM     17  C   UNL     1       2.972   3.750  17.237  0.00  0.00    +0.000 C 
ATOM     18  C   UNL     1       2.414   2.416  17.812  0.00  0.00    +0.000 C 
ATOM     19  C   UNL     1       2.219   2.763  19.252  0.00  0.00    +0.000 A 
ATOM     20  C   UNL     1       1.658   1.981  20.252  0.00  0.00    +0.000 A 
ATOM     21  C   UNL     1       1.541   2.527  21.528  0.00  0.00    +0.000 A 
ATOM     22  C   UNL     1       1.940   3.848  21.764  0.00  0.00    +0.000 A 
ATOM     23  C   UNL     1       2.523   4.606  20.743  0.00  0.00    +0.000 A 
ATOM     24  C   UNL     1       2.717   4.044  19.496  0.00  0.00    +0.000 A 
ATOM     25  N   UNL     1       3.366   4.567  18.395  0.00  0.00    +0.000 N 
ENDBRANCH  15  25
ENDBRANCH   1  15
TORSDOF 6
ENDMDL
MODEL 7
REMARK VINA RESULT:      -7.5      1.065      1.122
REMARK  Name = 
REMARK  7 active torsions:
REMARK  status: ('A' for Active; 'I' for Inactive)
REMARK    1  A    between atoms: C_1  and  C_2
REMARK    2  A    between atoms: N_10  and  C_11
REMARK    3  A    between atoms: C_11  and  C_12
REMARK    4  A    between atoms: C_16  and  C_17
REMARK    5  A    between atoms: C_17  and  O_19
REMARK    6  A    between atoms: O_19  and  C_20
REMARK    7  A    between atoms: C_20  and  C_21
REMARK                            x       y       z     vdW  Elec       q    Type
REMARK                         _______ _______ _______ _____ _____    ______ ____
ROOT
ATOM      1  C   UNL     1       5.727   4.745  16.828  0.00  0.00    +0.000 A 
ATOM      2  O   UNL     1       6.039   4.599  18.156  0.00  0.00    +0.000 OA
ATOM      3  C   UNL     1       7.383   4.458  18.248  0.00  0.00    +0.000 A 
ATOM      4  C   UNL     1       7.956   4.508  17.004  0.00  0.00    +0.000 A 
ATOM      5  C   UNL     1       6.891   4.681  16.067  0.00  0.00    +0.000 A 
ENDROOT
BRANCH   5   6
ATOM      6  C   UNL     1       6.982   4.744  14.621  0.00  0.00    +0.000 C 
ATOM      7  O   UNL     1       7.620   5.592  14.011  0.00  0.00    +0.000 OA
BRANCH   6   8
ATOM      8  O   UNL     1       6.251   3.770  14.004  0.00  0.00    +0.000 OA
BRANCH   8   9
ATOM      9  C   UNL     1       6.534   3.602  12.613  0.00  0.00    +0.000 C 
BRANCH   9  10
ATOM     10  C   UNL     1       5.458   2.787  11.904  0.00  0.00    +0.000 C 
ATOM     11  N   UNL     1       4.258   3.413  11.728  0.00  0.00    +0.000 N 
ATOM     12  O   UNL     1       5.627   1.632  11.524  0.00  0.00    +0.000 OA
ATOM     13  H   UNL     1       4.201   4.425  11.788  0.00  0.00    +0.000 HD
ATOM     14  H   UNL     1       3.573   2.934  11.160  0.00  0.00    +0.000 HD
ENDBRANCH   9  10
ENDBRANCH   8   9
ENDBRANCH   6   8
ENDBRANCH   5   6
BRANCH   1  15
ATOM     15  C   UNL     1       4.258   4.873  16.518  0.00  0.00    +0.000 C 
BRANCH  15  25
ATOM     16  C   UNL     1       3.284   7.611  17.644  0.00  0.00    +0.000 C 
ATOM     17  C   UNL     1       3.409   6.343  18.473  0.00  0.00    +0.000 C 
ATOM     18  C   UNL     1       2.231   6.219  19.482  0.00  0.00    +0.000 C 
ATOM     19  C   UNL     1       1.882   4.770  19.366  0.00  0.00    +0.000 A 
ATOM     20  C   UNL     1       0.949   4.054  20.102  0.00  0.00    +0.000 A 
ATOM     21  C   UNL     1       0.816   2.691  19.847  0.00  0.00    +0.000 A 
ATOM     22  C   UNL     1       1.645   2.069  18.906  0.00  0.00    +0.000 A 
ATOM     23  C   UNL     1       2.563   2.819  18.164  0.00  0.00    +0.000 A 
ATOM     24  C   UNL     1       2.643   4.185  18.351  0.00  0.00    +0.000 A 
ATOM     25  N   UNL     1       3.386   5.119  17.656  0.00  0.00    +0.000 N 
ENDBRANCH  15  25
ENDBRANCH   1  15
TORSDOF 6
ENDMDL
MODEL 8
REMARK VINA RESULT:      -7.5      1.627      2.000
REMARK  Name = 
REMARK  7 active torsions:
REMARK  status: ('A' for Active; 'I' for Inactive)
REMARK    1  A    between atoms: C_1  and  C_2
REMARK    2  A    between atoms: N_10  and  C_11
REMARK    3  A    between atoms: C_11  and  C_12
REMARK    4  A    between atoms: C_16  and  C_17
REMARK    5  A    between atoms: C_17  and  O_19
REMARK    6  A    between atoms: O_19  and  C_20
REMARK    7  A    between atoms: C_20  and  C_21
REMARK                            x       y       z     vdW  Elec       q    Type
REMARK                         _______ _______ _______ _____ _____    ______ ____
ROOT
ATOM      1  C   UNL     1       5.799   6.772  17.241  0.00  0.00    +0.000 A 
ATOM      2  O   UNL     1       5.812   8.143  17.268  0.00  0.00    +0.000 OA
ATOM      3  C   UNL     1       7.086   8.536  17.503  0.00  0.00    +0.000 A 
ATOM      4  C   UNL     1       7.908   7.447  17.632  0.00  0.00    +0.000 A 
ATOM      5  C   UNL     1       7.083   6.290  17.477  0.00  0.00    +0.000 A 
ENDROOT
BRANCH   5   6
ATOM      6  C   UNL     1       7.479   4.898  17.577  0.00  0.00    +0.000 C 
ATOM      7  O   UNL     1       7.553   4.280  18.632  0.00  0.00    +0.000 OA
BRANCH   6   8
ATOM      8  O   UNL     1       7.793   4.351  16.366  0.00  0.00    +0.000 OA
BRANCH   8   9
ATOM      9  C   UNL     1       6.668   3.935  15.589  0.00  0.00    +0.000 C 
BRANCH   9  10
ATOM     10  C   UNL     1       6.772   4.396  14.139  0.00  0.00    +0.000 C 
ATOM     11  N   UNL     1       6.211   3.567  13.211  0.00  0.00    +0.000 N 
ATOM     12  O   UNL     1       7.337   5.431  13.799  0.00  0.00    +0.000 OA
ATOM     13  H   UNL     1       5.525   2.875  13.498  0.00  0.00    +0.000 HD
ATOM     14  H   UNL     1       6.167   3.909  12.261  0.00  0.00    +0.000 HD
ENDBRANCH   9  10
ENDBRANCH   8   9
ENDBRANCH   6   8
ENDBRANCH   5   6
BRANCH   1  15
ATOM     15  C   UNL     1       4.447   6.140  17.032  0.00  0.00    +0.000 C 
BRANCH  15  25
ATOM     16  C   UNL     1       2.167   8.067  17.927  0.00  0.00    +0.000 C 
ATOM     17  C   UNL     1       2.972   7.196  18.880  0.00  0.00    +0.000 C 
ATOM     18  C   UNL     1       2.065   6.611  20.000  0.00  0.00    +0.000 C 
ATOM     19  C   UNL     1       2.552   5.200  20.080  0.00  0.00    +0.000 A 
ATOM     20  C   UNL     1       2.166   4.212  20.975  0.00  0.00    +0.000 A 
ATOM     21  C   UNL     1       2.786   2.967  20.889  0.00  0.00    +0.000 A 
ATOM     22  C   UNL     1       3.803   2.754  19.951  0.00  0.00    +0.000 A 
ATOM     23  C   UNL     1       4.158   3.762  19.048  0.00  0.00    +0.000 A 
ATOM     24  C   UNL     1       3.490   4.971  19.072  0.00  0.00    +0.000 A 
ATOM     25  N   UNL     1       3.600   6.045  18.211  0.00  0.00    +0.000 N 
ENDBRANCH  15  25
ENDBRANCH   1  15
TORSDOF 6
ENDMDL
MODEL 9
REMARK VINA RESULT:      -7.5      2.959      6.097
REMARK  Name = 
REMARK  7 active torsions:
REMARK  status: ('A' for Active; 'I' for Inactive)
REMARK    1  A    between atoms: C_1  and  C_2
REMARK    2  A    between atoms: N_10  and  C_11
REMARK    3  A    between atoms: C_11  and  C_12
REMARK    4  A    between atoms: C_16  and  C_17
REMARK    5  A    between atoms: C_17  and  O_19
REMARK    6  A    between atoms: O_19  and  C_20
REMARK    7  A    between atoms: C_20  and  C_21
REMARK                            x       y       z     vdW  Elec       q    Type
REMARK                         _______ _______ _______ _____ _____    ______ ____
ROOT
ATOM      1  C   UNL     1       3.668   5.177  19.610  0.00  0.00    +0.000 A 
ATOM      2  O   UNL     1       3.714   6.449  19.101  0.00  0.00    +0.000 OA
ATOM      3  C   UNL     1       2.563   7.072  19.450  0.00  0.00    +0.000 A 
ATOM      4  C   UNL     1       1.765   6.229  20.179  0.00  0.00    +0.000 A 
ATOM      5  C   UNL     1       2.464   4.987  20.280  0.00  0.00    +0.000 A 
ENDROOT
BRANCH   5   6
ATOM      6  C   UNL     1       2.012   3.763  20.916  0.00  0.00    +0.000 C 
ATOM      7  O   UNL     1       2.364   3.400  22.031  0.00  0.00    +0.000 OA
BRANCH   6   8
ATOM      8  O   UNL     1       1.171   3.037  20.123  0.00  0.00    +0.000 OA
BRANCH   8   9
ATOM      9  C   UNL     1       1.711   1.797  19.658  0.00  0.00    +0.000 C 
BRANCH   9  10
ATOM     10  C   UNL     1       2.421   1.949  18.318  0.00  0.00    +0.000 C 
ATOM     11  N   UNL     1       3.584   1.248  18.179  0.00  0.00    +0.000 N 
ATOM     12  O   UNL     1       2.008   2.667  17.412  0.00  0.00    +0.000 OA
ATOM     13  H   UNL     1       3.780   0.465  18.796  0.00  0.00    +0.000 HD
ATOM     14  H   UNL     1       4.008   1.243  17.262  0.00  0.00    +0.000 HD
ENDBRANCH   9  10
ENDBRANCH   8   9
ENDBRANCH   6   8
ENDBRANCH   5   6
BRANCH   1  15
ATOM     15  C   UNL     1       4.855   4.306  19.285  0.00  0.00    +0.000 C 
BRANCH  15  25
ATOM     16  C   UNL     1       7.599   5.671  19.847  0.00  0.00    +0.000 C 
ATOM     17  C   UNL     1       6.748   5.941  18.616  0.00  0.00    +0.000 C 
ATOM     18  C   UNL     1       7.636   6.100  17.349  0.00  0.00    +0.000 C 
ATOM     19  C   UNL     1       6.863   5.321  16.335  0.00  0.00    +0.000 A 
ATOM     20  C   UNL     1       7.129   5.179  14.980  0.00  0.00    +0.000 A 
ATOM     21  C   UNL     1       6.242   4.431  14.210  0.00  0.00    +0.000 A 
ATOM     22  C   UNL     1       5.094   3.885  14.794  0.00  0.00    +0.000 A 
ATOM     23  C   UNL     1       4.861   4.026  16.167  0.00  0.00    +0.000 A 
ATOM     24  C   UNL     1       5.777   4.697  16.953  0.00  0.00    +0.000 A 
ATOM     25  N   UNL     1       5.801   4.852  18.325  0.00  0.00    +0.000 N 
ENDBRANCH  15  25
ENDBRANCH   1  15
TORSDOF 6
ENDMDL
