MODEL 1
REMARK VINA RESULT:      -8.0      0.000      0.000
REMARK  Name = 
REMARK  8 active torsions:
REMARK  status: ('A' for Active; 'I' for Inactive)
REMARK    1  A    between atoms: C_1  and  O_2
REMARK    2  A    between atoms: O_2  and  C_3
REMARK    3  A    between atoms: C_8  and  O_9
REMARK    4  A    between atoms: O_9  and  C_10
REMARK    5  A    between atoms: C_11  and  C_12
REMARK    6  A    between atoms: C_12  and  C_13
REMARK    7  A    between atoms: C_13  and  N_14
REMARK    8  A    between atoms: N_17  and  C_18
REMARK                            x       y       z     vdW  Elec       q    Type
REMARK                         _______ _______ _______ _____ _____    ______ ____
ROOT
ATOM      1  C   UNL     1       2.723   7.052  19.684  0.00  0.00    +0.000 C 
ENDROOT
BRANCH   1   8
ATOM      2  C   UNL     1       6.163   5.161  16.427  0.00  0.00    +0.000 A 
ATOM      3  C   UNL     1       5.158   4.200  16.588  0.00  0.00    +0.000 A 
ATOM      4  C   UNL     1       3.946   4.514  17.218  0.00  0.00    +0.000 A 
ATOM      5  C   UNL     1       3.729   5.814  17.703  0.00  0.00    +0.000 A 
ATOM      6  C   UNL     1       4.714   6.788  17.461  0.00  0.00    +0.000 A 
ATOM      7  C   UNL     1       5.939   6.478  16.851  0.00  0.00    +0.000 A 
ATOM      8  C   UNL     1       2.438   6.166  18.448  0.00  0.00    +0.000 C 
ATOM      9  O   UNL     1       1.756   4.976  18.865  0.00  0.00    +0.000 OA
ATOM     10  C   UNL     1       1.566   4.054  17.796  0.00  0.00    +0.000 C 
ATOM     11  C   UNL     1       2.911   3.442  17.432  0.00  0.00    +0.000 C 
BRANCH   2  13
ATOM     12  C   UNL     1       7.280   4.761  14.366  0.00  0.00    +0.000 C 
ATOM     13  O   UNL     1       7.278   4.679  15.787  0.00  0.00    +0.000 OA
ENDBRANCH   2  13
BRANCH   7  14
ATOM     14  O   UNL     1       6.916   7.410  16.627  0.00  0.00    +0.000 OA
ATOM     15  C   UNL     1       7.782   7.749  17.704  0.00  0.00    +0.000 C 
ENDBRANCH   7  14
ENDBRANCH   1   8
BRANCH   1  16
ATOM     16  C   UNL     1       1.584   7.959  20.179  0.00  0.00    +0.000 C 
BRANCH  16  17
ATOM     17  N   UNL     1       1.590   9.338  19.698  0.00  0.00    +0.000 NA
ATOM     18  C   UNL     1       1.444   9.466  18.232  0.00  0.00    +0.000 C 
ATOM     19  C   UNL     1       0.019   9.210  17.689  0.00  0.00    +0.000 C 
ATOM     20  N   UNL     1      -0.929  10.102  18.372  0.00  0.00    +0.000 N 
ATOM     21  C   UNL     1      -0.890  10.006  19.843  0.00  0.00    +0.000 C 
ATOM     22  C   UNL     1       0.562  10.174  20.359  0.00  0.00    +0.000 C 
BRANCH  20  23
ATOM     23  C   UNL     1      -2.098  10.509  17.744  0.00  0.00    +0.000 A 
ATOM     24  C   UNL     1      -2.331  10.321  16.372  0.00  0.00    +0.000 A 
ATOM     25  C   UNL     1      -3.478  10.821  15.743  0.00  0.00    +0.000 A 
ATOM     26  C   UNL     1      -4.421  11.530  16.478  0.00  0.00    +0.000 A 
ATOM     27  C   UNL     1      -4.215  11.724  17.838  0.00  0.00    +0.000 A 
ATOM     28 CL   UNL     1      -5.361  12.623  18.756  0.00  0.00    +0.000 Cl
ATOM     29  C   UNL     1      -3.074  11.218  18.463  0.00  0.00    +0.000 A 
ENDBRANCH  20  23
ENDBRANCH  16  17
ENDBRANCH   1  16
TORSDOF 6
ENDMDL
MODEL 2
REMARK VINA RESULT:      -7.4      2.559      3.044
REMARK  Name = 
REMARK  8 active torsions:
REMARK  status: ('A' for Active; 'I' for Inactive)
REMARK    1  A    between atoms: C_1  and  O_2
REMARK    2  A    between atoms: O_2  and  C_3
REMARK    3  A    between atoms: C_8  and  O_9
REMARK    4  A    between atoms: O_9  and  C_10
REMARK    5  A    between atoms: C_11  and  C_12
REMARK    6  A    between atoms: C_12  and  C_13
REMARK    7  A    between atoms: C_13  and  N_14
REMARK    8  A    between atoms: N_17  and  C_18
REMARK                            x       y       z     vdW  Elec       q    Type
REMARK                         _______ _______ _______ _____ _____    ______ ____
ROOT
ATOM      1  C   UNL     1       1.999   5.984  20.474  0.00  0.00    +0.000 C 
ENDROOT
BRANCH   1   8
ATOM      2  C   UNL     1       5.128   4.563  16.705  0.00  0.00    +0.000 A 
ATOM      3  C   UNL     1       4.294   3.478  16.997  0.00  0.00    +0.000 A 
ATOM      4  C   UNL     1       3.159   3.629  17.806  0.00  0.00    +0.000 A 
ATOM      5  C   UNL     1       2.849   4.889  18.342  0.00  0.00    +0.000 A 
ATOM      6  C   UNL     1       3.650   5.985  17.974  0.00  0.00    +0.000 A 
ATOM      7  C   UNL     1       4.799   5.840  17.183  0.00  0.00    +0.000 A 
ATOM      8  C   UNL     1       1.650   5.066  19.278  0.00  0.00    +0.000 C 
ATOM      9  O   UNL     1       1.201   3.797  19.770  0.00  0.00    +0.000 OA
ATOM     10  C   UNL     1       0.976   2.857  18.724  0.00  0.00    +0.000 C 
ATOM     11  C   UNL     1       2.319   2.428  18.152  0.00  0.00    +0.000 C 
BRANCH   2  13
ATOM     12  C   UNL     1       5.919   4.146  14.502  0.00  0.00    +0.000 C 
ATOM     13  O   UNL     1       6.188   4.233  15.897  0.00  0.00    +0.000 OA
ENDBRANCH   2  13
BRANCH   7  14
ATOM     14  O   UNL     1       5.600   6.893  16.833  0.00  0.00    +0.000 OA
ATOM     15  C   UNL     1       6.832   7.059  17.524  0.00  0.00    +0.000 C 
ENDBRANCH   7  14
ENDBRANCH   1   8
BRANCH   1  16
ATOM     16  C   UNL     1       1.024   7.132  20.790  0.00  0.00    +0.000 C 
BRANCH  16  17
ATOM     17  N   UNL     1       1.599   8.471  20.884  0.00  0.00    +0.000 NA
ATOM     18  C   UNL     1       1.127   9.405  19.839  0.00  0.00    +0.000 C 
ATOM     19  C   UNL     1      -0.313   9.934  20.033  0.00  0.00    +0.000 C 
ATOM     20  N   UNL     1      -0.428  10.558  21.358  0.00  0.00    +0.000 N 
ATOM     21  C   UNL     1      -0.024   9.680  22.473  0.00  0.00    +0.000 C 
ATOM     22  C   UNL     1       1.385   9.087  22.213  0.00  0.00    +0.000 C 
BRANCH  20  23
ATOM     23  C   UNL     1      -1.344  11.575  21.587  0.00  0.00    +0.000 A 
ATOM     24  C   UNL     1      -1.557  12.626  20.681  0.00  0.00    +0.000 A 
ATOM     25  C   UNL     1      -2.420  13.689  20.974  0.00  0.00    +0.000 A 
ATOM     26  C   UNL     1      -3.092  13.725  22.191  0.00  0.00    +0.000 A 
ATOM     27  C   UNL     1      -2.902  12.692  23.100  0.00  0.00    +0.000 A 
ATOM     28 CL   UNL     1      -3.706  12.736  24.622  0.00  0.00    +0.000 Cl
ATOM     29  C   UNL     1      -2.046  11.631  22.802  0.00  0.00    +0.000 A 
ENDBRANCH  20  23
ENDBRANCH  16  17
ENDBRANCH   1  16
TORSDOF 6
ENDMDL
MODEL 3
REMARK VINA RESULT:      -7.3      2.881      4.863
REMARK  Name = 
REMARK  8 active torsions:
REMARK  status: ('A' for Active; 'I' for Inactive)
REMARK    1  A    between atoms: C_1  and  O_2
REMARK    2  A    between atoms: O_2  and  C_3
REMARK    3  A    between atoms: C_8  and  O_9
REMARK    4  A    between atoms: O_9  and  C_10
REMARK    5  A    between atoms: C_11  and  C_12
REMARK    6  A    between atoms: C_12  and  C_13
REMARK    7  A    between atoms: C_13  and  N_14
REMARK    8  A    between atoms: N_17  and  C_18
REMARK                            x       y       z     vdW  Elec       q    Type
REMARK                         _______ _______ _______ _____ _____    ______ ____
ROOT
ATOM      1  C   UNL     1       1.923   8.113  17.859  0.00  0.00    +0.000 C 
ENDROOT
BRANCH   1   8
ATOM      2  C   UNL     1       2.663   3.083  18.268  0.00  0.00    +0.000 A 
ATOM      3  C   UNL     1       3.681   3.598  17.456  0.00  0.00    +0.000 A 
ATOM      4  C   UNL     1       3.906   4.978  17.359  0.00  0.00    +0.000 A 
ATOM      5  C   UNL     1       3.097   5.868  18.083  0.00  0.00    +0.000 A 
ATOM      6  C   UNL     1       2.133   5.333  18.956  0.00  0.00    +0.000 A 
ATOM      7  C   UNL     1       1.886   3.955  19.044  0.00  0.00    +0.000 A 
ATOM      8  C   UNL     1       3.284   7.382  17.946  0.00  0.00    +0.000 C 
ATOM      9  O   UNL     1       4.063   7.692  16.783  0.00  0.00    +0.000 OA
ATOM     10  C   UNL     1       5.282   6.958  16.734  0.00  0.00    +0.000 C 
ATOM     11  C   UNL     1       4.966   5.501  16.427  0.00  0.00    +0.000 C 
BRANCH   2  13
ATOM     12  C   UNL     1       3.750   1.007  18.669  0.00  0.00    +0.000 C 
ATOM     13  O   UNL     1       2.589   1.712  18.245  0.00  0.00    +0.000 OA
ENDBRANCH   2  13
BRANCH   7  14
ATOM     14  O   UNL     1       0.938   3.420  19.874  0.00  0.00    +0.000 OA
ATOM     15  C   UNL     1       1.331   3.040  21.187  0.00  0.00    +0.000 C 
ENDBRANCH   7  14
ENDBRANCH   1   8
BRANCH   1  16
ATOM     16  C   UNL     1       1.649   9.218  18.895  0.00  0.00    +0.000 C 
BRANCH  16  17
ATOM     17  N   UNL     1       0.878  10.370  18.434  0.00  0.00    +0.000 NA
ATOM     18  C   UNL     1      -0.552  10.327  18.810  0.00  0.00    +0.000 C 
ATOM     19  C   UNL     1      -0.849  10.634  20.296  0.00  0.00    +0.000 C 
ATOM     20  N   UNL     1      -0.272  11.938  20.649  0.00  0.00    +0.000 N 
ATOM     21  C   UNL     1       1.169  12.057  20.355  0.00  0.00    +0.000 C 
ATOM     22  C   UNL     1       1.457  11.656  18.885  0.00  0.00    +0.000 C 
BRANCH  20  23
ATOM     23  C   UNL     1      -0.830  12.711  21.658  0.00  0.00    +0.000 A 
ATOM     24  C   UNL     1      -0.247  13.905  22.113  0.00  0.00    +0.000 A 
ATOM     25  C   UNL     1      -0.779  14.621  23.193  0.00  0.00    +0.000 A 
ATOM     26  C   UNL     1      -1.911  14.151  23.849  0.00  0.00    +0.000 A 
ATOM     27  C   UNL     1      -2.508  12.975  23.413  0.00  0.00    +0.000 A 
ATOM     28 CL   UNL     1      -3.895  12.366  24.232  0.00  0.00    +0.000 Cl
ATOM     29  C   UNL     1      -1.979  12.268  22.331  0.00  0.00    +0.000 A 
ENDBRANCH  20  23
ENDBRANCH  16  17
ENDBRANCH   1  16
TORSDOF 6
ENDMDL
MODEL 4
REMARK VINA RESULT:      -7.3      2.628      3.243
REMARK  Name = 
REMARK  8 active torsions:
REMARK  status: ('A' for Active; 'I' for Inactive)
REMARK    1  A    between atoms: C_1  and  O_2
REMARK    2  A    between atoms: O_2  and  C_3
REMARK    3  A    between atoms: C_8  and  O_9
REMARK    4  A    between atoms: O_9  and  C_10
REMARK    5  A    between atoms: C_11  and  C_12
REMARK    6  A    between atoms: C_12  and  C_13
REMARK    7  A    between atoms: C_13  and  N_14
REMARK    8  A    between atoms: N_17  and  C_18
REMARK                            x       y       z     vdW  Elec       q    Type
REMARK                         _______ _______ _______ _____ _____    ______ ____
ROOT
ATOM      1  C   UNL     1       1.930   5.766  20.489  0.00  0.00    +0.000 C 
ENDROOT
BRANCH   1   8
ATOM      2  C   UNL     1       5.126   4.691  16.661  0.00  0.00    +0.000 A 
ATOM      3  C   UNL     1       4.346   3.552  16.897  0.00  0.00    +0.000 A 
ATOM      4  C   UNL     1       3.206   3.606  17.710  0.00  0.00    +0.000 A 
ATOM      5  C   UNL     1       2.833   4.821  18.308  0.00  0.00    +0.000 A 
ATOM      6  C   UNL     1       3.578   5.973  17.996  0.00  0.00    +0.000 A 
ATOM      7  C   UNL     1       4.733   5.924  17.201  0.00  0.00    +0.000 A 
ATOM      8  C   UNL     1       1.626   4.893  19.248  0.00  0.00    +0.000 C 
ATOM      9  O   UNL     1       1.241   3.580  19.676  0.00  0.00    +0.000 OA
ATOM     10  C   UNL     1       1.063   2.683  18.584  0.00  0.00    +0.000 C 
ATOM     11  C   UNL     1       2.426   2.350  17.995  0.00  0.00    +0.000 C 
BRANCH   2  13
ATOM     12  C   UNL     1       5.906   3.974  14.534  0.00  0.00    +0.000 C 
ATOM     13  O   UNL     1       6.200   4.454  15.841  0.00  0.00    +0.000 OA
ENDBRANCH   2  13
BRANCH   7  14
ATOM     14  O   UNL     1       5.481   7.032  16.905  0.00  0.00    +0.000 OA
ATOM     15  C   UNL     1       6.763   7.158  17.508  0.00  0.00    +0.000 C 
ENDBRANCH   7  14
ENDBRANCH   1   8
BRANCH   1  16
ATOM     16  C   UNL     1       1.006   6.970  20.746  0.00  0.00    +0.000 C 
BRANCH  16  17
ATOM     17  N   UNL     1       1.648   8.279  20.835  0.00  0.00    +0.000 NA
ATOM     18  C   UNL     1       1.092   9.286  19.906  0.00  0.00    +0.000 C 
ATOM     19  C   UNL     1      -0.288   9.858  20.305  0.00  0.00    +0.000 C 
ATOM     20  N   UNL     1      -0.212  10.412  21.663  0.00  0.00    +0.000 N 
ATOM     21  C   UNL     1       0.287   9.458  22.673  0.00  0.00    +0.000 C 
ATOM     22  C   UNL     1       1.625   8.828  22.210  0.00  0.00    +0.000 C 
BRANCH  20  23
ATOM     23  C   UNL     1      -1.047  11.448  22.055  0.00  0.00    +0.000 A 
ATOM     24  C   UNL     1      -1.905  11.357  23.163  0.00  0.00    +0.000 A 
ATOM     25  C   UNL     1      -2.805  12.380  23.485  0.00  0.00    +0.000 A 
ATOM     26  C   UNL     1      -2.868  13.525  22.698  0.00  0.00    +0.000 A 
ATOM     27  C   UNL     1      -2.025  13.639  21.600  0.00  0.00    +0.000 A 
ATOM     28 CL   UNL     1      -2.111  15.038  20.600  0.00  0.00    +0.000 Cl
ATOM     29  C   UNL     1      -1.124  12.620  21.286  0.00  0.00    +0.000 A 
ENDBRANCH  20  23
ENDBRANCH  16  17
ENDBRANCH   1  16
TORSDOF 6
ENDMDL
MODEL 5
REMARK VINA RESULT:      -7.3      2.957      3.604
REMARK  Name = 
REMARK  8 active torsions:
REMARK  status: ('A' for Active; 'I' for Inactive)
REMARK    1  A    between atoms: C_1  and  O_2
REMARK    2  A    between atoms: O_2  and  C_3
REMARK    3  A    between atoms: C_8  and  O_9
REMARK    4  A    between atoms: O_9  and  C_10
REMARK    5  A    between atoms: C_11  and  C_12
REMARK    6  A    between atoms: C_12  and  C_13
REMARK    7  A    between atoms: C_13  and  N_14
REMARK    8  A    between atoms: N_17  and  C_18
REMARK                            x       y       z     vdW  Elec       q    Type
REMARK                         _______ _______ _______ _____ _____    ______ ____
ROOT
ATOM      1  C   UNL     1       2.320   6.390  19.915  0.00  0.00    +0.000 C 
ENDROOT
BRANCH   1   8
ATOM      2  C   UNL     1       5.769   4.889  16.469  0.00  0.00    +0.000 A 
ATOM      3  C   UNL     1       4.843   3.851  16.624  0.00  0.00    +0.000 A 
ATOM      4  C   UNL     1       3.635   4.049  17.306  0.00  0.00    +0.000 A 
ATOM      5  C   UNL     1       3.341   5.309  17.852  0.00  0.00    +0.000 A 
ATOM      6  C   UNL     1       4.243   6.363  17.617  0.00  0.00    +0.000 A 
ATOM      7  C   UNL     1       5.464   6.169  16.955  0.00  0.00    +0.000 A 
ATOM      8  C   UNL     1       2.055   5.534  18.653  0.00  0.00    +0.000 C 
ATOM      9  O   UNL     1       1.478   4.281  19.043  0.00  0.00    +0.000 OA
ATOM     10  C   UNL     1       1.318   3.390  17.944  0.00  0.00    +0.000 C 
ATOM     11  C   UNL     1       2.690   2.895  17.511  0.00  0.00    +0.000 C 
BRANCH   2  13
ATOM     12  C   UNL     1       6.859   4.712  14.363  0.00  0.00    +0.000 C 
ATOM     13  O   UNL     1       6.892   4.518  15.773  0.00  0.00    +0.000 OA
ENDBRANCH   2  13
BRANCH   7  14
ATOM     14  O   UNL     1       6.362   7.180  16.737  0.00  0.00    +0.000 OA
ATOM     15  C   UNL     1       7.482   7.283  17.607  0.00  0.00    +0.000 C 
ENDBRANCH   7  14
ENDBRANCH   1   8
BRANCH   1  16
ATOM     16  C   UNL     1       2.339   7.918  19.738  0.00  0.00    +0.000 C 
BRANCH  16  17
ATOM     17  N   UNL     1       1.130   8.528  19.189  0.00  0.00    +0.000 NA
ATOM     18  C   UNL     1       0.416   9.410  20.137  0.00  0.00    +0.000 C 
ATOM     19  C   UNL     1       1.081  10.784  20.385  0.00  0.00    +0.000 C 
ATOM     20  N   UNL     1       1.271  11.472  19.100  0.00  0.00    +0.000 N 
ATOM     21  C   UNL     1       2.021  10.684  18.103  0.00  0.00    +0.000 C 
ATOM     22  C   UNL     1       1.392   9.277  17.939  0.00  0.00    +0.000 C 
BRANCH  20  23
ATOM     23  C   UNL     1       1.292  12.857  19.034  0.00  0.00    +0.000 A 
ATOM     24  C   UNL     1       0.234  13.658  19.493  0.00  0.00    +0.000 A 
ATOM     25  C   UNL     1       0.239  15.049  19.333  0.00  0.00    +0.000 A 
ATOM     26  C   UNL     1       1.308  15.674  18.701  0.00  0.00    +0.000 A 
ATOM     27  C   UNL     1       2.369  14.902  18.243  0.00  0.00    +0.000 A 
ATOM     28 CL   UNL     1       3.687  15.658  17.434  0.00  0.00    +0.000 Cl
ATOM     29  C   UNL     1       2.364  13.516  18.411  0.00  0.00    +0.000 A 
ENDBRANCH  20  23
ENDBRANCH  16  17
ENDBRANCH   1  16
TORSDOF 6
ENDMDL
MODEL 6
REMARK VINA RESULT:      -7.3      1.120      1.720
REMARK  Name = 
REMARK  8 active torsions:
REMARK  status: ('A' for Active; 'I' for Inactive)
REMARK    1  A    between atoms: C_1  and  O_2
REMARK    2  A    between atoms: O_2  and  C_3
REMARK    3  A    between atoms: C_8  and  O_9
REMARK    4  A    between atoms: O_9  and  C_10
REMARK    5  A    between atoms: C_11  and  C_12
REMARK    6  A    between atoms: C_12  and  C_13
REMARK    7  A    between atoms: C_13  and  N_14
REMARK    8  A    between atoms: N_17  and  C_18
REMARK                            x       y       z     vdW  Elec       q    Type
REMARK                         _______ _______ _______ _____ _____    ______ ____
ROOT
ATOM      1  C   UNL     1       2.537   7.128  19.708  0.00  0.00    +0.000 C 
ENDROOT
BRANCH   1   8
ATOM      2  C   UNL     1       6.035   5.232  16.515  0.00  0.00    +0.000 A 
ATOM      3  C   UNL     1       5.048   4.255  16.694  0.00  0.00    +0.000 A 
ATOM      4  C   UNL     1       3.826   4.559  17.309  0.00  0.00    +0.000 A 
ATOM      5  C   UNL     1       3.580   5.865  17.762  0.00  0.00    +0.000 A 
ATOM      6  C   UNL     1       4.546   6.854  17.502  0.00  0.00    +0.000 A 
ATOM      7  C   UNL     1       5.781   6.555  16.907  0.00  0.00    +0.000 A 
ATOM      8  C   UNL     1       2.277   6.207  18.491  0.00  0.00    +0.000 C 
ATOM      9  O   UNL     1       1.617   5.014  18.933  0.00  0.00    +0.000 OA
ATOM     10  C   UNL     1       1.453   4.063  17.885  0.00  0.00    +0.000 C 
ATOM     11  C   UNL     1       2.813   3.470  17.544  0.00  0.00    +0.000 C 
BRANCH   2  13
ATOM     12  C   UNL     1       7.177   4.821  14.472  0.00  0.00    +0.000 C 
ATOM     13  O   UNL     1       7.163   4.759  15.893  0.00  0.00    +0.000 OA
ENDBRANCH   2  13
BRANCH   7  14
ATOM     14  O   UNL     1       6.740   7.501  16.666  0.00  0.00    +0.000 OA
ATOM     15  C   UNL     1       7.703   7.756  17.682  0.00  0.00    +0.000 C 
ENDBRANCH   7  14
ENDBRANCH   1   8
BRANCH   1  16
ATOM     16  C   UNL     1       1.382   8.037  20.163  0.00  0.00    +0.000 C 
BRANCH  16  17
ATOM     17  N   UNL     1       1.549   9.470  19.935  0.00  0.00    +0.000 NA
ATOM     18  C   UNL     1       0.937   9.956  18.680  0.00  0.00    +0.000 C 
ATOM     19  C   UNL     1      -0.605  10.069  18.701  0.00  0.00    +0.000 C 
ATOM     20  N   UNL     1      -1.016  10.919  19.826  0.00  0.00    +0.000 N 
ATOM     21  C   UNL     1      -0.492  10.480  21.133  0.00  0.00    +0.000 C 
ATOM     22  C   UNL     1       1.044  10.285  21.064  0.00  0.00    +0.000 C 
BRANCH  20  23
ATOM     23  C   UNL     1      -2.197  11.645  19.772  0.00  0.00    +0.000 A 
ATOM     24  C   UNL     1      -2.647  12.449  20.832  0.00  0.00    +0.000 A 
ATOM     25  C   UNL     1      -3.886  13.100  20.790  0.00  0.00    +0.000 A 
ATOM     26  C   UNL     1      -4.710  12.957  19.679  0.00  0.00    +0.000 A 
ATOM     27  C   UNL     1      -4.284  12.172  18.616  0.00  0.00    +0.000 A 
ATOM     28 CL   UNL     1      -5.305  11.964  17.245  0.00  0.00    +0.000 Cl
ATOM     29  C   UNL     1      -3.045  11.530  18.658  0.00  0.00    +0.000 A 
ENDBRANCH  20  23
ENDBRANCH  16  17
ENDBRANCH   1  16
TORSDOF 6
ENDMDL
MODEL 7
REMARK VINA RESULT:      -7.2      2.579      3.259
REMARK  Name = 
REMARK  8 active torsions:
REMARK  status: ('A' for Active; 'I' for Inactive)
REMARK    1  A    between atoms: C_1  and  O_2
REMARK    2  A    between atoms: O_2  and  C_3
REMARK    3  A    between atoms: C_8  and  O_9
REMARK    4  A    between atoms: O_9  and  C_10
REMARK    5  A    between atoms: C_11  and  C_12
REMARK    6  A    between atoms: C_12  and  C_13
REMARK    7  A    between atoms: C_13  and  N_14
REMARK    8  A    between atoms: N_17  and  C_18
REMARK                            x       y       z     vdW  Elec       q    Type
REMARK                         _______ _______ _______ _____ _____    ______ ____
ROOT
ATOM      1  C   UNL     1       2.341   6.383  19.947  0.00  0.00    +0.000 C 
ENDROOT
BRANCH   1   8
ATOM      2  C   UNL     1       5.760   4.911  16.459  0.00  0.00    +0.000 A 
ATOM      3  C   UNL     1       4.831   3.875  16.607  0.00  0.00    +0.000 A 
ATOM      4  C   UNL     1       3.628   4.069  17.300  0.00  0.00    +0.000 A 
ATOM      5  C   UNL     1       3.344   5.324  17.863  0.00  0.00    +0.000 A 
ATOM      6  C   UNL     1       4.249   6.376  17.636  0.00  0.00    +0.000 A 
ATOM      7  C   UNL     1       5.464   6.186  16.963  0.00  0.00    +0.000 A 
ATOM      8  C   UNL     1       2.064   5.544  18.676  0.00  0.00    +0.000 C 
ATOM      9  O   UNL     1       1.484   4.289  19.054  0.00  0.00    +0.000 OA
ATOM     10  C   UNL     1       1.313   3.413  17.945  0.00  0.00    +0.000 C 
ATOM     11  C   UNL     1       2.680   2.917  17.496  0.00  0.00    +0.000 C 
BRANCH   2  13
ATOM     12  C   UNL     1       6.779   4.609  14.332  0.00  0.00    +0.000 C 
ATOM     13  O   UNL     1       6.877   4.543  15.750  0.00  0.00    +0.000 OA
ENDBRANCH   2  13
BRANCH   7  14
ATOM     14  O   UNL     1       6.365   7.195  16.752  0.00  0.00    +0.000 OA
ATOM     15  C   UNL     1       7.447   7.333  17.665  0.00  0.00    +0.000 C 
ENDBRANCH   7  14
ENDBRANCH   1   8
BRANCH   1  16
ATOM     16  C   UNL     1       2.347   7.913  19.793  0.00  0.00    +0.000 C 
BRANCH  16  17
ATOM     17  N   UNL     1       1.201   8.506  19.109  0.00  0.00    +0.000 NA
ATOM     18  C   UNL     1       0.422   9.448  19.943  0.00  0.00    +0.000 C 
ATOM     19  C   UNL     1       1.086  10.825  20.173  0.00  0.00    +0.000 C 
ATOM     20  N   UNL     1       1.397  11.438  18.875  0.00  0.00    +0.000 N 
ATOM     21  C   UNL     1       2.217  10.588  17.990  0.00  0.00    +0.000 C 
ATOM     22  C   UNL     1       1.580   9.182  17.848  0.00  0.00    +0.000 C 
BRANCH  20  23
ATOM     23  C   UNL     1       1.447  12.818  18.735  0.00  0.00    +0.000 A 
ATOM     24  C   UNL     1       2.595  13.498  18.297  0.00  0.00    +0.000 A 
ATOM     25  C   UNL     1       2.651  14.897  18.251  0.00  0.00    +0.000 A 
ATOM     26  C   UNL     1       1.553  15.651  18.650  0.00  0.00    +0.000 A 
ATOM     27  C   UNL     1       0.405  15.000  19.082  0.00  0.00    +0.000 A 
ATOM     28 CL   UNL     1      -0.953  15.920  19.605  0.00  0.00    +0.000 Cl
ATOM     29  C   UNL     1       0.350  13.605  19.120  0.00  0.00    +0.000 A 
ENDBRANCH  20  23
ENDBRANCH  16  17
ENDBRANCH   1  16
TORSDOF 6
ENDMDL
MODEL 8
REMARK VINA RESULT:      -7.2      1.454      1.996
REMARK  Name = 
REMARK  8 active torsions:
REMARK  status: ('A' for Active; 'I' for Inactive)
REMARK    1  A    between atoms: C_1  and  O_2
REMARK    2  A    between atoms: O_2  and  C_3
REMARK    3  A    between atoms: C_8  and  O_9
REMARK    4  A    between atoms: O_9  and  C_10
REMARK    5  A    between atoms: C_11  and  C_12
REMARK    6  A    between atoms: C_12  and  C_13
REMARK    7  A    between atoms: C_13  and  N_14
REMARK    8  A    between atoms: N_17  and  C_18
REMARK                            x       y       z     vdW  Elec       q    Type
REMARK                         _______ _______ _______ _____ _____    ______ ____
ROOT
ATOM      1  C   UNL     1       2.581   5.688  20.220  0.00  0.00    +0.000 C 
ENDROOT
BRANCH   1   8
ATOM      2  C   UNL     1       5.702   4.866  16.270  0.00  0.00    +0.000 A 
ATOM      3  C   UNL     1       4.965   3.694  16.481  0.00  0.00    +0.000 A 
ATOM      4  C   UNL     1       3.847   3.680  17.325  0.00  0.00    +0.000 A 
ATOM      5  C   UNL     1       3.453   4.858  17.980  0.00  0.00    +0.000 A 
ATOM      6  C   UNL     1       4.153   6.044  17.694  0.00  0.00    +0.000 A 
ATOM      7  C   UNL     1       5.286   6.064  16.868  0.00  0.00    +0.000 A 
ATOM      8  C   UNL     1       2.271   4.854  18.954  0.00  0.00    +0.000 C 
ATOM      9  O   UNL     1       1.940   3.513  19.340  0.00  0.00    +0.000 OA
ATOM     10  C   UNL     1       1.760   2.654  18.219  0.00  0.00    +0.000 C 
ATOM     11  C   UNL     1       3.116   2.389  17.581  0.00  0.00    +0.000 C 
BRANCH   2  13
ATOM     12  C   UNL     1       6.477   4.055  14.174  0.00  0.00    +0.000 C 
ATOM     13  O   UNL     1       6.760   4.696  15.412  0.00  0.00    +0.000 OA
ENDBRANCH   2  13
BRANCH   7  14
ATOM     14  O   UNL     1       5.990   7.206  16.596  0.00  0.00    +0.000 OA
ATOM     15  C   UNL     1       7.161   7.471  17.359  0.00  0.00    +0.000 C 
ENDBRANCH   7  14
ENDBRANCH   1   8
BRANCH   1  16
ATOM     16  C   UNL     1       1.535   6.731  20.650  0.00  0.00    +0.000 C 
BRANCH  16  17
ATOM     17  N   UNL     1       1.973   8.124  20.677  0.00  0.00    +0.000 NA
ATOM     18  C   UNL     1       1.786   8.840  19.397  0.00  0.00    +0.000 C 
ATOM     19  C   UNL     1       0.327   9.233  19.071  0.00  0.00    +0.000 C 
ATOM     20  N   UNL     1      -0.223  10.026  20.179  0.00  0.00    +0.000 N 
ATOM     21  C   UNL     1      -0.126   9.367  21.495  0.00  0.00    +0.000 C 
ATOM     22  C   UNL     1       1.328   8.899  21.761  0.00  0.00    +0.000 C 
BRANCH  20  23
ATOM     23  C   UNL     1      -1.225  10.960  19.954  0.00  0.00    +0.000 A 
ATOM     24  C   UNL     1      -1.551  11.964  20.879  0.00  0.00    +0.000 A 
ATOM     25  C   UNL     1      -2.625  12.839  20.671  0.00  0.00    +0.000 A 
ATOM     26  C   UNL     1      -3.405  12.723  19.525  0.00  0.00    +0.000 A 
ATOM     27  C   UNL     1      -3.097  11.740  18.593  0.00  0.00    +0.000 A 
ATOM     28 CL   UNL     1      -4.069  11.567  17.183  0.00  0.00    +0.000 Cl
ATOM     29  C   UNL     1      -2.021  10.875  18.801  0.00  0.00    +0.000 A 
ENDBRANCH  20  23
ENDBRANCH  16  17
ENDBRANCH   1  16
TORSDOF 6
ENDMDL
MODEL 9
REMARK VINA RESULT:      -7.2      4.499     10.110
REMARK  Name = 
REMARK  8 active torsions:
REMARK  status: ('A' for Active; 'I' for Inactive)
REMARK    1  A    between atoms: C_1  and  O_2
REMARK    2  A    between atoms: O_2  and  C_3
REMARK    3  A    between atoms: C_8  and  O_9
REMARK    4  A    between atoms: O_9  and  C_10
REMARK    5  A    between atoms: C_11  and  C_12
REMARK    6  A    between atoms: C_12  and  C_13
REMARK    7  A    between atoms: C_13  and  N_14
REMARK    8  A    between atoms: N_17  and  C_18
REMARK                            x       y       z     vdW  Elec       q    Type
REMARK                         _______ _______ _______ _____ _____    ______ ____
ROOT
ATOM      1  C   UNL     1      -1.587  11.845  19.525  0.00  0.00    +0.000 C 
ENDROOT
BRANCH   1   8
ATOM      2  C   UNL     1      -6.349  13.000  18.108  0.00  0.00    +0.000 A 
ATOM      3  C   UNL     1      -5.731  12.350  17.033  0.00  0.00    +0.000 A 
ATOM      4  C   UNL     1      -4.510  11.682  17.192  0.00  0.00    +0.000 A 
ATOM      5  C   UNL     1      -3.884  11.663  18.449  0.00  0.00    +0.000 A 
ATOM      6  C   UNL     1      -4.556  12.250  19.536  0.00  0.00    +0.000 A 
ATOM      7  C   UNL     1      -5.768  12.939  19.383  0.00  0.00    +0.000 A 
ATOM      8  C   UNL     1      -2.520  10.991  18.633  0.00  0.00    +0.000 C 
ATOM      9  O   UNL     1      -1.890  10.771  17.364  0.00  0.00    +0.000 OA
ATOM     10  C   UNL     1      -2.741  10.094  16.445  0.00  0.00    +0.000 C 
ATOM     11  C   UNL     1      -3.841  11.048  16.001  0.00  0.00    +0.000 C 
BRANCH   2  13
ATOM     12  C   UNL     1      -7.513  14.478  16.654  0.00  0.00    +0.000 C 
ATOM     13  O   UNL     1      -7.539  13.598  17.772  0.00  0.00    +0.000 OA
ENDBRANCH   2  13
BRANCH   7  14
ATOM     14  O   UNL     1      -6.424  13.534  20.427  0.00  0.00    +0.000 OA
ATOM     15  C   UNL     1      -7.107  12.698  21.354  0.00  0.00    +0.000 C 
ENDBRANCH   7  14
ENDBRANCH   1   8
BRANCH   1  16
ATOM     16  C   UNL     1      -0.914  11.141  20.716  0.00  0.00    +0.000 C 
BRANCH  16  17
ATOM     17  N   UNL     1       0.546  11.103  20.713  0.00  0.00    +0.000 NA
ATOM     18  C   UNL     1       1.127  10.155  21.689  0.00  0.00    +0.000 C 
ATOM     19  C   UNL     1       1.017   8.663  21.300  0.00  0.00    +0.000 C 
ATOM     20  N   UNL     1       1.622   8.458  19.977  0.00  0.00    +0.000 N 
ATOM     21  C   UNL     1       1.068   9.329  18.923  0.00  0.00    +0.000 C 
ATOM     22  C   UNL     1       1.102  10.813  19.372  0.00  0.00    +0.000 C 
BRANCH  20  23
ATOM     23  C   UNL     1       2.175   7.234  19.631  0.00  0.00    +0.000 A 
ATOM     24  C   UNL     1       2.909   7.036  18.451  0.00  0.00    +0.000 A 
ATOM     25  C   UNL     1       3.380   5.771  18.078  0.00  0.00    +0.000 A 
ATOM     26  C   UNL     1       3.121   4.667  18.883  0.00  0.00    +0.000 A 
ATOM     27  C   UNL     1       2.402   4.840  20.059  0.00  0.00    +0.000 A 
ATOM     28 CL   UNL     1       2.050   3.478  21.052  0.00  0.00    +0.000 Cl
ATOM     29  C   UNL     1       1.940   6.103  20.431  0.00  0.00    +0.000 A 
ENDBRANCH  20  23
ENDBRANCH  16  17
ENDBRANCH   1  16
TORSDOF 6
ENDMDL
