MODEL 1
REMARK VINA RESULT:      -8.3      0.000      0.000
REMARK  Name = 
REMARK  4 active torsions:
REMARK  status: ('A' for Active; 'I' for Inactive)
REMARK    1  A    between atoms: O_1  and  C_2
REMARK    2  A    between atoms: C_5  and  C_6
REMARK    3  A    between atoms: C_6  and  C_7
REMARK    4  A    between atoms: C_10  and  O_11
REMARK                            x       y       z     vdW  Elec       q    Type
REMARK                         _______ _______ _______ _____ _____    ______ ____
ROOT
ATOM      1  C   UNL     1       2.559   6.959  20.377  0.00  0.00    +0.000 C 
ENDROOT
BRANCH   1   5
ATOM      2  C   UNL     1       1.570   2.998  18.984  0.00  0.00    +0.000 A 
ATOM      3  C   UNL     1       0.847   3.586  20.021  0.00  0.00    +0.000 A 
ATOM      4  C   UNL     1       1.188   4.860  20.455  0.00  0.00    +0.000 A 
ATOM      5  C   UNL     1       2.252   5.557  19.858  0.00  0.00    +0.000 A 
ATOM      6  C   UNL     1       2.965   4.959  18.774  0.00  0.00    +0.000 A 
ATOM      7  C   UNL     1       4.007   5.606  18.074  0.00  0.00    +0.000 A 
ATOM      8  C   UNL     1       4.664   4.979  17.023  0.00  0.00    +0.000 A 
ATOM      9  C   UNL     1       4.268   3.705  16.687  0.00  0.00    +0.000 A 
ATOM     10  N   UNL     1       3.277   3.047  17.316  0.00  0.00    +0.000 NA
ATOM     11  C   UNL     1       2.625   3.654  18.336  0.00  0.00    +0.000 A 
BRANCH   2  12
ATOM     12  O   UNL     1       1.221   1.729  18.575  0.00  0.00    +0.000 OA
ATOM     13  H   UNL     1       0.900   1.757  17.662  0.00  0.00    +0.000 HD
ENDBRANCH   2  12
ENDBRANCH   1   5
BRANCH   1  14
ATOM     14  C   UNL     1       1.760   8.112  19.780  0.00  0.00    +0.000 A 
ATOM     15  C   UNL     1       1.813   8.377  18.401  0.00  0.00    +0.000 A 
ATOM     16  C   UNL     1       1.129   9.452  17.851  0.00  0.00    +0.000 A 
ATOM     17  C   UNL     1       0.368  10.275  18.676  0.00  0.00    +0.000 A 
ATOM     18  C   UNL     1       0.240  10.046  20.050  0.00  0.00    +0.000 A 
ATOM     19  N   UNL     1      -0.535  10.865  20.798  0.00  0.00    +0.000 NA
ATOM     20  C   UNL     1      -0.664  10.625  22.115  0.00  0.00    +0.000 A 
ATOM     21  C   UNL     1      -0.043   9.581  22.759  0.00  0.00    +0.000 A 
ATOM     22  C   UNL     1       0.766   8.741  21.998  0.00  0.00    +0.000 A 
ATOM     23  C   UNL     1       0.939   8.946  20.610  0.00  0.00    +0.000 A 
BRANCH  17  24
ATOM     24  O   UNL     1      -0.279  11.350  18.110  0.00  0.00    +0.000 OA
ATOM     25  H   UNL     1      -1.151  11.450  18.518  0.00  0.00    +0.000 HD
ENDBRANCH  17  24
ENDBRANCH   1  14
TORSDOF 4
ENDMDL
MODEL 2
REMARK VINA RESULT:      -8.3      0.065      7.137
REMARK  Name = 
REMARK  4 active torsions:
REMARK  status: ('A' for Active; 'I' for Inactive)
REMARK    1  A    between atoms: O_1  and  C_2
REMARK    2  A    between atoms: C_5  and  C_6
REMARK    3  A    between atoms: C_6  and  C_7
REMARK    4  A    between atoms: C_10  and  O_11
REMARK                            x       y       z     vdW  Elec       q    Type
REMARK                         _______ _______ _______ _____ _____    ______ ____
ROOT
ATOM      1  C   UNL     1       2.569   6.902  20.412  0.00  0.00    +0.000 C 
ENDROOT
BRANCH   1   5
ATOM      2  C   UNL     1       0.410  10.207  18.673  0.00  0.00    +0.000 A 
ATOM      3  C   UNL     1       1.185   9.369  17.874  0.00  0.00    +0.000 A 
ATOM      4  C   UNL     1       1.876   8.315  18.458  0.00  0.00    +0.000 A 
ATOM      5  C   UNL     1       1.796   8.089  19.843  0.00  0.00    +0.000 A 
ATOM      6  C   UNL     1       0.972   8.934  20.648  0.00  0.00    +0.000 A 
ATOM      7  C   UNL     1       0.783   8.747  22.035  0.00  0.00    +0.000 A 
ATOM      8  C   UNL     1      -0.034   9.597  22.769  0.00  0.00    +0.000 A 
ATOM      9  C   UNL     1      -0.653  10.629  22.101  0.00  0.00    +0.000 A 
ATOM     10  N   UNL     1      -0.513  10.846  20.780  0.00  0.00    +0.000 NA
ATOM     11  C   UNL     1       0.275  10.017  20.055  0.00  0.00    +0.000 A 
BRANCH   2  12
ATOM     12  O   UNL     1      -0.259  11.253  18.075  0.00  0.00    +0.000 OA
ATOM     13  H   UNL     1      -0.687  10.945  17.263  0.00  0.00    +0.000 HD
ENDBRANCH   2  12
ENDBRANCH   1   5
BRANCH   1  14
ATOM     14  C   UNL     1       2.212   5.519  19.877  0.00  0.00    +0.000 A 
ATOM     15  C   UNL     1       1.148   4.791  20.436  0.00  0.00    +0.000 A 
ATOM     16  C   UNL     1       0.843   3.512  19.992  0.00  0.00    +0.000 A 
ATOM     17  C   UNL     1       1.594   2.945  18.967  0.00  0.00    +0.000 A 
ATOM     18  C   UNL     1       2.641   3.629  18.339  0.00  0.00    +0.000 A 
ATOM     19  N   UNL     1       3.319   3.037  17.329  0.00  0.00    +0.000 NA
ATOM     20  C   UNL     1       4.313   3.710  16.721  0.00  0.00    +0.000 A 
ATOM     21  C   UNL     1       4.689   4.985  17.072  0.00  0.00    +0.000 A 
ATOM     22  C   UNL     1       4.003   5.597  18.118  0.00  0.00    +0.000 A 
ATOM     23  C   UNL     1       2.951   4.937  18.793  0.00  0.00    +0.000 A 
BRANCH  17  24
ATOM     24  O   UNL     1       1.288   1.666  18.562  0.00  0.00    +0.000 OA
ATOM     25  H   UNL     1       2.104   1.200  18.329  0.00  0.00    +0.000 HD
ENDBRANCH  17  24
ENDBRANCH   1  14
TORSDOF 4
ENDMDL
MODEL 3
REMARK VINA RESULT:      -7.9      1.117      2.321
REMARK  Name = 
REMARK  4 active torsions:
REMARK  status: ('A' for Active; 'I' for Inactive)
REMARK    1  A    between atoms: O_1  and  C_2
REMARK    2  A    between atoms: C_5  and  C_6
REMARK    3  A    between atoms: C_6  and  C_7
REMARK    4  A    between atoms: C_10  and  O_11
REMARK                            x       y       z     vdW  Elec       q    Type
REMARK                         _______ _______ _______ _____ _____    ______ ____
ROOT
ATOM      1  C   UNL     1       2.483   6.725  20.418  0.00  0.00    +0.000 C 
ENDROOT
BRANCH   1   5
ATOM      2  C   UNL     1       4.325   3.879  17.750  0.00  0.00    +0.000 A 
ATOM      3  C   UNL     1       4.956   5.087  18.044  0.00  0.00    +0.000 A 
ATOM      4  C   UNL     1       4.340   5.989  18.901  0.00  0.00    +0.000 A 
ATOM      5  C   UNL     1       3.091   5.693  19.473  0.00  0.00    +0.000 A 
ATOM      6  C   UNL     1       2.468   4.438  19.191  0.00  0.00    +0.000 A 
ATOM      7  C   UNL     1       1.245   4.028  19.765  0.00  0.00    +0.000 A 
ATOM      8  C   UNL     1       0.685   2.794  19.460  0.00  0.00    +0.000 A 
ATOM      9  C   UNL     1       1.362   1.983  18.577  0.00  0.00    +0.000 A 
ATOM     10  N   UNL     1       2.534   2.322  18.008  0.00  0.00    +0.000 NA
ATOM     11  C   UNL     1       3.090   3.520  18.307  0.00  0.00    +0.000 A 
BRANCH   2  12
ATOM     12  O   UNL     1       4.949   3.003  16.889  0.00  0.00    +0.000 OA
ATOM     13  H   UNL     1       4.293   2.408  16.496  0.00  0.00    +0.000 HD
ENDBRANCH   2  12
ENDBRANCH   1   5
BRANCH   1  14
ATOM     14  C   UNL     1       1.850   7.960  19.786  0.00  0.00    +0.000 A 
ATOM     15  C   UNL     1       2.021   8.227  18.417  0.00  0.00    +0.000 A 
ATOM     16  C   UNL     1       1.491   9.372  17.839  0.00  0.00    +0.000 A 
ATOM     17  C   UNL     1       0.768  10.264  18.623  0.00  0.00    +0.000 A 
ATOM     18  C   UNL     1       0.526  10.040  19.983  0.00  0.00    +0.000 A 
ATOM     19  N   UNL     1      -0.208  10.931  20.690  0.00  0.00    +0.000 NA
ATOM     20  C   UNL     1      -0.449  10.697  21.993  0.00  0.00    +0.000 A 
ATOM     21  C   UNL     1       0.016   9.589  22.661  0.00  0.00    +0.000 A 
ATOM     22  C   UNL     1       0.782   8.674  21.943  0.00  0.00    +0.000 A 
ATOM     23  C   UNL     1       1.067   8.869  20.573  0.00  0.00    +0.000 A 
BRANCH  17  24
ATOM     24  O   UNL     1       0.275  11.405  18.031  0.00  0.00    +0.000 OA
ATOM     25  H   UNL     1      -0.388  11.807  18.612  0.00  0.00    +0.000 HD
ENDBRANCH  17  24
ENDBRANCH   1  14
TORSDOF 4
ENDMDL
MODEL 4
REMARK VINA RESULT:      -7.8      1.185      7.056
REMARK  Name = 
REMARK  4 active torsions:
REMARK  status: ('A' for Active; 'I' for Inactive)
REMARK    1  A    between atoms: O_1  and  C_2
REMARK    2  A    between atoms: C_5  and  C_6
REMARK    3  A    between atoms: C_6  and  C_7
REMARK    4  A    between atoms: C_10  and  O_11
REMARK                            x       y       z     vdW  Elec       q    Type
REMARK                         _______ _______ _______ _____ _____    ______ ____
ROOT
ATOM      1  C   UNL     1       2.185   6.642  20.435  0.00  0.00    +0.000 C 
ENDROOT
BRANCH   1   5
ATOM      2  C   UNL     1       0.997  10.386  18.653  0.00  0.00    +0.000 A 
ATOM      3  C   UNL     1       1.650   9.416  17.894  0.00  0.00    +0.000 A 
ATOM      4  C   UNL     1       2.028   8.221  18.492  0.00  0.00    +0.000 A 
ATOM      5  C   UNL     1       1.755   7.984  19.850  0.00  0.00    +0.000 A 
ATOM      6  C   UNL     1       1.055   8.972  20.610  0.00  0.00    +0.000 A 
ATOM      7  C   UNL     1       0.684   8.798  21.962  0.00  0.00    +0.000 A 
ATOM      8  C   UNL     1      -0.000   9.790  22.652  0.00  0.00    +0.000 A 
ATOM      9  C   UNL     1      -0.304  10.949  21.976  0.00  0.00    +0.000 A 
ATOM     10  N   UNL     1       0.019  11.162  20.687  0.00  0.00    +0.000 NA
ATOM     11  C   UNL     1       0.678  10.197  20.004  0.00  0.00    +0.000 A 
BRANCH   2  12
ATOM     12  O   UNL     1       0.640  11.569  18.042  0.00  0.00    +0.000 OA
ATOM     13  H   UNL     1       0.004  11.391  17.334  0.00  0.00    +0.000 HD
ENDBRANCH   2  12
ENDBRANCH   1   5
BRANCH   1  14
ATOM     14  C   UNL     1       2.969   5.704  19.522  0.00  0.00    +0.000 A 
ATOM     15  C   UNL     1       4.222   6.088  19.015  0.00  0.00    +0.000 A 
ATOM     16  C   UNL     1       4.924   5.265  18.145  0.00  0.00    +0.000 A 
ATOM     17  C   UNL     1       4.386   4.035  17.780  0.00  0.00    +0.000 A 
ATOM     18  C   UNL     1       3.163   3.574  18.280  0.00  0.00    +0.000 A 
ATOM     19  N   UNL     1       2.702   2.357  17.909  0.00  0.00    +0.000 NA
ATOM     20  C   UNL     1       1.533   1.917  18.408  0.00  0.00    +0.000 A 
ATOM     21  C   UNL     1       0.764   2.644  19.286  0.00  0.00    +0.000 A 
ATOM     22  C   UNL     1       1.226   3.903  19.663  0.00  0.00    +0.000 A 
ATOM     23  C   UNL     1       2.447   4.416  19.169  0.00  0.00    +0.000 A 
BRANCH  17  24
ATOM     24  O   UNL     1       5.090   3.249  16.896  0.00  0.00    +0.000 OA
ATOM     25  H   UNL     1       4.671   2.379  16.836  0.00  0.00    +0.000 HD
ENDBRANCH  17  24
ENDBRANCH   1  14
TORSDOF 4
ENDMDL
MODEL 5
REMARK VINA RESULT:      -7.5      2.081      3.445
REMARK  Name = 
REMARK  4 active torsions:
REMARK  status: ('A' for Active; 'I' for Inactive)
REMARK    1  A    between atoms: O_1  and  C_2
REMARK    2  A    between atoms: C_5  and  C_6
REMARK    3  A    between atoms: C_6  and  C_7
REMARK    4  A    between atoms: C_10  and  O_11
REMARK                            x       y       z     vdW  Elec       q    Type
REMARK                         _______ _______ _______ _____ _____    ______ ____
ROOT
ATOM      1  C   UNL     1       2.203   7.689  17.833  0.00  0.00    +0.000 C 
ENDROOT
BRANCH   1   5
ATOM      2  C   UNL     1       5.419   4.814  17.892  0.00  0.00    +0.000 A 
ATOM      3  C   UNL     1       5.691   6.181  17.860  0.00  0.00    +0.000 A 
ATOM      4  C   UNL     1       4.638   7.087  17.836  0.00  0.00    +0.000 A 
ATOM      5  C   UNL     1       3.307   6.636  17.844  0.00  0.00    +0.000 A 
ATOM      6  C   UNL     1       3.040   5.233  17.911  0.00  0.00    +0.000 A 
ATOM      7  C   UNL     1       1.739   4.690  17.984  0.00  0.00    +0.000 A 
ATOM      8  C   UNL     1       1.536   3.318  18.051  0.00  0.00    +0.000 A 
ATOM      9  C   UNL     1       2.645   2.504  18.042  0.00  0.00    +0.000 A 
ATOM     10  N   UNL     1       3.906   2.970  17.982  0.00  0.00    +0.000 NA
ATOM     11  C   UNL     1       4.114   4.307  17.924  0.00  0.00    +0.000 A 
BRANCH   2  12
ATOM     12  O   UNL     1       6.478   3.933  17.905  0.00  0.00    +0.000 OA
ATOM     13  H   UNL     1       7.009   4.072  18.703  0.00  0.00    +0.000 HD
ENDBRANCH   2  12
ENDBRANCH   1   5
BRANCH   1  14
ATOM     14  C   UNL     1       1.802   8.291  19.176  0.00  0.00    +0.000 A 
ATOM     15  C   UNL     1       1.699   7.480  20.318  0.00  0.00    +0.000 A 
ATOM     16  C   UNL     1       1.289   8.006  21.535  0.00  0.00    +0.000 A 
ATOM     17  C   UNL     1       0.987   9.360  21.630  0.00  0.00    +0.000 A 
ATOM     18  C   UNL     1       1.107  10.232  20.542  0.00  0.00    +0.000 A 
ATOM     19  N   UNL     1       0.825  11.546  20.701  0.00  0.00    +0.000 NA
ATOM     20  C   UNL     1       0.960  12.379  19.653  0.00  0.00    +0.000 A 
ATOM     21  C   UNL     1       1.372  11.967  18.407  0.00  0.00    +0.000 A 
ATOM     22  C   UNL     1       1.652  10.614  18.233  0.00  0.00    +0.000 A 
ATOM     23  C   UNL     1       1.527   9.694  19.299  0.00  0.00    +0.000 A 
BRANCH  17  24
ATOM     24  O   UNL     1       0.558   9.852  22.842  0.00  0.00    +0.000 OA
ATOM     25  H   UNL     1       0.677   9.174  23.523  0.00  0.00    +0.000 HD
ENDBRANCH  17  24
ENDBRANCH   1  14
TORSDOF 4
ENDMDL
MODEL 6
REMARK VINA RESULT:      -7.4      2.111      6.893
REMARK  Name = 
REMARK  4 active torsions:
REMARK  status: ('A' for Active; 'I' for Inactive)
REMARK    1  A    between atoms: O_1  and  C_2
REMARK    2  A    between atoms: C_5  and  C_6
REMARK    3  A    between atoms: C_6  and  C_7
REMARK    4  A    between atoms: C_10  and  O_11
REMARK                            x       y       z     vdW  Elec       q    Type
REMARK                         _______ _______ _______ _____ _____    ______ ____
ROOT
ATOM      1  C   UNL     1       2.177   7.731  17.791  0.00  0.00    +0.000 C 
ENDROOT
BRANCH   1   5
ATOM      2  C   UNL     1       1.099   9.199  21.702  0.00  0.00    +0.000 A 
ATOM      3  C   UNL     1       1.471   7.868  21.522  0.00  0.00    +0.000 A 
ATOM      4  C   UNL     1       1.809   7.418  20.253  0.00  0.00    +0.000 A 
ATOM      5  C   UNL     1       1.778   8.292  19.153  0.00  0.00    +0.000 A 
ATOM      6  C   UNL     1       1.427   9.663  19.354  0.00  0.00    +0.000 A 
ATOM      7  C   UNL     1       1.427  10.627  18.322  0.00  0.00    +0.000 A 
ATOM      8  C   UNL     1       1.081  11.948  18.574  0.00  0.00    +0.000 A 
ATOM      9  C   UNL     1       0.736  12.287  19.862  0.00  0.00    +0.000 A 
ATOM     10  N   UNL     1       0.727  11.410  20.882  0.00  0.00    +0.000 NA
ATOM     11  C   UNL     1       1.072  10.121  20.648  0.00  0.00    +0.000 A 
BRANCH   2  12
ATOM     12  O   UNL     1       0.758   9.622  22.968  0.00  0.00    +0.000 OA
ATOM     13  H   UNL     1       1.024   8.955  23.618  0.00  0.00    +0.000 HD
ENDBRANCH   2  12
ENDBRANCH   1   5
BRANCH   1  14
ATOM     14  C   UNL     1       3.324   6.726  17.762  0.00  0.00    +0.000 A 
ATOM     15  C   UNL     1       4.657   7.167  17.700  0.00  0.00    +0.000 A 
ATOM     16  C   UNL     1       5.707   6.263  17.624  0.00  0.00    +0.000 A 
ATOM     17  C   UNL     1       5.439   4.898  17.622  0.00  0.00    +0.000 A 
ATOM     18  C   UNL     1       4.139   4.390  17.722  0.00  0.00    +0.000 A 
ATOM     19  N   UNL     1       3.941   3.052  17.742  0.00  0.00    +0.000 NA
ATOM     20  C   UNL     1       2.688   2.575  17.855  0.00  0.00    +0.000 A 
ATOM     21  C   UNL     1       1.577   3.379  17.951  0.00  0.00    +0.000 A 
ATOM     22  C   UNL     1       1.772   4.758  17.919  0.00  0.00    +0.000 A 
ATOM     23  C   UNL     1       3.066   5.315  17.800  0.00  0.00    +0.000 A 
BRANCH  17  24
ATOM     24  O   UNL     1       6.497   4.023  17.520  0.00  0.00    +0.000 OA
ATOM     25  H   UNL     1       6.632   3.791  16.590  0.00  0.00    +0.000 HD
ENDBRANCH  17  24
ENDBRANCH   1  14
TORSDOF 4
ENDMDL
MODEL 7
REMARK VINA RESULT:      -7.3      1.711      7.218
REMARK  Name = 
REMARK  4 active torsions:
REMARK  status: ('A' for Active; 'I' for Inactive)
REMARK    1  A    between atoms: O_1  and  C_2
REMARK    2  A    between atoms: C_5  and  C_6
REMARK    3  A    between atoms: C_6  and  C_7
REMARK    4  A    between atoms: C_10  and  O_11
REMARK                            x       y       z     vdW  Elec       q    Type
REMARK                         _______ _______ _______ _____ _____    ______ ____
ROOT
ATOM      1  C   UNL     1       1.959   8.101  19.170  0.00  0.00    +0.000 C 
ENDROOT
BRANCH   1   5
ATOM      2  C   UNL     1      -0.134  10.240  22.278  0.00  0.00    +0.000 A 
ATOM      3  C   UNL     1       0.839   9.294  22.599  0.00  0.00    +0.000 A 
ATOM      4  C   UNL     1       1.495   8.615  21.581  0.00  0.00    +0.000 A 
ATOM      5  C   UNL     1       1.186   8.874  20.235  0.00  0.00    +0.000 A 
ATOM      6  C   UNL     1       0.211   9.869  19.916  0.00  0.00    +0.000 A 
ATOM      7  C   UNL     1      -0.121  10.240  18.594  0.00  0.00    +0.000 A 
ATOM      8  C   UNL     1      -1.075  11.218  18.340  0.00  0.00    +0.000 A 
ATOM      9  C   UNL     1      -1.687  11.813  19.420  0.00  0.00    +0.000 A 
ATOM     10  N   UNL     1      -1.401  11.502  20.698  0.00  0.00    +0.000 NA
ATOM     11  C   UNL     1      -0.467  10.556  20.954  0.00  0.00    +0.000 A 
BRANCH   2  12
ATOM     12  O   UNL     1      -0.779  10.895  23.304  0.00  0.00    +0.000 OA
ATOM     13  H   UNL     1      -1.705  10.614  23.339  0.00  0.00    +0.000 HD
ENDBRANCH   2  12
ENDBRANCH   1   5
BRANCH   1  14
ATOM     14  C   UNL     1       2.328   6.656  19.489  0.00  0.00    +0.000 A 
ATOM     15  C   UNL     1       1.642   5.951  20.492  0.00  0.00    +0.000 A 
ATOM     16  C   UNL     1       1.999   4.652  20.826  0.00  0.00    +0.000 A 
ATOM     17  C   UNL     1       3.044   4.033  20.149  0.00  0.00    +0.000 A 
ATOM     18  C   UNL     1       3.743   4.663  19.113  0.00  0.00    +0.000 A 
ATOM     19  N   UNL     1       4.733   4.000  18.471  0.00  0.00    +0.000 NA
ATOM     20  C   UNL     1       5.387   4.610  17.466  0.00  0.00    +0.000 A 
ATOM     21  C   UNL     1       5.106   5.888  17.045  0.00  0.00    +0.000 A 
ATOM     22  C   UNL     1       4.096   6.580  17.708  0.00  0.00    +0.000 A 
ATOM     23  C   UNL     1       3.376   5.990  18.772  0.00  0.00    +0.000 A 
BRANCH  17  24
ATOM     24  O   UNL     1       3.396   2.754  20.516  0.00  0.00    +0.000 OA
ATOM     25  H   UNL     1       3.215   2.148  19.783  0.00  0.00    +0.000 HD
ENDBRANCH  17  24
ENDBRANCH   1  14
TORSDOF 4
ENDMDL
MODEL 8
REMARK VINA RESULT:      -7.3      1.714      2.672
REMARK  Name = 
REMARK  4 active torsions:
REMARK  status: ('A' for Active; 'I' for Inactive)
REMARK    1  A    between atoms: O_1  and  C_2
REMARK    2  A    between atoms: C_5  and  C_6
REMARK    3  A    between atoms: C_6  and  C_7
REMARK    4  A    between atoms: C_10  and  O_11
REMARK                            x       y       z     vdW  Elec       q    Type
REMARK                         _______ _______ _______ _____ _____    ______ ____
ROOT
ATOM      1  C   UNL     1       1.932   8.091  19.143  0.00  0.00    +0.000 C 
ENDROOT
BRANCH   1   5
ATOM      2  C   UNL     1       3.039   4.044  20.145  0.00  0.00    +0.000 A 
ATOM      3  C   UNL     1       1.977   4.670  20.795  0.00  0.00    +0.000 A 
ATOM      4  C   UNL     1       1.643   5.975  20.459  0.00  0.00    +0.000 A 
ATOM      5  C   UNL     1       2.366   6.665  19.471  0.00  0.00    +0.000 A 
ATOM      6  C   UNL     1       3.431   6.003  18.787  0.00  0.00    +0.000 A 
ATOM      7  C   UNL     1       4.172   6.594  17.740  0.00  0.00    +0.000 A 
ATOM      8  C   UNL     1       5.196   5.902  17.105  0.00  0.00    +0.000 A 
ATOM      9  C   UNL     1       5.466   4.622  17.531  0.00  0.00    +0.000 A 
ATOM     10  N   UNL     1       4.785   4.010  18.518  0.00  0.00    +0.000 NA
ATOM     11  C   UNL     1       3.780   4.673  19.136  0.00  0.00    +0.000 A 
BRANCH   2  12
ATOM     12  O   UNL     1       3.359   2.752  20.501  0.00  0.00    +0.000 OA
ATOM     13  H   UNL     1       4.322   2.645  20.509  0.00  0.00    +0.000 HD
ENDBRANCH   2  12
ENDBRANCH   1   5
BRANCH   1  14
ATOM     14  C   UNL     1       1.215   8.870  20.241  0.00  0.00    +0.000 A 
ATOM     15  C   UNL     1       1.487   8.608  21.594  0.00  0.00    +0.000 A 
ATOM     16  C   UNL     1       0.806   9.276  22.603  0.00  0.00    +0.000 A 
ATOM     17  C   UNL     1      -0.151  10.228  22.271  0.00  0.00    +0.000 A 
ATOM     18  C   UNL     1      -0.443  10.566  20.944  0.00  0.00    +0.000 A 
ATOM     19  N   UNL     1      -1.366  11.520  20.682  0.00  0.00    +0.000 NA
ATOM     20  C   UNL     1      -1.627  11.849  19.404  0.00  0.00    +0.000 A 
ATOM     21  C   UNL     1      -1.002  11.262  18.329  0.00  0.00    +0.000 A 
ATOM     22  C   UNL     1      -0.059  10.270  18.591  0.00  0.00    +0.000 A 
ATOM     23  C   UNL     1       0.253   9.884  19.914  0.00  0.00    +0.000 A 
BRANCH  17  24
ATOM     24  O   UNL     1      -0.830  10.857  23.290  0.00  0.00    +0.000 OA
ATOM     25  H   UNL     1      -1.498  10.256  23.649  0.00  0.00    +0.000 HD
ENDBRANCH  17  24
ENDBRANCH   1  14
TORSDOF 4
ENDMDL
MODEL 9
REMARK VINA RESULT:      -7.3      1.882      6.922
REMARK  Name = 
REMARK  4 active torsions:
REMARK  status: ('A' for Active; 'I' for Inactive)
REMARK    1  A    between atoms: O_1  and  C_2
REMARK    2  A    between atoms: C_5  and  C_6
REMARK    3  A    between atoms: C_6  and  C_7
REMARK    4  A    between atoms: C_10  and  O_11
REMARK                            x       y       z     vdW  Elec       q    Type
REMARK                         _______ _______ _______ _____ _____    ______ ____
ROOT
ATOM      1  C   UNL     1       1.425   7.369  18.214  0.00  0.00    +0.000 C 
ENDROOT
BRANCH   1   5
ATOM      2  C   UNL     1       1.630  11.485  19.490  0.00  0.00    +0.000 A 
ATOM      3  C   UNL     1       2.082  11.112  18.225  0.00  0.00    +0.000 A 
ATOM      4  C   UNL     1       2.010   9.780  17.839  0.00  0.00    +0.000 A 
ATOM      5  C   UNL     1       1.487   8.810  18.712  0.00  0.00    +0.000 A 
ATOM      6  C   UNL     1       0.996   9.209  19.993  0.00  0.00    +0.000 A 
ATOM      7  C   UNL     1       0.399   8.317  20.911  0.00  0.00    +0.000 A 
ATOM      8  C   UNL     1      -0.065   8.760  22.144  0.00  0.00    +0.000 A 
ATOM      9  C   UNL     1       0.077  10.095  22.441  0.00  0.00    +0.000 A 
ATOM     10  N   UNL     1       0.630  10.988  21.599  0.00  0.00    +0.000 NA
ATOM     11  C   UNL     1       1.078  10.567  20.393  0.00  0.00    +0.000 A 
BRANCH   2  12
ATOM     12  O   UNL     1       1.719  12.810  19.855  0.00  0.00    +0.000 OA
ATOM     13  H   UNL     1       2.185  12.885  20.701  0.00  0.00    +0.000 HD
ENDBRANCH   2  12
ENDBRANCH   1   5
BRANCH   1  14
ATOM     14  C   UNL     1       2.664   6.506  18.427  0.00  0.00    +0.000 A 
ATOM     15  C   UNL     1       3.877   6.831  17.795  0.00  0.00    +0.000 A 
ATOM     16  C   UNL     1       4.999   6.027  17.942  0.00  0.00    +0.000 A 
ATOM     17  C   UNL     1       4.927   4.888  18.737  0.00  0.00    +0.000 A 
ATOM     18  C   UNL     1       3.763   4.527  19.426  0.00  0.00    +0.000 A 
ATOM     19  N   UNL     1       3.761   3.422  20.206  0.00  0.00    +0.000 NA
ATOM     20  C   UNL     1       2.641   3.094  20.877  0.00  0.00    +0.000 A 
ATOM     21  C   UNL     1       1.480   3.826  20.814  0.00  0.00    +0.000 A 
ATOM     22  C   UNL     1       1.471   4.958  20.004  0.00  0.00    +0.000 A 
ATOM     23  C   UNL     1       2.618   5.350  19.276  0.00  0.00    +0.000 A 
BRANCH  17  24
ATOM     24  O   UNL     1       6.046   4.094  18.846  0.00  0.00    +0.000 OA
ATOM     25  H   UNL     1       6.835   4.654  18.873  0.00  0.00    +0.000 HD
ENDBRANCH  17  24
ENDBRANCH   1  14
TORSDOF 4
ENDMDL
