MODEL 1
REMARK VINA RESULT:      -8.4      0.000      0.000
REMARK  Name = 
REMARK  9 active torsions:
REMARK  status: ('A' for Active; 'I' for Inactive)
REMARK    1  A    between atoms: C_1  and  C_2
REMARK    2  A    between atoms: N_4  and  C_5
REMARK    3  A    between atoms: C_8  and  C_9
REMARK    4  A    between atoms: C_13  and  C_14
REMARK    5  A    between atoms: C_14  and  C_15
REMARK    6  A    between atoms: C_14  and  N_16
REMARK    7  A    between atoms: C_17  and  C_19
REMARK    8  A    between atoms: C_20  and  O_21
REMARK    9  A    between atoms: N_24  and  C_25
REMARK                            x       y       z     vdW  Elec       q    Type
REMARK                         _______ _______ _______ _____ _____    ______ ____
ROOT
ATOM      1  N   UNL     1      -0.151  12.832  19.525  0.00  0.00    +0.000 N 
ATOM      2  C   UNL     1       0.765  13.464  20.326  0.00  0.00    +0.000 C 
ATOM      3  O   UNL     1       0.817  13.321  21.545  0.00  0.00    +0.000 OA
ATOM      4  H   UNL     1      -0.113  12.899  18.518  0.00  0.00    +0.000 HD
ENDROOT
BRANCH   2   5
ATOM      5  C   UNL     1       1.728  14.351  19.655  0.00  0.00    +0.000 C 
ATOM      6  C   UNL     1       1.334  15.401  18.926  0.00  0.00    +0.000 C 
ATOM      7  C   UNL     1       2.559  16.058  18.397  0.00  0.00    +0.000 C 
ATOM      8  O   UNL     1       2.539  17.050  17.689  0.00  0.00    +0.000 OA
ATOM      9  N   UNL     1       3.647  15.312  18.862  0.00  0.00    +0.000 N 
ATOM     10  C   UNL     1       3.200  14.198  19.668  0.00  0.00    +0.000 C 
BRANCH   9  11
ATOM     11  C   UNL     1       5.026  15.571  18.607  0.00  0.00    +0.000 A 
ATOM     12  C   UNL     1       5.821  14.667  17.884  0.00  0.00    +0.000 A 
ATOM     13  C   UNL     1       7.173  14.930  17.630  0.00  0.00    +0.000 A 
ATOM     14  C   UNL     1       7.748  16.100  18.103  0.00  0.00    +0.000 A 
ATOM     15  F   UNL     1       9.040  16.348  17.859  0.00  0.00    +0.000 F 
ATOM     16  C   UNL     1       6.998  17.015  18.821  0.00  0.00    +0.000 A 
ATOM     17  C   UNL     1       5.652  16.749  19.062  0.00  0.00    +0.000 A 
ATOM     18  F   UNL     1       4.968  17.666  19.763  0.00  0.00    +0.000 F 
ENDBRANCH   9  11
BRANCH   6  19
ATOM     19  O   UNL     1       0.062  15.836  18.670  0.00  0.00    +0.000 OA
ATOM     20  H   UNL     1      -0.476  15.047  18.447  0.00  0.00    +0.000 HD
ENDBRANCH   6  19
ENDBRANCH   2   5
BRANCH   1  21
ATOM     21  C   UNL     1      -1.108  11.880  20.080  0.00  0.00    +0.000 C 
ATOM     22  C   UNL     1      -2.004  12.570  21.117  0.00  0.00    +0.000 C 
BRANCH  21  27
ATOM     23  C   UNL     1       1.166   8.747  20.285  0.00  0.00    +0.000 A 
ATOM     24  C   UNL     1       0.966   8.398  21.628  0.00  0.00    +0.000 A 
ATOM     25  C   UNL     1       0.104   9.137  22.444  0.00  0.00    +0.000 A 
ATOM     26  C   UNL     1      -0.575  10.246  21.934  0.00  0.00    +0.000 A 
ATOM     27  C   UNL     1      -0.383  10.651  20.608  0.00  0.00    +0.000 A 
ATOM     28  C   UNL     1       0.482   9.886  19.807  0.00  0.00    +0.000 A 
BRANCH  23  32
ATOM     29  C   UNL     1       3.655   6.348  17.668  0.00  0.00    +0.000 A 
ATOM     30  C   UNL     1       3.225   5.869  18.897  0.00  0.00    +0.000 A 
ATOM     31  C   UNL     1       2.442   6.663  19.740  0.00  0.00    +0.000 A 
ATOM     32  C   UNL     1       2.035   7.957  19.379  0.00  0.00    +0.000 A 
ATOM     33  C   UNL     1       2.490   8.438  18.139  0.00  0.00    +0.000 A 
ATOM     34  C   UNL     1       3.303   7.649  17.301  0.00  0.00    +0.000 A 
BRANCH  29  38
ATOM     35  C   UNL     1       6.223   4.964  15.289  0.00  0.00    +0.000 C 
ATOM     36  C   UNL     1       5.703   5.925  16.321  0.00  0.00    +0.000 C 
ATOM     37  O   UNL     1       6.376   6.892  16.664  0.00  0.00    +0.000 OA
ATOM     38  N   UNL     1       4.445   5.580  16.788  0.00  0.00    +0.000 N 
ATOM     39  H   UNL     1       4.092   4.664  16.543  0.00  0.00    +0.000 HD
ENDBRANCH  29  38
ENDBRANCH  23  32
ENDBRANCH  21  27
ENDBRANCH   1  21
TORSDOF 7
ENDMDL
MODEL 2
REMARK VINA RESULT:      -8.4      2.432      3.832
REMARK  Name = 
REMARK  9 active torsions:
REMARK  status: ('A' for Active; 'I' for Inactive)
REMARK    1  A    between atoms: C_1  and  C_2
REMARK    2  A    between atoms: N_4  and  C_5
REMARK    3  A    between atoms: C_8  and  C_9
REMARK    4  A    between atoms: C_13  and  C_14
REMARK    5  A    between atoms: C_14  and  C_15
REMARK    6  A    between atoms: C_14  and  N_16
REMARK    7  A    between atoms: C_17  and  C_19
REMARK    8  A    between atoms: C_20  and  O_21
REMARK    9  A    between atoms: N_24  and  C_25
REMARK                            x       y       z     vdW  Elec       q    Type
REMARK                         _______ _______ _______ _____ _____    ______ ____
ROOT
ATOM      1  N   UNL     1       2.716  14.492  19.134  0.00  0.00    +0.000 N 
ATOM      2  C   UNL     1       3.660  15.193  18.430  0.00  0.00    +0.000 C 
ATOM      3  O   UNL     1       3.388  16.013  17.555  0.00  0.00    +0.000 OA
ATOM      4  H   UNL     1       2.965  13.893  19.908  0.00  0.00    +0.000 HD
ENDROOT
BRANCH   2   5
ATOM      5  C   UNL     1       5.067  14.932  18.770  0.00  0.00    +0.000 C 
ATOM      6  C   UNL     1       5.520  15.027  20.026  0.00  0.00    +0.000 C 
ATOM      7  C   UNL     1       6.972  14.708  19.998  0.00  0.00    +0.000 C 
ATOM      8  O   UNL     1       7.681  14.708  20.990  0.00  0.00    +0.000 OA
ATOM      9  N   UNL     1       7.299  14.441  18.664  0.00  0.00    +0.000 N 
ATOM     10  C   UNL     1       6.136  14.571  17.814  0.00  0.00    +0.000 C 
BRANCH   9  11
ATOM     11  C   UNL     1       8.584  14.086  18.159  0.00  0.00    +0.000 A 
ATOM     12  C   UNL     1       8.947  12.745  17.951  0.00  0.00    +0.000 A 
ATOM     13  C   UNL     1      10.208  12.403  17.448  0.00  0.00    +0.000 A 
ATOM     14  C   UNL     1      11.127  13.400  17.154  0.00  0.00    +0.000 A 
ATOM     15  F   UNL     1      12.332  13.069  16.675  0.00  0.00    +0.000 F 
ATOM     16  C   UNL     1      10.808  14.733  17.348  0.00  0.00    +0.000 A 
ATOM     17  C   UNL     1       9.548  15.065  17.841  0.00  0.00    +0.000 A 
ATOM     18  F   UNL     1       9.288  16.369  18.011  0.00  0.00    +0.000 F 
ENDBRANCH   9  11
BRANCH   6  19
ATOM     19  O   UNL     1       4.832  15.360  21.161  0.00  0.00    +0.000 OA
ATOM     20  H   UNL     1       4.487  16.270  21.036  0.00  0.00    +0.000 HD
ENDBRANCH   6  19
ENDBRANCH   2   5
BRANCH   1  21
ATOM     21  C   UNL     1       1.290  14.725  18.922  0.00  0.00    +0.000 C 
ATOM     22  C   UNL     1       0.765  15.756  19.929  0.00  0.00    +0.000 C 
BRANCH  21  27
ATOM     23  C   UNL     1       0.500  10.929  18.981  0.00  0.00    +0.000 A 
ATOM     24  C   UNL     1      -0.901  10.981  18.989  0.00  0.00    +0.000 A 
ATOM     25  C   UNL     1      -1.577  12.204  18.953  0.00  0.00    +0.000 A 
ATOM     26  C   UNL     1      -0.866  13.405  18.912  0.00  0.00    +0.000 A 
ATOM     27  C   UNL     1       0.534  13.405  18.935  0.00  0.00    +0.000 A 
ATOM     28  C   UNL     1       1.189  12.162  18.962  0.00  0.00    +0.000 A 
BRANCH  23  32
ATOM     29  C   UNL     1       2.615   7.146  19.015  0.00  0.00    +0.000 A 
ATOM     30  C   UNL     1       1.944   7.610  20.137  0.00  0.00    +0.000 A 
ATOM     31  C   UNL     1       1.286   8.843  20.118  0.00  0.00    +0.000 A 
ATOM     32  C   UNL     1       1.249   9.650  18.970  0.00  0.00    +0.000 A 
ATOM     33  C   UNL     1       1.945   9.177  17.844  0.00  0.00    +0.000 A 
ATOM     34  C   UNL     1       2.633   7.947  17.871  0.00  0.00    +0.000 A 
BRANCH  29  38
ATOM     35  C   UNL     1       4.672   4.092  18.227  0.00  0.00    +0.000 C 
ATOM     36  C   UNL     1       4.241   5.522  18.060  0.00  0.00    +0.000 C 
ATOM     37  O   UNL     1       4.722   6.217  17.169  0.00  0.00    +0.000 OA
ATOM     38  N   UNL     1       3.291   5.908  18.992  0.00  0.00    +0.000 N 
ATOM     39  H   UNL     1       3.121   5.283  19.770  0.00  0.00    +0.000 HD
ENDBRANCH  29  38
ENDBRANCH  23  32
ENDBRANCH  21  27
ENDBRANCH   1  21
TORSDOF 7
ENDMDL
MODEL 3
REMARK VINA RESULT:      -8.3      0.737      1.099
REMARK  Name = 
REMARK  9 active torsions:
REMARK  status: ('A' for Active; 'I' for Inactive)
REMARK    1  A    between atoms: C_1  and  C_2
REMARK    2  A    between atoms: N_4  and  C_5
REMARK    3  A    between atoms: C_8  and  C_9
REMARK    4  A    between atoms: C_13  and  C_14
REMARK    5  A    between atoms: C_14  and  C_15
REMARK    6  A    between atoms: C_14  and  N_16
REMARK    7  A    between atoms: C_17  and  C_19
REMARK    8  A    between atoms: C_20  and  O_21
REMARK    9  A    between atoms: N_24  and  C_25
REMARK                            x       y       z     vdW  Elec       q    Type
REMARK                         _______ _______ _______ _____ _____    ______ ____
ROOT
ATOM      1  N   UNL     1      -0.143  13.381  19.704  0.00  0.00    +0.000 N 
ATOM      2  C   UNL     1       0.768  14.088  20.443  0.00  0.00    +0.000 C 
ATOM      3  O   UNL     1       0.762  14.132  21.672  0.00  0.00    +0.000 OA
ATOM      4  H   UNL     1      -0.060  13.290  18.702  0.00  0.00    +0.000 HD
ENDROOT
BRANCH   2   5
ATOM      5  C   UNL     1       1.802  14.819  19.694  0.00  0.00    +0.000 C 
ATOM      6  C   UNL     1       1.495  15.807  18.845  0.00  0.00    +0.000 C 
ATOM      7  C   UNL     1       2.770  16.307  18.266  0.00  0.00    +0.000 C 
ATOM      8  O   UNL     1       2.832  17.211  17.452  0.00  0.00    +0.000 OA
ATOM      9  N   UNL     1       3.795  15.539  18.831  0.00  0.00    +0.000 N 
ATOM     10  C   UNL     1       3.257  14.560  19.749  0.00  0.00    +0.000 C 
BRANCH   9  11
ATOM     11  C   UNL     1       5.191  15.664  18.571  0.00  0.00    +0.000 A 
ATOM     12  C   UNL     1       5.900  14.671  17.875  0.00  0.00    +0.000 A 
ATOM     13  C   UNL     1       7.271  14.803  17.618  0.00  0.00    +0.000 A 
ATOM     14  C   UNL     1       7.950  15.928  18.058  0.00  0.00    +0.000 A 
ATOM     15  F   UNL     1       9.260  16.050  17.810  0.00  0.00    +0.000 F 
ATOM     16  C   UNL     1       7.287  16.928  18.748  0.00  0.00    +0.000 A 
ATOM     17  C   UNL     1       5.922  16.792  18.994  0.00  0.00    +0.000 A 
ATOM     18  F   UNL     1       5.325  17.788  19.667  0.00  0.00    +0.000 F 
ENDBRANCH   9  11
BRANCH   6  19
ATOM     19  O   UNL     1       0.262  16.304  18.521  0.00  0.00    +0.000 OA
ATOM     20  H   UNL     1       0.338  16.717  17.634  0.00  0.00    +0.000 HD
ENDBRANCH   6  19
ENDBRANCH   2   5
BRANCH   1  21
ATOM     21  C   UNL     1      -1.169  12.567  20.350  0.00  0.00    +0.000 C 
ATOM     22  C   UNL     1      -1.975  13.416  21.341  0.00  0.00    +0.000 C 
BRANCH  21  27
ATOM     23  C   UNL     1       0.801   9.254  20.768  0.00  0.00    +0.000 A 
ATOM     24  C   UNL     1       0.620   9.044  22.142  0.00  0.00    +0.000 A 
ATOM     25  C   UNL     1      -0.135   9.933  22.913  0.00  0.00    +0.000 A 
ATOM     26  C   UNL     1      -0.724  11.055  22.327  0.00  0.00    +0.000 A 
ATOM     27  C   UNL     1      -0.545  11.323  20.964  0.00  0.00    +0.000 A 
ATOM     28  C   UNL     1       0.211  10.409  20.210  0.00  0.00    +0.000 A 
BRANCH  23  32
ATOM     29  C   UNL     1       3.057   6.571  18.217  0.00  0.00    +0.000 A 
ATOM     30  C   UNL     1       2.661   7.826  17.777  0.00  0.00    +0.000 A 
ATOM     31  C   UNL     1       1.914   8.671  18.603  0.00  0.00    +0.000 A 
ATOM     32  C   UNL     1       1.555   8.307  19.911  0.00  0.00    +0.000 A 
ATOM     33  C   UNL     1       1.947   7.028  20.340  0.00  0.00    +0.000 A 
ATOM     34  C   UNL     1       2.676   6.164  19.498  0.00  0.00    +0.000 A 
BRANCH  29  38
ATOM     35  C   UNL     1       5.703   4.608  16.396  0.00  0.00    +0.000 C 
ATOM     36  C   UNL     1       5.185   5.518  17.474  0.00  0.00    +0.000 C 
ATOM     37  O   UNL     1       5.956   6.025  18.283  0.00  0.00    +0.000 OA
ATOM     38  N   UNL     1       3.811   5.688  17.417  0.00  0.00    +0.000 N 
ATOM     39  H   UNL     1       3.291   5.072  16.806  0.00  0.00    +0.000 HD
ENDBRANCH  29  38
ENDBRANCH  23  32
ENDBRANCH  21  27
ENDBRANCH   1  21
TORSDOF 7
ENDMDL
MODEL 4
REMARK VINA RESULT:      -8.3      1.766      2.130
REMARK  Name = 
REMARK  9 active torsions:
REMARK  status: ('A' for Active; 'I' for Inactive)
REMARK    1  A    between atoms: C_1  and  C_2
REMARK    2  A    between atoms: N_4  and  C_5
REMARK    3  A    between atoms: C_8  and  C_9
REMARK    4  A    between atoms: C_13  and  C_14
REMARK    5  A    between atoms: C_14  and  C_15
REMARK    6  A    between atoms: C_14  and  N_16
REMARK    7  A    between atoms: C_17  and  C_19
REMARK    8  A    between atoms: C_20  and  O_21
REMARK    9  A    between atoms: N_24  and  C_25
REMARK                            x       y       z     vdW  Elec       q    Type
REMARK                         _______ _______ _______ _____ _____    ______ ____
ROOT
ATOM      1  N   UNL     1       1.051  13.782  21.175  0.00  0.00    +0.000 N 
ATOM      2  C   UNL     1       1.264  14.576  20.079  0.00  0.00    +0.000 C 
ATOM      3  O   UNL     1       0.388  14.863  19.265  0.00  0.00    +0.000 OA
ATOM      4  H   UNL     1       1.765  13.637  21.874  0.00  0.00    +0.000 HD
ENDROOT
BRANCH   2   5
ATOM      5  C   UNL     1       2.626  15.103  19.899  0.00  0.00    +0.000 C 
ATOM      6  C   UNL     1       2.852  16.378  19.564  0.00  0.00    +0.000 C 
ATOM      7  C   UNL     1       4.325  16.555  19.461  0.00  0.00    +0.000 C 
ATOM      8  O   UNL     1       4.858  17.612  19.169  0.00  0.00    +0.000 OA
ATOM      9  N   UNL     1       4.899  15.311  19.746  0.00  0.00    +0.000 N 
ATOM     10  C   UNL     1       3.879  14.327  20.029  0.00  0.00    +0.000 C 
BRANCH   9  11
ATOM     11  C   UNL     1       6.291  15.004  19.768  0.00  0.00    +0.000 A 
ATOM     12  C   UNL     1       7.003  14.907  20.975  0.00  0.00    +0.000 A 
ATOM     13  C   UNL     1       8.368  14.598  20.991  0.00  0.00    +0.000 A 
ATOM     14  C   UNL     1       9.042  14.389  19.796  0.00  0.00    +0.000 A 
ATOM     15  F   UNL     1      10.347  14.095  19.815  0.00  0.00    +0.000 F 
ATOM     16  C   UNL     1       8.376  14.478  18.586  0.00  0.00    +0.000 A 
ATOM     17  C   UNL     1       7.016  14.778  18.580  0.00  0.00    +0.000 A 
ATOM     18  F   UNL     1       6.416  14.853  17.382  0.00  0.00    +0.000 F 
ENDBRANCH   9  11
BRANCH   6  19
ATOM     19  O   UNL     1       1.944  17.376  19.336  0.00  0.00    +0.000 OA
ATOM     20  H   UNL     1       1.878  17.494  18.364  0.00  0.00    +0.000 HD
ENDBRANCH   6  19
ENDBRANCH   2   5
BRANCH   1  21
ATOM     21  C   UNL     1      -0.278  13.263  21.484  0.00  0.00    +0.000 C 
ATOM     22  C   UNL     1      -0.920  14.083  22.611  0.00  0.00    +0.000 C 
BRANCH  21  27
ATOM     23  C   UNL     1       0.569   9.491  21.189  0.00  0.00    +0.000 A 
ATOM     24  C   UNL     1      -0.075   9.014  22.340  0.00  0.00    +0.000 A 
ATOM     25  C   UNL     1      -0.784   9.879  23.179  0.00  0.00    +0.000 A 
ATOM     26  C   UNL     1      -0.862  11.243  22.887  0.00  0.00    +0.000 A 
ATOM     27  C   UNL     1      -0.208  11.770  21.767  0.00  0.00    +0.000 A 
ATOM     28  C   UNL     1       0.490  10.878  20.935  0.00  0.00    +0.000 A 
BRANCH  23  32
ATOM     29  C   UNL     1       2.621   6.788  18.492  0.00  0.00    +0.000 A 
ATOM     30  C   UNL     1       2.307   6.414  19.791  0.00  0.00    +0.000 A 
ATOM     31  C   UNL     1       1.665   7.305  20.656  0.00  0.00    +0.000 A 
ATOM     32  C   UNL     1       1.289   8.596  20.251  0.00  0.00    +0.000 A 
ATOM     33  C   UNL     1       1.627   8.969  18.939  0.00  0.00    +0.000 A 
ATOM     34  C   UNL     1       2.299   8.082  18.075  0.00  0.00    +0.000 A 
BRANCH  29  38
ATOM     35  C   UNL     1       5.019   4.737  16.438  0.00  0.00    +0.000 C 
ATOM     36  C   UNL     1       4.607   5.567  17.621  0.00  0.00    +0.000 C 
ATOM     37  O   UNL     1       5.424   5.865  18.487  0.00  0.00    +0.000 OA
ATOM     38  N   UNL     1       3.267   5.920  17.587  0.00  0.00    +0.000 N 
ATOM     39  H   UNL     1       2.681   5.457  16.905  0.00  0.00    +0.000 HD
ENDBRANCH  29  38
ENDBRANCH  23  32
ENDBRANCH  21  27
ENDBRANCH   1  21
TORSDOF 7
ENDMDL
MODEL 5
REMARK VINA RESULT:      -8.3      4.028      8.483
REMARK  Name = 
REMARK  9 active torsions:
REMARK  status: ('A' for Active; 'I' for Inactive)
REMARK    1  A    between atoms: C_1  and  C_2
REMARK    2  A    between atoms: N_4  and  C_5
REMARK    3  A    between atoms: C_8  and  C_9
REMARK    4  A    between atoms: C_13  and  C_14
REMARK    5  A    between atoms: C_14  and  C_15
REMARK    6  A    between atoms: C_14  and  N_16
REMARK    7  A    between atoms: C_17  and  C_19
REMARK    8  A    between atoms: C_20  and  O_21
REMARK    9  A    between atoms: N_24  and  C_25
REMARK                            x       y       z     vdW  Elec       q    Type
REMARK                         _______ _______ _______ _____ _____    ______ ____
ROOT
ATOM      1  N   UNL     1       1.189  11.840  19.766  0.00  0.00    +0.000 N 
ATOM      2  C   UNL     1       0.701  10.632  20.190  0.00  0.00    +0.000 C 
ATOM      3  O   UNL     1      -0.234  10.515  20.980  0.00  0.00    +0.000 OA
ATOM      4  H   UNL     1       1.897  11.906  19.049  0.00  0.00    +0.000 HD
ENDROOT
BRANCH   2   5
ATOM      5  C   UNL     1       1.349   9.429  19.646  0.00  0.00    +0.000 C 
ATOM      6  C   UNL     1       1.836   9.391  18.400  0.00  0.00    +0.000 C 
ATOM      7  C   UNL     1       2.405   8.033  18.188  0.00  0.00    +0.000 C 
ATOM      8  O   UNL     1       2.927   7.677  17.146  0.00  0.00    +0.000 OA
ATOM      9  N   UNL     1       2.199   7.322  19.376  0.00  0.00    +0.000 N 
ATOM     10  C   UNL     1       1.522   8.143  20.355  0.00  0.00    +0.000 C 
BRANCH   9  11
ATOM     11  C   UNL     1       2.583   5.974  19.636  0.00  0.00    +0.000 A 
ATOM     12  C   UNL     1       1.693   5.056  20.216  0.00  0.00    +0.000 A 
ATOM     13  C   UNL     1       2.075   3.731  20.463  0.00  0.00    +0.000 A 
ATOM     14  C   UNL     1       3.356   3.310  20.137  0.00  0.00    +0.000 A 
ATOM     15  F   UNL     1       3.717   2.044  20.375  0.00  0.00    +0.000 F 
ATOM     16  C   UNL     1       4.262   4.185  19.565  0.00  0.00    +0.000 A 
ATOM     17  C   UNL     1       3.872   5.500  19.316  0.00  0.00    +0.000 A 
ATOM     18  F   UNL     1       4.787   6.309  18.761  0.00  0.00    +0.000 F 
ENDBRANCH   9  11
BRANCH   6  19
ATOM     19  O   UNL     1       1.833  10.375  17.450  0.00  0.00    +0.000 OA
ATOM     20  H   UNL     1       1.557  11.206  17.892  0.00  0.00    +0.000 HD
ENDBRANCH   6  19
ENDBRANCH   2   5
BRANCH   1  21
ATOM     21  C   UNL     1       0.575  13.094  20.192  0.00  0.00    +0.000 C 
ATOM     22  C   UNL     1      -0.545  13.493  19.222  0.00  0.00    +0.000 C 
BRANCH  21  27
ATOM     23  C   UNL     1       3.910  15.057  19.965  0.00  0.00    +0.000 A 
ATOM     24  C   UNL     1       3.576  16.180  20.736  0.00  0.00    +0.000 A 
ATOM     25  C   UNL     1       2.317  16.293  21.334  0.00  0.00    +0.000 A 
ATOM     26  C   UNL     1       1.362  15.288  21.171  0.00  0.00    +0.000 A 
ATOM     27  C   UNL     1       1.639  14.164  20.384  0.00  0.00    +0.000 A 
ATOM     28  C   UNL     1       2.915  14.069  19.801  0.00  0.00    +0.000 A 
BRANCH  23  32
ATOM     29  C   UNL     1       7.863  14.492  18.278  0.00  0.00    +0.000 A 
ATOM     30  C   UNL     1       7.683  14.746  19.630  0.00  0.00    +0.000 A 
ATOM     31  C   UNL     1       6.403  14.949  20.156  0.00  0.00    +0.000 A 
ATOM     32  C   UNL     1       5.251  14.881  19.356  0.00  0.00    +0.000 A 
ATOM     33  C   UNL     1       5.446  14.639  17.986  0.00  0.00    +0.000 A 
ATOM     34  C   UNL     1       6.738  14.463  17.450  0.00  0.00    +0.000 A 
BRANCH  29  38
ATOM     35  C   UNL     1      11.175  13.183  17.057  0.00  0.00    +0.000 C 
ATOM     36  C   UNL     1       9.771  13.057  17.579  0.00  0.00    +0.000 C 
ATOM     37  O   UNL     1       9.304  11.954  17.844  0.00  0.00    +0.000 OA
ATOM     38  N   UNL     1       9.135  14.281  17.708  0.00  0.00    +0.000 N 
ATOM     39  H   UNL     1       9.584  15.085  17.287  0.00  0.00    +0.000 HD
ENDBRANCH  29  38
ENDBRANCH  23  32
ENDBRANCH  21  27
ENDBRANCH   1  21
TORSDOF 7
ENDMDL
MODEL 6
REMARK VINA RESULT:      -8.3      4.264      8.851
REMARK  Name = 
REMARK  9 active torsions:
REMARK  status: ('A' for Active; 'I' for Inactive)
REMARK    1  A    between atoms: C_1  and  C_2
REMARK    2  A    between atoms: N_4  and  C_5
REMARK    3  A    between atoms: C_8  and  C_9
REMARK    4  A    between atoms: C_13  and  C_14
REMARK    5  A    between atoms: C_14  and  C_15
REMARK    6  A    between atoms: C_14  and  N_16
REMARK    7  A    between atoms: C_17  and  C_19
REMARK    8  A    between atoms: C_20  and  O_21
REMARK    9  A    between atoms: N_24  and  C_25
REMARK                            x       y       z     vdW  Elec       q    Type
REMARK                         _______ _______ _______ _____ _____    ______ ____
ROOT
ATOM      1  N   UNL     1       0.930  11.118  19.508  0.00  0.00    +0.000 N 
ATOM      2  C   UNL     1       0.856   9.858  20.039  0.00  0.00    +0.000 C 
ATOM      3  O   UNL     1       0.226   9.584  21.059  0.00  0.00    +0.000 OA
ATOM      4  H   UNL     1       1.379  11.296  18.620  0.00  0.00    +0.000 HD
ENDROOT
BRANCH   2   5
ATOM      5  C   UNL     1       1.575   8.794  19.320  0.00  0.00    +0.000 C 
ATOM      6  C   UNL     1       2.149   9.008  18.131  0.00  0.00    +0.000 C 
ATOM      7  C   UNL     1       2.770   7.726  17.702  0.00  0.00    +0.000 C 
ATOM      8  O   UNL     1       3.374   7.589  16.652  0.00  0.00    +0.000 OA
ATOM      9  N   UNL     1       2.501   6.793  18.709  0.00  0.00    +0.000 N 
ATOM     10  C   UNL     1       1.734   7.396  19.777  0.00  0.00    +0.000 C 
BRANCH   9  11
ATOM     11  C   UNL     1       2.904   5.426  18.730  0.00  0.00    +0.000 A 
ATOM     12  C   UNL     1       4.042   5.006  19.439  0.00  0.00    +0.000 A 
ATOM     13  C   UNL     1       4.429   3.660  19.460  0.00  0.00    +0.000 A 
ATOM     14  C   UNL     1       3.685   2.718  18.766  0.00  0.00    +0.000 A 
ATOM     15  F   UNL     1       4.059   1.433  18.789  0.00  0.00    +0.000 F 
ATOM     16  C   UNL     1       2.559   3.092  18.054  0.00  0.00    +0.000 A 
ATOM     17  C   UNL     1       2.176   4.432  18.044  0.00  0.00    +0.000 A 
ATOM     18  F   UNL     1       1.079   4.744  17.339  0.00  0.00    +0.000 F 
ENDBRANCH   9  11
BRANCH   6  19
ATOM     19  O   UNL     1       2.185  10.160  17.393  0.00  0.00    +0.000 OA
ATOM     20  H   UNL     1       3.022  10.622  17.615  0.00  0.00    +0.000 HD
ENDBRANCH   6  19
ENDBRANCH   2   5
BRANCH   1  21
ATOM     21  C   UNL     1       0.199  12.233  20.103  0.00  0.00    +0.000 C 
ATOM     22  C   UNL     1      -1.285  12.159  19.721  0.00  0.00    +0.000 C 
BRANCH  21  27
ATOM     23  C   UNL     1       2.889  14.891  19.252  0.00  0.00    +0.000 A 
ATOM     24  C   UNL     1       2.063  16.006  19.051  0.00  0.00    +0.000 A 
ATOM     25  C   UNL     1       0.677  15.913  19.207  0.00  0.00    +0.000 A 
ATOM     26  C   UNL     1       0.085  14.700  19.565  0.00  0.00    +0.000 A 
ATOM     27  C   UNL     1       0.866  13.552  19.745  0.00  0.00    +0.000 A 
ATOM     28  C   UNL     1       2.257  13.675  19.590  0.00  0.00    +0.000 A 
BRANCH  23  32
ATOM     29  C   UNL     1       7.215  15.061  19.029  0.00  0.00    +0.000 A 
ATOM     30  C   UNL     1       6.545  15.239  20.231  0.00  0.00    +0.000 A 
ATOM     31  C   UNL     1       5.148  15.204  20.283  0.00  0.00    +0.000 A 
ATOM     32  C   UNL     1       4.366  14.965  19.142  0.00  0.00    +0.000 A 
ATOM     33  C   UNL     1       5.055  14.802  17.927  0.00  0.00    +0.000 A 
ATOM     34  C   UNL     1       6.462  14.865  17.869  0.00  0.00    +0.000 A 
BRANCH  29  38
ATOM     35  C   UNL     1      10.924  14.425  19.159  0.00  0.00    +0.000 C 
ATOM     36  C   UNL     1       9.473  14.036  19.228  0.00  0.00    +0.000 C 
ATOM     37  O   UNL     1       9.151  12.889  19.523  0.00  0.00    +0.000 OA
ATOM     38  N   UNL     1       8.622  15.088  18.933  0.00  0.00    +0.000 N 
ATOM     39  H   UNL     1       9.034  15.925  18.539  0.00  0.00    +0.000 HD
ENDBRANCH  29  38
ENDBRANCH  23  32
ENDBRANCH  21  27
ENDBRANCH   1  21
TORSDOF 7
ENDMDL
MODEL 7
REMARK VINA RESULT:      -8.3      4.896     10.335
REMARK  Name = 
REMARK  9 active torsions:
REMARK  status: ('A' for Active; 'I' for Inactive)
REMARK    1  A    between atoms: C_1  and  C_2
REMARK    2  A    between atoms: N_4  and  C_5
REMARK    3  A    between atoms: C_8  and  C_9
REMARK    4  A    between atoms: C_13  and  C_14
REMARK    5  A    between atoms: C_14  and  C_15
REMARK    6  A    between atoms: C_14  and  N_16
REMARK    7  A    between atoms: C_17  and  C_19
REMARK    8  A    between atoms: C_20  and  O_21
REMARK    9  A    between atoms: N_24  and  C_25
REMARK                            x       y       z     vdW  Elec       q    Type
REMARK                         _______ _______ _______ _____ _____    ______ ____
ROOT
ATOM      1  N   UNL     1       1.229  10.176  19.661  0.00  0.00    +0.000 N 
ATOM      2  C   UNL     1       1.094   9.281  18.632  0.00  0.00    +0.000 C 
ATOM      3  O   UNL     1       0.231   9.371  17.761  0.00  0.00    +0.000 OA
ATOM      4  H   UNL     1       2.002  10.127  20.310  0.00  0.00    +0.000 HD
ENDROOT
BRANCH   2   5
ATOM      5  C   UNL     1       2.054   8.168  18.593  0.00  0.00    +0.000 C 
ATOM      6  C   UNL     1       2.243   7.360  19.643  0.00  0.00    +0.000 C 
ATOM      7  C   UNL     1       3.279   6.365  19.256  0.00  0.00    +0.000 C 
ATOM      8  O   UNL     1       3.678   5.485  19.999  0.00  0.00    +0.000 OA
ATOM      9  N   UNL     1       3.658   6.671  17.945  0.00  0.00    +0.000 N 
ATOM     10  C   UNL     1       2.927   7.816  17.451  0.00  0.00    +0.000 C 
BRANCH   9  11
ATOM     11  C   UNL     1       4.627   5.981  17.158  0.00  0.00    +0.000 A 
ATOM     12  C   UNL     1       5.840   6.587  16.789  0.00  0.00    +0.000 A 
ATOM     13  C   UNL     1       6.790   5.901  16.022  0.00  0.00    +0.000 A 
ATOM     14  C   UNL     1       6.536   4.602  15.610  0.00  0.00    +0.000 A 
ATOM     15  F   UNL     1       7.446   3.950  14.876  0.00  0.00    +0.000 F 
ATOM     16  C   UNL     1       5.352   3.971  15.951  0.00  0.00    +0.000 A 
ATOM     17  C   UNL     1       4.415   4.658  16.721  0.00  0.00    +0.000 A 
ATOM     18  F   UNL     1       3.285   4.004  17.025  0.00  0.00    +0.000 F 
ENDBRANCH   9  11
BRANCH   6  19
ATOM     19  O   UNL     1       1.637   7.395  20.869  0.00  0.00    +0.000 OA
ATOM     20  H   UNL     1       1.037   6.621  20.921  0.00  0.00    +0.000 HD
ENDBRANCH   6  19
ENDBRANCH   2   5
BRANCH   1  21
ATOM     21  C   UNL     1       0.372  11.353  19.755  0.00  0.00    +0.000 C 
ATOM     22  C   UNL     1       1.198  12.630  19.551  0.00  0.00    +0.000 C 
BRANCH  21  27
ATOM     23  C   UNL     1      -2.163  12.254  22.547  0.00  0.00    +0.000 A 
ATOM     24  C   UNL     1      -1.878  11.231  23.463  0.00  0.00    +0.000 A 
ATOM     25  C   UNL     1      -0.881  10.287  23.201  0.00  0.00    +0.000 A 
ATOM     26  C   UNL     1      -0.147  10.343  22.014  0.00  0.00    +0.000 A 
ATOM     27  C   UNL     1      -0.417  11.328  21.056  0.00  0.00    +0.000 A 
ATOM     28  C   UNL     1      -1.418  12.270  21.348  0.00  0.00    +0.000 A 
BRANCH  23  32
ATOM     29  C   UNL     1      -5.088  15.375  23.251  0.00  0.00    +0.000 A 
ATOM     30  C   UNL     1      -3.770  15.676  22.939  0.00  0.00    +0.000 A 
ATOM     31  C   UNL     1      -2.833  14.659  22.737  0.00  0.00    +0.000 A 
ATOM     32  C   UNL     1      -3.180  13.300  22.814  0.00  0.00    +0.000 A 
ATOM     33  C   UNL     1      -4.514  13.008  23.146  0.00  0.00    +0.000 A 
ATOM     34  C   UNL     1      -5.453  14.033  23.377  0.00  0.00    +0.000 A 
BRANCH  29  38
ATOM     35  C   UNL     1      -7.912  17.858  23.053  0.00  0.00    +0.000 C 
ATOM     36  C   UNL     1      -7.131  16.648  22.621  0.00  0.00    +0.000 C 
ATOM     37  O   UNL     1      -7.461  16.021  21.619  0.00  0.00    +0.000 OA
ATOM     38  N   UNL     1      -6.065  16.370  23.461  0.00  0.00    +0.000 N 
ATOM     39  H   UNL     1      -6.024  16.869  24.341  0.00  0.00    +0.000 HD
ENDBRANCH  29  38
ENDBRANCH  23  32
ENDBRANCH  21  27
ENDBRANCH   1  21
TORSDOF 7
ENDMDL
MODEL 8
REMARK VINA RESULT:      -8.2      5.253      8.833
REMARK  Name = 
REMARK  9 active torsions:
REMARK  status: ('A' for Active; 'I' for Inactive)
REMARK    1  A    between atoms: C_1  and  C_2
REMARK    2  A    between atoms: N_4  and  C_5
REMARK    3  A    between atoms: C_8  and  C_9
REMARK    4  A    between atoms: C_13  and  C_14
REMARK    5  A    between atoms: C_14  and  C_15
REMARK    6  A    between atoms: C_14  and  N_16
REMARK    7  A    between atoms: C_17  and  C_19
REMARK    8  A    between atoms: C_20  and  O_21
REMARK    9  A    between atoms: N_24  and  C_25
REMARK                            x       y       z     vdW  Elec       q    Type
REMARK                         _______ _______ _______ _____ _____    ______ ____
ROOT
ATOM      1  N   UNL     1       1.785   8.500  21.081  0.00  0.00    +0.000 N 
ATOM      2  C   UNL     1       1.266   7.256  20.837  0.00  0.00    +0.000 C 
ATOM      3  O   UNL     1       0.147   6.901  21.203  0.00  0.00    +0.000 OA
ATOM      4  H   UNL     1       2.669   8.793  20.691  0.00  0.00    +0.000 HD
ENDROOT
BRANCH   2   5
ATOM      5  C   UNL     1       2.117   6.319  20.089  0.00  0.00    +0.000 C 
ATOM      6  C   UNL     1       1.991   4.993  20.215  0.00  0.00    +0.000 C 
ATOM      7  C   UNL     1       3.007   4.364  19.330  0.00  0.00    +0.000 C 
ATOM      8  O   UNL     1       3.150   3.158  19.218  0.00  0.00    +0.000 OA
ATOM      9  N   UNL     1       3.706   5.409  18.716  0.00  0.00    +0.000 N 
ATOM     10  C   UNL     1       3.203   6.691  19.155  0.00  0.00    +0.000 C 
BRANCH   9  11
ATOM     11  C   UNL     1       4.775   5.282  17.781  0.00  0.00    +0.000 A 
ATOM     12  C   UNL     1       4.543   5.286  16.395  0.00  0.00    +0.000 A 
ATOM     13  C   UNL     1       5.597   5.167  15.482  0.00  0.00    +0.000 A 
ATOM     14  C   UNL     1       6.898   5.036  15.944  0.00  0.00    +0.000 A 
ATOM     15  F   UNL     1       7.903   4.922  15.068  0.00  0.00    +0.000 F 
ATOM     16  C   UNL     1       7.168   5.026  17.301  0.00  0.00    +0.000 A 
ATOM     17  C   UNL     1       6.113   5.152  18.203  0.00  0.00    +0.000 A 
ATOM     18  F   UNL     1       6.426   5.135  19.508  0.00  0.00    +0.000 F 
ENDBRANCH   9  11
BRANCH   6  19
ATOM     19  O   UNL     1       1.119   4.287  21.000  0.00  0.00    +0.000 OA
ATOM     20  H   UNL     1       0.682   4.929  21.600  0.00  0.00    +0.000 HD
ENDBRANCH   6  19
ENDBRANCH   2   5
BRANCH   1  21
ATOM     21  C   UNL     1       0.998   9.527  21.756  0.00  0.00    +0.000 C 
ATOM     22  C   UNL     1      -0.147   8.884  22.549  0.00  0.00    +0.000 C 
BRANCH  21  27
ATOM     23  C   UNL     1      -0.803  11.272  18.799  0.00  0.00    +0.000 A 
ATOM     24  C   UNL     1      -0.297  12.571  18.948  0.00  0.00    +0.000 A 
ATOM     25  C   UNL     1       0.618  12.875  19.960  0.00  0.00    +0.000 A 
ATOM     26  C   UNL     1       1.045  11.887  20.849  0.00  0.00    +0.000 A 
ATOM     27  C   UNL     1       0.544  10.583  20.759  0.00  0.00    +0.000 A 
ATOM     28  C   UNL     1      -0.368  10.301  19.727  0.00  0.00    +0.000 A 
BRANCH  23  32
ATOM     29  C   UNL     1      -3.553  10.299  15.592  0.00  0.00    +0.000 A 
ATOM     30  C   UNL     1      -3.761  11.395  16.416  0.00  0.00    +0.000 A 
ATOM     31  C   UNL     1      -2.878  11.683  17.460  0.00  0.00    +0.000 A 
ATOM     32  C   UNL     1      -1.738  10.903  17.708  0.00  0.00    +0.000 A 
ATOM     33  C   UNL     1      -1.545   9.786  16.876  0.00  0.00    +0.000 A 
ATOM     34  C   UNL     1      -2.450   9.478  15.841  0.00  0.00    +0.000 A 
BRANCH  29  38
ATOM     35  C   UNL     1      -5.207   9.550  12.293  0.00  0.00    +0.000 C 
ATOM     36  C   UNL     1      -4.036   9.732  13.217  0.00  0.00    +0.000 C 
ATOM     37  O   UNL     1      -2.888   9.664  12.787  0.00  0.00    +0.000 OA
ATOM     38  N   UNL     1      -4.419   9.974  14.527  0.00  0.00    +0.000 N 
ATOM     39  H   UNL     1      -5.393   9.828  14.762  0.00  0.00    +0.000 HD
ENDBRANCH  29  38
ENDBRANCH  23  32
ENDBRANCH  21  27
ENDBRANCH   1  21
TORSDOF 7
ENDMDL
MODEL 9
REMARK VINA RESULT:      -8.1      3.994      8.331
REMARK  Name = 
REMARK  9 active torsions:
REMARK  status: ('A' for Active; 'I' for Inactive)
REMARK    1  A    between atoms: C_1  and  C_2
REMARK    2  A    between atoms: N_4  and  C_5
REMARK    3  A    between atoms: C_8  and  C_9
REMARK    4  A    between atoms: C_13  and  C_14
REMARK    5  A    between atoms: C_14  and  C_15
REMARK    6  A    between atoms: C_14  and  N_16
REMARK    7  A    between atoms: C_17  and  C_19
REMARK    8  A    between atoms: C_20  and  O_21
REMARK    9  A    between atoms: N_24  and  C_25
REMARK                            x       y       z     vdW  Elec       q    Type
REMARK                         _______ _______ _______ _____ _____    ______ ____
ROOT
ATOM      1  N   UNL     1       1.013  11.764  19.487  0.00  0.00    +0.000 N 
ATOM      2  C   UNL     1       0.317  10.655  19.889  0.00  0.00    +0.000 C 
ATOM      3  O   UNL     1      -0.837  10.690  20.310  0.00  0.00    +0.000 OA
ATOM      4  H   UNL     1       1.926  11.694  19.061  0.00  0.00    +0.000 HD
ENDROOT
BRANCH   2   5
ATOM      5  C   UNL     1       1.018   9.364  19.793  0.00  0.00    +0.000 C 
ATOM      6  C   UNL     1       1.072   8.511  20.822  0.00  0.00    +0.000 C 
ATOM      7  C   UNL     1       1.858   7.330  20.377  0.00  0.00    +0.000 C 
ATOM      8  O   UNL     1       2.091   6.368  21.089  0.00  0.00    +0.000 OA
ATOM      9  N   UNL     1       2.242   7.578  19.055  0.00  0.00    +0.000 N 
ATOM     10  C   UNL     1       1.750   8.863  18.609  0.00  0.00    +0.000 C 
BRANCH   9  11
ATOM     11  C   UNL     1       3.011   6.717  18.217  0.00  0.00    +0.000 A 
ATOM     12  C   UNL     1       4.182   7.163  17.584  0.00  0.00    +0.000 A 
ATOM     13  C   UNL     1       4.937   6.311  16.769  0.00  0.00    +0.000 A 
ATOM     14  C   UNL     1       4.524   5.002  16.571  0.00  0.00    +0.000 A 
ATOM     15  F   UNL     1       5.247   4.191  15.790  0.00  0.00    +0.000 F 
ATOM     16  C   UNL     1       3.374   4.525  17.176  0.00  0.00    +0.000 A 
ATOM     17  C   UNL     1       2.634   5.378  17.992  0.00  0.00    +0.000 A 
ATOM     18  F   UNL     1       1.527   4.869  18.555  0.00  0.00    +0.000 F 
ENDBRANCH   9  11
BRANCH   6  19
ATOM     19  O   UNL     1       0.537   8.645  22.074  0.00  0.00    +0.000 OA
ATOM     20  H   UNL     1       0.404   7.742  22.433  0.00  0.00    +0.000 HD
ENDBRANCH   6  19
ENDBRANCH   2   5
BRANCH   1  21
ATOM     21  C   UNL     1       0.389  13.084  19.478  0.00  0.00    +0.000 C 
ATOM     22  C   UNL     1      -0.335  13.320  18.146  0.00  0.00    +0.000 C 
BRANCH  21  27
ATOM     23  C   UNL     1       3.709  15.073  19.699  0.00  0.00    +0.000 A 
ATOM     24  C   UNL     1       3.277  16.169  20.460  0.00  0.00    +0.000 A 
ATOM     25  C   UNL     1       1.957  16.256  20.911  0.00  0.00    +0.000 A 
ATOM     26  C   UNL     1       1.036  15.251  20.608  0.00  0.00    +0.000 A 
ATOM     27  C   UNL     1       1.413  14.153  19.824  0.00  0.00    +0.000 A 
ATOM     28  C   UNL     1       2.749  14.085  19.391  0.00  0.00    +0.000 A 
BRANCH  23  32
ATOM     29  C   UNL     1       7.783  14.675  18.273  0.00  0.00    +0.000 A 
ATOM     30  C   UNL     1       6.699  14.448  17.438  0.00  0.00    +0.000 A 
ATOM     31  C   UNL     1       5.391  14.558  17.918  0.00  0.00    +0.000 A 
ATOM     32  C   UNL     1       5.113  14.924  19.245  0.00  0.00    +0.000 A 
ATOM     33  C   UNL     1       6.219  15.136  20.086  0.00  0.00    +0.000 A 
ATOM     34  C   UNL     1       7.538  14.998  19.610  0.00  0.00    +0.000 A 
BRANCH  29  38
ATOM     35  C   UNL     1      11.268  13.632  17.302  0.00  0.00    +0.000 C 
ATOM     36  C   UNL     1       9.825  13.397  17.650  0.00  0.00    +0.000 C 
ATOM     37  O   UNL     1       9.388  12.254  17.749  0.00  0.00    +0.000 OA
ATOM     38  N   UNL     1       9.118  14.575  17.829  0.00  0.00    +0.000 N 
ATOM     39  H   UNL     1       9.567  15.436  17.542  0.00  0.00    +0.000 HD
ENDBRANCH  29  38
ENDBRANCH  23  32
ENDBRANCH  21  27
ENDBRANCH   1  21
TORSDOF 7
ENDMDL
