MODEL 1
REMARK VINA RESULT:      -8.2      0.000      0.000
REMARK  Name = 
REMARK  3 active torsions:
REMARK  status: ('A' for Active; 'I' for Inactive)
REMARK    1  A    between atoms: C_2  and  C_3
REMARK    2  A    between atoms: C_5  and  C_6
REMARK    3  A    between atoms: N_23  and  C_24
REMARK                            x       y       z     vdW  Elec       q    Type
REMARK                         _______ _______ _______ _____ _____    ______ ____
ROOT
ATOM      1  C   UNL     1      -0.145  10.232  19.901  0.00  0.00    +0.000 A 
ATOM      2  N   UNL     1      -1.416  10.163  19.373  0.00  0.00    +0.000 NA
ATOM      3  C   UNL     1      -1.771  11.381  19.014  0.00  0.00    +0.000 A 
ATOM      4  N   UNL     1      -0.702  12.245  19.211  0.00  0.00    +0.000 N 
ATOM      5  C   UNL     1       0.359  11.510  19.714  0.00  0.00    +0.000 A 
ATOM      6  C   UNL     1       1.718  12.053  20.028  0.00  0.00    +0.000 C 
ATOM      7  C   UNL     1       2.218  12.999  18.944  0.00  0.00    +0.000 C 
ATOM      8  C   UNL     1       1.700  14.427  19.104  0.00  0.00    +0.000 C 
ATOM      9  C   UNL     1       0.288  14.546  19.672  0.00  0.00    +0.000 C 
ATOM     10  C   UNL     1      -0.730  13.674  18.948  0.00  0.00    +0.000 C 
ENDROOT
BRANCH   1  12
ATOM     11  O   UNL     1       0.104   8.662  21.654  0.00  0.00    +0.000 OA
ATOM     12  C   UNL     1       0.517   9.099  20.577  0.00  0.00    +0.000 C 
ATOM     13  N   UNL     1       1.598   8.507  19.919  0.00  0.00    +0.000 N 
ATOM     14  C   UNL     1       2.284   7.355  20.518  0.00  0.00    +0.000 C 
ATOM     15  C   UNL     1       2.237   6.106  19.602  0.00  0.00    +0.000 C 
ATOM     16  N   UNL     1       2.651   6.464  18.232  0.00  0.00    +0.000 N 
ATOM     17  C   UNL     1       1.909   7.582  17.645  0.00  0.00    +0.000 C 
ATOM     18  C   UNL     1       2.035   8.813  18.547  0.00  0.00    +0.000 C 
BRANCH  16  19
ATOM     19  C   UNL     1       3.653   5.821  17.542  0.00  0.00    +0.000 A 
ATOM     20  C   UNL     1       3.721   4.422  17.477  0.00  0.00    +0.000 A 
ATOM     21  C   UNL     1       4.723   3.769  16.753  0.00  0.00    +0.000 A 
ATOM     22  C   UNL     1       5.682   4.514  16.085  0.00  0.00    +0.000 A 
ATOM     23  F   UNL     1       6.640   3.892  15.387  0.00  0.00    +0.000 F 
ATOM     24  C   UNL     1       5.657   5.898  16.128  0.00  0.00    +0.000 A 
ATOM     25  C   UNL     1       4.652   6.542  16.855  0.00  0.00    +0.000 A 
ENDBRANCH  16  19
ENDBRANCH   1  12
BRANCH   3  26
ATOM     26  C   UNL     1      -3.138  11.711  18.570  0.00  0.00    +0.000 A 
ATOM     27  C   UNL     1      -4.035  12.279  19.495  0.00  0.00    +0.000 A 
ATOM     28  C   UNL     1      -5.348  12.600  19.131  0.00  0.00    +0.000 A 
ATOM     29  C   UNL     1      -5.777  12.358  17.831  0.00  0.00    +0.000 A 
ATOM     30 CL   UNL     1      -7.389  12.738  17.371  0.00  0.00    +0.000 Cl
ATOM     31  C   UNL     1      -4.910  11.790  16.902  0.00  0.00    +0.000 A 
ATOM     32  C   UNL     1      -3.605  11.453  17.277  0.00  0.00    +0.000 A 
ENDBRANCH   3  26
TORSDOF 3
ENDMDL
MODEL 2
REMARK VINA RESULT:      -7.5      3.229      4.026
REMARK  Name = 
REMARK  3 active torsions:
REMARK  status: ('A' for Active; 'I' for Inactive)
REMARK    1  A    between atoms: C_2  and  C_3
REMARK    2  A    between atoms: C_5  and  C_6
REMARK    3  A    between atoms: N_23  and  C_24
REMARK                            x       y       z     vdW  Elec       q    Type
REMARK                         _______ _______ _______ _____ _____    ______ ____
ROOT
ATOM      1  C   UNL     1       1.185  12.014  19.251  0.00  0.00    +0.000 A 
ATOM      2  N   UNL     1      -0.085  11.818  19.749  0.00  0.00    +0.000 NA
ATOM      3  C   UNL     1      -0.280  12.692  20.716  0.00  0.00    +0.000 A 
ATOM      4  N   UNL     1       0.821  13.535  20.798  0.00  0.00    +0.000 N 
ATOM      5  C   UNL     1       1.731  13.152  19.826  0.00  0.00    +0.000 A 
ATOM      6  C   UNL     1       3.038  13.826  19.547  0.00  0.00    +0.000 C 
ATOM      7  C   UNL     1       2.910  15.344  19.559  0.00  0.00    +0.000 C 
ATOM      8  C   UNL     1       2.992  15.945  20.962  0.00  0.00    +0.000 C 
ATOM      9  C   UNL     1       2.388  15.088  22.072  0.00  0.00    +0.000 C 
ATOM     10  C   UNL     1       0.974  14.609  21.764  0.00  0.00    +0.000 C 
ENDROOT
BRANCH   1  12
ATOM     11  O   UNL     1       2.601  11.528  17.419  0.00  0.00    +0.000 OA
ATOM     12  C   UNL     1       1.827  11.105  18.281  0.00  0.00    +0.000 C 
ATOM     13  N   UNL     1       1.565   9.740  18.416  0.00  0.00    +0.000 N 
ATOM     14  C   UNL     1       2.195   8.774  17.506  0.00  0.00    +0.000 C 
ATOM     15  C   UNL     1       3.062   7.737  18.264  0.00  0.00    +0.000 C 
ATOM     16  N   UNL     1       2.300   7.162  19.388  0.00  0.00    +0.000 N 
ATOM     17  C   UNL     1       1.731   8.151  20.307  0.00  0.00    +0.000 C 
ATOM     18  C   UNL     1       0.832   9.116  19.530  0.00  0.00    +0.000 C 
BRANCH  16  19
ATOM     19  C   UNL     1       2.118   5.811  19.580  0.00  0.00    +0.000 A 
ATOM     20  C   UNL     1       1.917   5.270  20.858  0.00  0.00    +0.000 A 
ATOM     21  C   UNL     1       1.705   3.901  21.048  0.00  0.00    +0.000 A 
ATOM     22  C   UNL     1       1.698   3.049  19.955  0.00  0.00    +0.000 A 
ATOM     23  F   UNL     1       1.491   1.738  20.135  0.00  0.00    +0.000 F 
ATOM     24  C   UNL     1       1.900   3.540  18.677  0.00  0.00    +0.000 A 
ATOM     25  C   UNL     1       2.111   4.910  18.495  0.00  0.00    +0.000 A 
ENDBRANCH  16  19
ENDBRANCH   1  12
BRANCH   3  26
ATOM     26  C   UNL     1      -1.466  12.658  21.591  0.00  0.00    +0.000 A 
ATOM     27  C   UNL     1      -2.586  13.439  21.250  0.00  0.00    +0.000 A 
ATOM     28  C   UNL     1      -3.734  13.455  22.052  0.00  0.00    +0.000 A 
ATOM     29  C   UNL     1      -3.772  12.682  23.208  0.00  0.00    +0.000 A 
ATOM     30 CL   UNL     1      -5.169  12.697  24.209  0.00  0.00    +0.000 Cl
ATOM     31  C   UNL     1      -2.672  11.909  23.570  0.00  0.00    +0.000 A 
ATOM     32  C   UNL     1      -1.521  11.913  22.774  0.00  0.00    +0.000 A 
ENDBRANCH   3  26
TORSDOF 3
ENDMDL
MODEL 3
REMARK VINA RESULT:      -7.5      3.389      4.126
REMARK  Name = 
REMARK  3 active torsions:
REMARK  status: ('A' for Active; 'I' for Inactive)
REMARK    1  A    between atoms: C_2  and  C_3
REMARK    2  A    between atoms: C_5  and  C_6
REMARK    3  A    between atoms: N_23  and  C_24
REMARK                            x       y       z     vdW  Elec       q    Type
REMARK                         _______ _______ _______ _____ _____    ______ ____
ROOT
ATOM      1  C   UNL     1       1.287  11.989  19.266  0.00  0.00    +0.000 A 
ATOM      2  N   UNL     1       0.032  11.811  19.807  0.00  0.00    +0.000 NA
ATOM      3  C   UNL     1      -0.123  12.698  20.769  0.00  0.00    +0.000 A 
ATOM      4  N   UNL     1       0.987  13.532  20.805  0.00  0.00    +0.000 N 
ATOM      5  C   UNL     1       1.861  13.129  19.809  0.00  0.00    +0.000 A 
ATOM      6  C   UNL     1       3.163  13.789  19.479  0.00  0.00    +0.000 C 
ATOM      7  C   UNL     1       3.049  15.307  19.476  0.00  0.00    +0.000 C 
ATOM      8  C   UNL     1       3.181  15.925  20.868  0.00  0.00    +0.000 C 
ATOM      9  C   UNL     1       2.607  15.087  22.008  0.00  0.00    +0.000 C 
ATOM     10  C   UNL     1       1.180  14.617  21.752  0.00  0.00    +0.000 C 
ENDROOT
BRANCH   1  12
ATOM     11  O   UNL     1       2.655  11.466  17.408  0.00  0.00    +0.000 OA
ATOM     12  C   UNL     1       1.890  11.063  18.287  0.00  0.00    +0.000 C 
ATOM     13  N   UNL     1       1.600   9.705  18.432  0.00  0.00    +0.000 N 
ATOM     14  C   UNL     1       2.191   8.722  17.514  0.00  0.00    +0.000 C 
ATOM     15  C   UNL     1       3.050   7.669  18.258  0.00  0.00    +0.000 C 
ATOM     16  N   UNL     1       2.298   7.114  19.400  0.00  0.00    +0.000 N 
ATOM     17  C   UNL     1       1.769   8.119  20.326  0.00  0.00    +0.000 C 
ATOM     18  C   UNL     1       0.876   9.101  19.563  0.00  0.00    +0.000 C 
BRANCH  16  19
ATOM     19  C   UNL     1       2.090   5.769  19.599  0.00  0.00    +0.000 A 
ATOM     20  C   UNL     1       1.947   4.879  18.525  0.00  0.00    +0.000 A 
ATOM     21  C   UNL     1       1.764   3.508  18.728  0.00  0.00    +0.000 A 
ATOM     22  C   UNL     1       1.714   3.007  20.019  0.00  0.00    +0.000 A 
ATOM     23  F   UNL     1       1.543   1.693  20.217  0.00  0.00    +0.000 F 
ATOM     24  C   UNL     1       1.844   3.850  21.109  0.00  0.00    +0.000 A 
ATOM     25  C   UNL     1       2.027   5.220  20.897  0.00  0.00    +0.000 A 
ENDBRANCH  16  19
ENDBRANCH   1  12
BRANCH   3  26
ATOM     26  C   UNL     1      -1.280  12.685  21.683  0.00  0.00    +0.000 A 
ATOM     27  C   UNL     1      -1.351  11.690  22.677  0.00  0.00    +0.000 A 
ATOM     28  C   UNL     1      -2.433  11.622  23.563  0.00  0.00    +0.000 A 
ATOM     29  C   UNL     1      -3.459  12.557  23.463  0.00  0.00    +0.000 A 
ATOM     30 CL   UNL     1      -4.799  12.482  24.537  0.00  0.00    +0.000 Cl
ATOM     31  C   UNL     1      -3.414  13.543  22.483  0.00  0.00    +0.000 A 
ATOM     32  C   UNL     1      -2.339  13.594  21.588  0.00  0.00    +0.000 A 
ENDBRANCH   3  26
TORSDOF 3
ENDMDL
MODEL 4
REMARK VINA RESULT:      -7.2      2.589      4.173
REMARK  Name = 
REMARK  3 active torsions:
REMARK  status: ('A' for Active; 'I' for Inactive)
REMARK    1  A    between atoms: C_2  and  C_3
REMARK    2  A    between atoms: C_5  and  C_6
REMARK    3  A    between atoms: N_23  and  C_24
REMARK                            x       y       z     vdW  Elec       q    Type
REMARK                         _______ _______ _______ _____ _____    ______ ____
ROOT
ATOM      1  C   UNL     1      -0.073  10.001  20.888  0.00  0.00    +0.000 A 
ATOM      2  N   UNL     1       0.213  11.049  21.736  0.00  0.00    +0.000 NA
ATOM      3  C   UNL     1      -0.059  12.171  21.099  0.00  0.00    +0.000 A 
ATOM      4  N   UNL     1      -0.620  11.870  19.864  0.00  0.00    +0.000 N 
ATOM      5  C   UNL     1      -0.694  10.492  19.748  0.00  0.00    +0.000 A 
ATOM      6  C   UNL     1      -1.274   9.748  18.586  0.00  0.00    +0.000 C 
ATOM      7  C   UNL     1      -2.576  10.374  18.103  0.00  0.00    +0.000 C 
ATOM      8  C   UNL     1      -2.364  11.545  17.145  0.00  0.00    +0.000 C 
ATOM      9  C   UNL     1      -1.130  12.398  17.425  0.00  0.00    +0.000 C 
ATOM     10  C   UNL     1      -1.027  12.854  18.876  0.00  0.00    +0.000 C 
ENDROOT
BRANCH   1  12
ATOM     11  O   UNL     1      -0.418   7.909  21.937  0.00  0.00    +0.000 OA
ATOM     12  C   UNL     1       0.275   8.597  21.184  0.00  0.00    +0.000 C 
ATOM     13  N   UNL     1       1.390   8.066  20.532  0.00  0.00    +0.000 N 
ATOM     14  C   UNL     1       1.776   6.666  20.755  0.00  0.00    +0.000 C 
ATOM     15  C   UNL     1       1.773   5.844  19.441  0.00  0.00    +0.000 C 
ATOM     16  N   UNL     1       2.521   6.561  18.391  0.00  0.00    +0.000 N 
ATOM     17  C   UNL     1       2.075   7.937  18.157  0.00  0.00    +0.000 C 
ATOM     18  C   UNL     1       2.153   8.731  19.464  0.00  0.00    +0.000 C 
BRANCH  16  19
ATOM     19  C   UNL     1       3.561   6.009  17.678  0.00  0.00    +0.000 A 
ATOM     20  C   UNL     1       3.675   4.623  17.498  0.00  0.00    +0.000 A 
ATOM     21  C   UNL     1       4.717   4.065  16.750  0.00  0.00    +0.000 A 
ATOM     22  C   UNL     1       5.667   4.892  16.174  0.00  0.00    +0.000 A 
ATOM     23  F   UNL     1       6.663   4.360  15.454  0.00  0.00    +0.000 F 
ATOM     24  C   UNL     1       5.597   6.265  16.333  0.00  0.00    +0.000 A 
ATOM     25  C   UNL     1       4.553   6.815  17.082  0.00  0.00    +0.000 A 
ENDBRANCH  16  19
ENDBRANCH   1  12
BRANCH   3  26
ATOM     26  C   UNL     1       0.292  13.497  21.639  0.00  0.00    +0.000 A 
ATOM     27  C   UNL     1      -0.613  14.141  22.504  0.00  0.00    +0.000 A 
ATOM     28  C   UNL     1      -0.336  15.407  23.035  0.00  0.00    +0.000 A 
ATOM     29  C   UNL     1       0.857  16.041  22.707  0.00  0.00    +0.000 A 
ATOM     30 CL   UNL     1       1.208  17.599  23.343  0.00  0.00    +0.000 Cl
ATOM     31  C   UNL     1       1.763  15.427  21.847  0.00  0.00    +0.000 A 
ATOM     32  C   UNL     1       1.472  14.170  21.303  0.00  0.00    +0.000 A 
ENDBRANCH   3  26
TORSDOF 3
ENDMDL
MODEL 5
REMARK VINA RESULT:      -7.1      3.888      6.926
REMARK  Name = 
REMARK  3 active torsions:
REMARK  status: ('A' for Active; 'I' for Inactive)
REMARK    1  A    between atoms: C_2  and  C_3
REMARK    2  A    between atoms: C_5  and  C_6
REMARK    3  A    between atoms: N_23  and  C_24
REMARK                            x       y       z     vdW  Elec       q    Type
REMARK                         _______ _______ _______ _____ _____    ______ ____
ROOT
ATOM      1  C   UNL     1       4.326   5.615  19.663  0.00  0.00    +0.000 A 
ATOM      2  N   UNL     1       3.796   6.887  19.682  0.00  0.00    +0.000 NA
ATOM      3  C   UNL     1       2.498   6.781  19.888  0.00  0.00    +0.000 A 
ATOM      4  N   UNL     1       2.178   5.447  20.106  0.00  0.00    +0.000 N 
ATOM      5  C   UNL     1       3.345   4.705  20.030  0.00  0.00    +0.000 A 
ATOM      6  C   UNL     1       3.450   3.228  20.245  0.00  0.00    +0.000 C 
ATOM      7  C   UNL     1       2.627   2.767  21.441  0.00  0.00    +0.000 C 
ATOM      8  C   UNL     1       1.155   2.532  21.107  0.00  0.00    +0.000 C 
ATOM      9  C   UNL     1       0.570   3.472  20.055  0.00  0.00    +0.000 C 
ATOM     10  C   UNL     1       0.836   4.944  20.346  0.00  0.00    +0.000 C 
ENDROOT
BRANCH   1  12
ATOM     11  O   UNL     1       6.534   4.879  20.092  0.00  0.00    +0.000 OA
ATOM     12  C   UNL     1       5.720   5.320  19.276  0.00  0.00    +0.000 C 
ATOM     13  N   UNL     1       6.064   5.511  17.937  0.00  0.00    +0.000 N 
ATOM     14  C   UNL     1       7.425   5.208  17.474  0.00  0.00    +0.000 C 
ATOM     15  C   UNL     1       7.438   4.130  16.362  0.00  0.00    +0.000 C 
ATOM     16  N   UNL     1       6.460   4.472  15.311  0.00  0.00    +0.000 N 
ATOM     17  C   UNL     1       5.101   4.715  15.800  0.00  0.00    +0.000 C 
ATOM     18  C   UNL     1       5.124   5.829  16.849  0.00  0.00    +0.000 C 
BRANCH  16  19
ATOM     19  C   UNL     1       6.773   4.568  13.974  0.00  0.00    +0.000 A 
ATOM     20  C   UNL     1       6.207   3.708  13.022  0.00  0.00    +0.000 A 
ATOM     21  C   UNL     1       6.505   3.823  11.661  0.00  0.00    +0.000 A 
ATOM     22  C   UNL     1       7.385   4.804  11.233  0.00  0.00    +0.000 A 
ATOM     23  F   UNL     1       7.668   4.920   9.929  0.00  0.00    +0.000 F 
ATOM     24  C   UNL     1       7.972   5.670  12.139  0.00  0.00    +0.000 A 
ATOM     25  C   UNL     1       7.669   5.547  13.498  0.00  0.00    +0.000 A 
ENDBRANCH  16  19
ENDBRANCH   1  12
BRANCH   3  26
ATOM     26  C   UNL     1       1.582   7.932  19.794  0.00  0.00    +0.000 A 
ATOM     27  C   UNL     1       1.476   8.620  18.570  0.00  0.00    +0.000 A 
ATOM     28  C   UNL     1       0.632   9.728  18.429  0.00  0.00    +0.000 A 
ATOM     29  C   UNL     1      -0.120  10.158  19.516  0.00  0.00    +0.000 A 
ATOM     30 CL   UNL     1      -1.154  11.523  19.362  0.00  0.00    +0.000 Cl
ATOM     31  C   UNL     1      -0.025   9.500  20.738  0.00  0.00    +0.000 A 
ATOM     32  C   UNL     1       0.835   8.405  20.879  0.00  0.00    +0.000 A 
ENDBRANCH   3  26
TORSDOF 3
ENDMDL
MODEL 6
REMARK VINA RESULT:      -7.1      2.364      4.131
REMARK  Name = 
REMARK  3 active torsions:
REMARK  status: ('A' for Active; 'I' for Inactive)
REMARK    1  A    between atoms: C_2  and  C_3
REMARK    2  A    between atoms: C_5  and  C_6
REMARK    3  A    between atoms: N_23  and  C_24
REMARK                            x       y       z     vdW  Elec       q    Type
REMARK                         _______ _______ _______ _____ _____    ______ ____
ROOT
ATOM      1  C   UNL     1      -0.272  10.291  19.926  0.00  0.00    +0.000 A 
ATOM      2  N   UNL     1       0.146  11.567  20.239  0.00  0.00    +0.000 NA
ATOM      3  C   UNL     1      -0.344  12.387  19.332  0.00  0.00    +0.000 A 
ATOM      4  N   UNL     1      -1.170  11.675  18.472  0.00  0.00    +0.000 N 
ATOM      5  C   UNL     1      -1.182  10.352  18.881  0.00  0.00    +0.000 A 
ATOM      6  C   UNL     1      -1.980   9.256  18.249  0.00  0.00    +0.000 C 
ATOM      7  C   UNL     1      -3.398   9.702  17.917  0.00  0.00    +0.000 C 
ATOM      8  C   UNL     1      -3.502  10.437  16.582  0.00  0.00    +0.000 C 
ATOM      9  C   UNL     1      -2.294  11.296  16.217  0.00  0.00    +0.000 C 
ATOM     10  C   UNL     1      -1.869  12.245  17.332  0.00  0.00    +0.000 C 
ENDROOT
BRANCH   1  12
ATOM     11  O   UNL     1      -0.417   8.543  21.513  0.00  0.00    +0.000 OA
ATOM     12  C   UNL     1       0.227   9.081  20.609  0.00  0.00    +0.000 C 
ATOM     13  N   UNL     1       1.431   8.541  20.152  0.00  0.00    +0.000 N 
ATOM     14  C   UNL     1       1.970   7.320  20.765  0.00  0.00    +0.000 C 
ATOM     15  C   UNL     1       2.137   6.175  19.734  0.00  0.00    +0.000 C 
ATOM     16  N   UNL     1       2.848   6.666  18.538  0.00  0.00    +0.000 N 
ATOM     17  C   UNL     1       2.252   7.854  17.921  0.00  0.00    +0.000 C 
ATOM     18  C   UNL     1       2.165   8.980  18.954  0.00  0.00    +0.000 C 
BRANCH  16  19
ATOM     19  C   UNL     1       3.983   6.080  18.027  0.00  0.00    +0.000 A 
ATOM     20  C   UNL     1       4.564   6.523  16.830  0.00  0.00    +0.000 A 
ATOM     21  C   UNL     1       5.733   5.945  16.324  0.00  0.00    +0.000 A 
ATOM     22  C   UNL     1       6.336   4.905  17.012  0.00  0.00    +0.000 A 
ATOM     23  F   UNL     1       7.458   4.352  16.533  0.00  0.00    +0.000 F 
ATOM     24  C   UNL     1       5.792   4.431  18.194  0.00  0.00    +0.000 A 
ATOM     25  C   UNL     1       4.623   5.014  18.692  0.00  0.00    +0.000 A 
ENDBRANCH  16  19
ENDBRANCH   1  12
BRANCH   3  26
ATOM     26  C   UNL     1       0.043  13.808  19.253  0.00  0.00    +0.000 A 
ATOM     27  C   UNL     1       1.327  14.137  18.777  0.00  0.00    +0.000 A 
ATOM     28  C   UNL     1       1.752  15.469  18.694  0.00  0.00    +0.000 A 
ATOM     29  C   UNL     1       0.891  16.488  19.084  0.00  0.00    +0.000 A 
ATOM     30 CL   UNL     1       1.400  18.128  18.997  0.00  0.00    +0.000 Cl
ATOM     31  C   UNL     1      -0.379  16.185  19.567  0.00  0.00    +0.000 A 
ATOM     32  C   UNL     1      -0.792  14.852  19.666  0.00  0.00    +0.000 A 
ENDBRANCH   3  26
TORSDOF 3
ENDMDL
MODEL 7
REMARK VINA RESULT:      -7.1      2.257      3.950
REMARK  Name = 
REMARK  3 active torsions:
REMARK  status: ('A' for Active; 'I' for Inactive)
REMARK    1  A    between atoms: C_2  and  C_3
REMARK    2  A    between atoms: C_5  and  C_6
REMARK    3  A    between atoms: N_23  and  C_24
REMARK                            x       y       z     vdW  Elec       q    Type
REMARK                         _______ _______ _______ _____ _____    ______ ____
ROOT
ATOM      1  C   UNL     1      -0.095  10.310  19.926  0.00  0.00    +0.000 A 
ATOM      2  N   UNL     1       0.339  11.581  20.237  0.00  0.00    +0.000 NA
ATOM      3  C   UNL     1      -0.198  12.415  19.369  0.00  0.00    +0.000 A 
ATOM      4  N   UNL     1      -1.068  11.716  18.542  0.00  0.00    +0.000 N 
ATOM      5  C   UNL     1      -1.058  10.387  18.931  0.00  0.00    +0.000 A 
ATOM      6  C   UNL     1      -1.889   9.299  18.325  0.00  0.00    +0.000 C 
ATOM      7  C   UNL     1      -3.322   9.749  18.074  0.00  0.00    +0.000 C 
ATOM      8  C   UNL     1      -3.495  10.505  16.757  0.00  0.00    +0.000 C 
ATOM      9  C   UNL     1      -2.307  11.370  16.343  0.00  0.00    +0.000 C 
ATOM     10  C   UNL     1      -1.824  12.302  17.448  0.00  0.00    +0.000 C 
ENDROOT
BRANCH   1  12
ATOM     11  O   UNL     1      -0.104   8.594  21.554  0.00  0.00    +0.000 OA
ATOM     12  C   UNL     1       0.438   9.090  20.564  0.00  0.00    +0.000 C 
ATOM     13  N   UNL     1       1.549   8.492  19.967  0.00  0.00    +0.000 N 
ATOM     14  C   UNL     1       2.113   7.258  20.529  0.00  0.00    +0.000 C 
ATOM     15  C   UNL     1       2.098   6.091  19.510  0.00  0.00    +0.000 C 
ATOM     16  N   UNL     1       2.667   6.533  18.222  0.00  0.00    +0.000 N 
ATOM     17  C   UNL     1       2.045   7.735  17.663  0.00  0.00    +0.000 C 
ATOM     18  C   UNL     1       2.138   8.880  18.675  0.00  0.00    +0.000 C 
BRANCH  16  19
ATOM     19  C   UNL     1       3.701   5.890  17.581  0.00  0.00    +0.000 A 
ATOM     20  C   UNL     1       3.738   4.494  17.461  0.00  0.00    +0.000 A 
ATOM     21  C   UNL     1       4.775   3.843  16.785  0.00  0.00    +0.000 A 
ATOM     22  C   UNL     1       5.799   4.587  16.221  0.00  0.00    +0.000 A 
ATOM     23  F   UNL     1       6.791   3.967  15.570  0.00  0.00    +0.000 F 
ATOM     24  C   UNL     1       5.806   5.968  16.322  0.00  0.00    +0.000 A 
ATOM     25  C   UNL     1       4.765   6.610  17.000  0.00  0.00    +0.000 A 
ENDBRANCH  16  19
ENDBRANCH   1  12
BRANCH   3  26
ATOM     26  C   UNL     1       0.185  13.836  19.291  0.00  0.00    +0.000 A 
ATOM     27  C   UNL     1      -0.719  14.812  19.754  0.00  0.00    +0.000 A 
ATOM     28  C   UNL     1      -0.412  16.176  19.692  0.00  0.00    +0.000 A 
ATOM     29  C   UNL     1       0.810  16.580  19.166  0.00  0.00    +0.000 A 
ATOM     30 CL   UNL     1       1.199  18.252  19.074  0.00  0.00    +0.000 Cl
ATOM     31  C   UNL     1       1.716  15.634  18.694  0.00  0.00    +0.000 A 
ATOM     32  C   UNL     1       1.395  14.272  18.741  0.00  0.00    +0.000 A 
ENDBRANCH   3  26
TORSDOF 3
ENDMDL
MODEL 8
REMARK VINA RESULT:      -6.9      6.207      8.224
REMARK  Name = 
REMARK  3 active torsions:
REMARK  status: ('A' for Active; 'I' for Inactive)
REMARK    1  A    between atoms: C_2  and  C_3
REMARK    2  A    between atoms: C_5  and  C_6
REMARK    3  A    between atoms: N_23  and  C_24
REMARK                            x       y       z     vdW  Elec       q    Type
REMARK                         _______ _______ _______ _____ _____    ______ ____
ROOT
ATOM      1  C   UNL     1       3.210  16.550  19.579  0.00  0.00    +0.000 A 
ATOM      2  N   UNL     1       2.987  15.312  20.144  0.00  0.00    +0.000 NA
ATOM      3  C   UNL     1       1.707  15.030  20.006  0.00  0.00    +0.000 A 
ATOM      4  N   UNL     1       1.096  16.032  19.262  0.00  0.00    +0.000 N 
ATOM      5  C   UNL     1       2.059  16.971  18.931  0.00  0.00    +0.000 A 
ATOM      6  C   UNL     1       1.828  18.193  18.098  0.00  0.00    +0.000 C 
ATOM      7  C   UNL     1       0.959  17.898  16.882  0.00  0.00    +0.000 C 
ATOM      8  C   UNL     1      -0.537  17.923  17.189  0.00  0.00    +0.000 C 
ATOM      9  C   UNL     1      -0.923  17.427  18.580  0.00  0.00    +0.000 C 
ATOM     10  C   UNL     1      -0.318  16.072  18.928  0.00  0.00    +0.000 C 
ENDROOT
BRANCH   1  12
ATOM     11  O   UNL     1       4.597  18.260  20.443  0.00  0.00    +0.000 OA
ATOM     12  C   UNL     1       4.487  17.281  19.702  0.00  0.00    +0.000 C 
ATOM     13  N   UNL     1       5.577  16.785  18.985  0.00  0.00    +0.000 N 
ATOM     14  C   UNL     1       6.887  17.443  19.086  0.00  0.00    +0.000 C 
ATOM     15  C   UNL     1       7.983  16.486  19.617  0.00  0.00    +0.000 C 
ATOM     16  N   UNL     1       7.955  15.215  18.869  0.00  0.00    +0.000 N 
ATOM     17  C   UNL     1       6.646  14.557  18.835  0.00  0.00    +0.000 C 
ATOM     18  C   UNL     1       5.607  15.513  18.245  0.00  0.00    +0.000 C 
BRANCH  16  19
ATOM     19  C   UNL     1       9.052  14.672  18.240  0.00  0.00    +0.000 A 
ATOM     20  C   UNL     1       9.180  13.288  18.049  0.00  0.00    +0.000 A 
ATOM     21  C   UNL     1      10.281  12.739  17.385  0.00  0.00    +0.000 A 
ATOM     22  C   UNL     1      11.279  13.573  16.907  0.00  0.00    +0.000 A 
ATOM     23  F   UNL     1      12.333  13.049  16.268  0.00  0.00    +0.000 F 
ATOM     24  C   UNL     1      11.197  14.944  17.081  0.00  0.00    +0.000 A 
ATOM     25  C   UNL     1      10.093  15.484  17.746  0.00  0.00    +0.000 A 
ENDBRANCH  16  19
ENDBRANCH   1  12
BRANCH   3  26
ATOM     26  C   UNL     1       1.077  13.862  20.648  0.00  0.00    +0.000 A 
ATOM     27  C   UNL     1       1.407  12.572  20.189  0.00  0.00    +0.000 A 
ATOM     28  C   UNL     1       0.828  11.429  20.754  0.00  0.00    +0.000 A 
ATOM     29  C   UNL     1      -0.088  11.566  21.791  0.00  0.00    +0.000 A 
ATOM     30 CL   UNL     1      -0.814  10.173  22.489  0.00  0.00    +0.000 Cl
ATOM     31  C   UNL     1      -0.435  12.832  22.255  0.00  0.00    +0.000 A 
ATOM     32  C   UNL     1       0.131  13.971  21.674  0.00  0.00    +0.000 A 
ENDBRANCH   3  26
TORSDOF 3
ENDMDL
MODEL 9
REMARK VINA RESULT:      -6.8      2.698      4.204
REMARK  Name = 
REMARK  3 active torsions:
REMARK  status: ('A' for Active; 'I' for Inactive)
REMARK    1  A    between atoms: C_2  and  C_3
REMARK    2  A    between atoms: C_5  and  C_6
REMARK    3  A    between atoms: N_23  and  C_24
REMARK                            x       y       z     vdW  Elec       q    Type
REMARK                         _______ _______ _______ _____ _____    ______ ____
ROOT
ATOM      1  C   UNL     1      -0.301   9.999  21.024  0.00  0.00    +0.000 A 
ATOM      2  N   UNL     1      -0.155  11.029  21.927  0.00  0.00    +0.000 NA
ATOM      3  C   UNL     1      -0.415  12.158  21.299  0.00  0.00    +0.000 A 
ATOM      4  N   UNL     1      -0.831  11.875  20.004  0.00  0.00    +0.000 N 
ATOM      5  C   UNL     1      -0.824  10.500  19.841  0.00  0.00    +0.000 A 
ATOM      6  C   UNL     1      -1.245   9.771  18.603  0.00  0.00    +0.000 C 
ATOM      7  C   UNL     1      -2.520  10.352  18.005  0.00  0.00    +0.000 C 
ATOM      8  C   UNL     1      -2.268  11.564  17.110  0.00  0.00    +0.000 C 
ATOM      9  C   UNL     1      -1.113  12.463  17.542  0.00  0.00    +0.000 C 
ATOM     10  C   UNL     1      -1.182  12.873  19.008  0.00  0.00    +0.000 C 
ENDROOT
BRANCH   1  12
ATOM     11  O   UNL     1      -0.655   7.854  21.956  0.00  0.00    +0.000 OA
ATOM     12  C   UNL     1       0.083   8.603  21.313  0.00  0.00    +0.000 C 
ATOM     13  N   UNL     1       1.293   8.152  20.780  0.00  0.00    +0.000 N 
ATOM     14  C   UNL     1       1.723   6.764  21.001  0.00  0.00    +0.000 C 
ATOM     15  C   UNL     1       1.916   5.995  19.670  0.00  0.00    +0.000 C 
ATOM     16  N   UNL     1       2.742   6.787  18.739  0.00  0.00    +0.000 N 
ATOM     17  C   UNL     1       2.255   8.147  18.499  0.00  0.00    +0.000 C 
ATOM     18  C   UNL     1       2.139   8.893  19.831  0.00  0.00    +0.000 C 
BRANCH  16  19
ATOM     19  C   UNL     1       3.885   6.314  18.136  0.00  0.00    +0.000 A 
ATOM     20  C   UNL     1       4.638   5.274  18.700  0.00  0.00    +0.000 A 
ATOM     21  C   UNL     1       5.784   4.775  18.073  0.00  0.00    +0.000 A 
ATOM     22  C   UNL     1       6.198   5.318  16.868  0.00  0.00    +0.000 A 
ATOM     23  F   UNL     1       7.292   4.839  16.263  0.00  0.00    +0.000 F 
ATOM     24  C   UNL     1       5.488   6.351  16.279  0.00  0.00    +0.000 A 
ATOM     25  C   UNL     1       4.344   6.844  16.912  0.00  0.00    +0.000 A 
ENDBRANCH  16  19
ENDBRANCH   1  12
BRANCH   3  26
ATOM     26  C   UNL     1      -0.187  13.480  21.912  0.00  0.00    +0.000 A 
ATOM     27  C   UNL     1       0.946  14.222  21.526  0.00  0.00    +0.000 A 
ATOM     28  C   UNL     1       1.218  15.476  22.086  0.00  0.00    +0.000 A 
ATOM     29  C   UNL     1       0.354  16.003  23.039  0.00  0.00    +0.000 A 
ATOM     30 CL   UNL     1       0.679  17.538  23.743  0.00  0.00    +0.000 Cl
ATOM     31  C   UNL     1      -0.767  15.283  23.442  0.00  0.00    +0.000 A 
ATOM     32  C   UNL     1      -1.024  14.022  22.893  0.00  0.00    +0.000 A 
ENDBRANCH   3  26
TORSDOF 3
ENDMDL
