MODEL 1
REMARK VINA RESULT:      -8.8      0.000      0.000
REMARK  Name = 
REMARK  5 active torsions:
REMARK  status: ('A' for Active; 'I' for Inactive)
REMARK    1  A    between atoms: N_2  and  C_4
REMARK    2  A    between atoms: C_4  and  C_5
REMARK    3  A    between atoms: C_5  and  C_6
REMARK    4  A    between atoms: C_5  and  C_12
REMARK    5  A    between atoms: C_13  and  C_14
REMARK                            x       y       z     vdW  Elec       q    Type
REMARK                         _______ _______ _______ _____ _____    ______ ____
ROOT
ATOM      1  C   UNL     1       5.294   4.266  17.451  0.00  0.00    +0.000 A 
ATOM      2  C   UNL     1       5.036   5.010  18.629  0.00  0.00    +0.000 A 
ATOM      3  N   UNL     1       5.105   3.949  19.535  0.00  0.00    +0.000 N 
ATOM      4  C   UNL     1       4.165   3.068  19.024  0.00  0.00    +0.000 A 
ATOM      5  C   UNL     1       3.260   2.275  19.726  0.00  0.00    +0.000 A 
ATOM      6  C   UNL     1       2.068   2.027  19.063  0.00  0.00    +0.000 A 
ATOM      7  C   UNL     1       1.901   2.420  17.731  0.00  0.00    +0.000 A 
ATOM      8  C   UNL     1       2.956   2.996  16.970  0.00  0.00    +0.000 A 
ATOM      9  C   UNL     1       4.146   3.367  17.643  0.00  0.00    +0.000 A 
ATOM     10  H   UNL     1       5.982   3.573  19.865  0.00  0.00    +0.000 HD
ENDROOT
BRANCH   2  11
ATOM     11  C   UNL     1       3.961   6.069  18.632  0.00  0.00    +0.000 A 
ATOM     12  C   UNL     1       3.065   6.181  19.745  0.00  0.00    +0.000 A 
ATOM     13  C   UNL     1       2.124   7.181  19.852  0.00  0.00    +0.000 A 
ATOM     14  C   UNL     1       2.040   8.118  18.838  0.00  0.00    +0.000 A 
ATOM     15  C   UNL     1       2.886   8.026  17.727  0.00  0.00    +0.000 A 
ATOM     16  C   UNL     1       3.844   7.009  17.618  0.00  0.00    +0.000 A 
ENDBRANCH   2  11
BRANCH   1  17
ATOM     17  C   UNL     1       6.120   5.065  16.450  0.00  0.00    +0.000 C 
BRANCH  17  18
ATOM     18  C   UNL     1       6.126   4.711  14.989  0.00  0.00    +0.000 A 
ATOM     19  C   UNL     1       5.240   3.849  14.351  0.00  0.00    +0.000 A 
ATOM     20  C   UNL     1       5.477   3.460  13.026  0.00  0.00    +0.000 A 
ATOM     21  C   UNL     1       6.597   3.925  12.326  0.00  0.00    +0.000 A 
ATOM     22  C   UNL     1       7.490   4.788  12.943  0.00  0.00    +0.000 A 
ATOM     23  C   UNL     1       7.253   5.178  14.257  0.00  0.00    +0.000 A 
ENDBRANCH  17  18
BRANCH  17  24
ATOM     24  C   UNL     1       7.518   5.417  17.015  0.00  0.00    +0.000 C 
BRANCH  24  26
ATOM     25  O   UNL     1       8.111   7.046  18.587  0.00  0.00    +0.000 OA
ATOM     26  N   UNL     1       7.598   6.831  17.481  0.00  0.00    +0.000 N 
ATOM     27  O   UNL     1       7.051   7.682  16.766  0.00  0.00    +0.000 OA
ENDBRANCH  24  26
ENDBRANCH  17  24
ENDBRANCH   1  17
TORSDOF 5
ENDMDL
MODEL 2
REMARK VINA RESULT:      -8.8      0.120      1.132
REMARK  Name = 
REMARK  5 active torsions:
REMARK  status: ('A' for Active; 'I' for Inactive)
REMARK    1  A    between atoms: N_2  and  C_4
REMARK    2  A    between atoms: C_4  and  C_5
REMARK    3  A    between atoms: C_5  and  C_6
REMARK    4  A    between atoms: C_5  and  C_12
REMARK    5  A    between atoms: C_13  and  C_14
REMARK                            x       y       z     vdW  Elec       q    Type
REMARK                         _______ _______ _______ _____ _____    ______ ____
ROOT
ATOM      1  C   UNL     1       5.259   4.208  17.420  0.00  0.00    +0.000 A 
ATOM      2  C   UNL     1       5.087   4.885  18.654  0.00  0.00    +0.000 A 
ATOM      3  N   UNL     1       5.145   3.765  19.487  0.00  0.00    +0.000 N 
ATOM      4  C   UNL     1       4.143   2.962  18.965  0.00  0.00    +0.000 A 
ATOM      5  C   UNL     1       3.233   2.165  19.656  0.00  0.00    +0.000 A 
ATOM      6  C   UNL     1       2.003   2.014  19.034  0.00  0.00    +0.000 A 
ATOM      7  C   UNL     1       1.797   2.501  17.739  0.00  0.00    +0.000 A 
ATOM      8  C   UNL     1       2.846   3.077  16.968  0.00  0.00    +0.000 A 
ATOM      9  C   UNL     1       4.079   3.350  17.608  0.00  0.00    +0.000 A 
ATOM     10  H   UNL     1       6.016   3.329  19.753  0.00  0.00    +0.000 HD
ENDROOT
BRANCH   2  11
ATOM     11  C   UNL     1       4.064   5.988  18.773  0.00  0.00    +0.000 A 
ATOM     12  C   UNL     1       3.922   6.953  17.723  0.00  0.00    +0.000 A 
ATOM     13  C   UNL     1       2.949   7.927  17.727  0.00  0.00    +0.000 A 
ATOM     14  C   UNL     1       2.071   7.976  18.794  0.00  0.00    +0.000 A 
ATOM     15  C   UNL     1       2.194   7.062  19.846  0.00  0.00    +0.000 A 
ATOM     16  C   UNL     1       3.184   6.070  19.842  0.00  0.00    +0.000 A 
ENDBRANCH   2  11
BRANCH   1  17
ATOM     17  C   UNL     1       6.079   5.033  16.435  0.00  0.00    +0.000 C 
BRANCH  17  18
ATOM     18  C   UNL     1       6.093   4.704  14.969  0.00  0.00    +0.000 A 
ATOM     19  C   UNL     1       5.150   3.935  14.293  0.00  0.00    +0.000 A 
ATOM     20  C   UNL     1       5.387   3.548  12.967  0.00  0.00    +0.000 A 
ATOM     21  C   UNL     1       6.562   3.922  12.304  0.00  0.00    +0.000 A 
ATOM     22  C   UNL     1       7.513   4.691  12.960  0.00  0.00    +0.000 A 
ATOM     23  C   UNL     1       7.276   5.079  14.274  0.00  0.00    +0.000 A 
ENDBRANCH  17  18
BRANCH  17  24
ATOM     24  C   UNL     1       7.471   5.391  17.010  0.00  0.00    +0.000 C 
BRANCH  24  26
ATOM     25  O   UNL     1       7.097   7.687  16.753  0.00  0.00    +0.000 OA
ATOM     26  N   UNL     1       7.535   6.799  17.496  0.00  0.00    +0.000 N 
ATOM     27  O   UNL     1       8.120   6.987  18.572  0.00  0.00    +0.000 OA
ENDBRANCH  24  26
ENDBRANCH  17  24
ENDBRANCH   1  17
TORSDOF 5
ENDMDL
MODEL 3
REMARK VINA RESULT:      -8.6      1.442      1.571
REMARK  Name = 
REMARK  5 active torsions:
REMARK  status: ('A' for Active; 'I' for Inactive)
REMARK    1  A    between atoms: N_2  and  C_4
REMARK    2  A    between atoms: C_4  and  C_5
REMARK    3  A    between atoms: C_5  and  C_6
REMARK    4  A    between atoms: C_5  and  C_12
REMARK    5  A    between atoms: C_13  and  C_14
REMARK                            x       y       z     vdW  Elec       q    Type
REMARK                         _______ _______ _______ _____ _____    ______ ____
ROOT
ATOM      1  C   UNL     1       4.467   5.109  18.117  0.00  0.00    +0.000 A 
ATOM      2  C   UNL     1       4.099   5.967  19.183  0.00  0.00    +0.000 A 
ATOM      3  N   UNL     1       4.032   4.997  20.186  0.00  0.00    +0.000 N 
ATOM      4  C   UNL     1       3.130   4.090  19.653  0.00  0.00    +0.000 A 
ATOM      5  C   UNL     1       2.127   3.385  20.315  0.00  0.00    +0.000 A 
ATOM      6  C   UNL     1       1.011   3.097  19.544  0.00  0.00    +0.000 A 
ATOM      7  C   UNL     1       1.009   3.365  18.171  0.00  0.00    +0.000 A 
ATOM      8  C   UNL     1       2.162   3.844  17.488  0.00  0.00    +0.000 A 
ATOM      9  C   UNL     1       3.278   4.255  18.257  0.00  0.00    +0.000 A 
ATOM     10  H   UNL     1       4.854   4.637  20.650  0.00  0.00    +0.000 HD
ENDROOT
BRANCH   2  11
ATOM     11  C   UNL     1       3.064   7.043  18.963  0.00  0.00    +0.000 A 
ATOM     12  C   UNL     1       2.177   7.415  20.025  0.00  0.00    +0.000 A 
ATOM     13  C   UNL     1       1.274   8.449  19.919  0.00  0.00    +0.000 A 
ATOM     14  C   UNL     1       1.220   9.158  18.733  0.00  0.00    +0.000 A 
ATOM     15  C   UNL     1       2.058   8.808  17.668  0.00  0.00    +0.000 A 
ATOM     16  C   UNL     1       2.977   7.755  17.776  0.00  0.00    +0.000 A 
ENDBRANCH   2  11
BRANCH   1  17
ATOM     17  C   UNL     1       5.427   5.792  17.150  0.00  0.00    +0.000 C 
BRANCH  17  18
ATOM     18  C   UNL     1       5.683   5.226  15.781  0.00  0.00    +0.000 A 
ATOM     19  C   UNL     1       4.930   4.243  15.146  0.00  0.00    +0.000 A 
ATOM     20  C   UNL     1       5.393   3.673  13.953  0.00  0.00    +0.000 A 
ATOM     21  C   UNL     1       6.606   4.075  13.382  0.00  0.00    +0.000 A 
ATOM     22  C   UNL     1       7.369   5.056  13.998  0.00  0.00    +0.000 A 
ATOM     23  C   UNL     1       6.909   5.626  15.180  0.00  0.00    +0.000 A 
ENDBRANCH  17  18
BRANCH  17  24
ATOM     24  C   UNL     1       6.701   6.294  17.869  0.00  0.00    +0.000 C 
BRANCH  24  26
ATOM     25  O   UNL     1       7.296   5.402  19.949  0.00  0.00    +0.000 OA
ATOM     26  N   UNL     1       7.320   5.240  18.723  0.00  0.00    +0.000 N 
ATOM     27  O   UNL     1       7.907   4.323  18.132  0.00  0.00    +0.000 OA
ENDBRANCH  24  26
ENDBRANCH  17  24
ENDBRANCH   1  17
TORSDOF 5
ENDMDL
MODEL 4
REMARK VINA RESULT:      -8.6      0.893      1.040
REMARK  Name = 
REMARK  5 active torsions:
REMARK  status: ('A' for Active; 'I' for Inactive)
REMARK    1  A    between atoms: N_2  and  C_4
REMARK    2  A    between atoms: C_4  and  C_5
REMARK    3  A    between atoms: C_5  and  C_6
REMARK    4  A    between atoms: C_5  and  C_12
REMARK    5  A    between atoms: C_13  and  C_14
REMARK                            x       y       z     vdW  Elec       q    Type
REMARK                         _______ _______ _______ _____ _____    ______ ____
ROOT
ATOM      1  C   UNL     1       5.092   4.564  17.466  0.00  0.00    +0.000 A 
ATOM      2  C   UNL     1       4.854   5.287  18.663  0.00  0.00    +0.000 A 
ATOM      3  N   UNL     1       5.010   4.222  19.554  0.00  0.00    +0.000 N 
ATOM      4  C   UNL     1       4.087   3.305  19.076  0.00  0.00    +0.000 A 
ATOM      5  C   UNL     1       3.249   2.467  19.808  0.00  0.00    +0.000 A 
ATOM      6  C   UNL     1       2.041   2.172  19.196  0.00  0.00    +0.000 A 
ATOM      7  C   UNL     1       1.798   2.570  17.877  0.00  0.00    +0.000 A 
ATOM      8  C   UNL     1       2.793   3.197  17.076  0.00  0.00    +0.000 A 
ATOM      9  C   UNL     1       3.994   3.614  17.700  0.00  0.00    +0.000 A 
ATOM     10  H   UNL     1       5.916   3.882  19.842  0.00  0.00    +0.000 HD
ENDROOT
BRANCH   2  11
ATOM     11  C   UNL     1       3.736   6.298  18.723  0.00  0.00    +0.000 A 
ATOM     12  C   UNL     1       2.879   6.353  19.870  0.00  0.00    +0.000 A 
ATOM     13  C   UNL     1       1.900   7.309  20.029  0.00  0.00    +0.000 A 
ATOM     14  C   UNL     1       1.738   8.257  19.035  0.00  0.00    +0.000 A 
ATOM     15  C   UNL     1       2.544   8.220  17.892  0.00  0.00    +0.000 A 
ATOM     16  C   UNL     1       3.540   7.246  17.730  0.00  0.00    +0.000 A 
ENDBRANCH   2  11
BRANCH   1  17
ATOM     17  C   UNL     1       5.838   5.407  16.439  0.00  0.00    +0.000 C 
BRANCH  17  18
ATOM     18  C   UNL     1       5.999   4.938  15.019  0.00  0.00    +0.000 A 
ATOM     19  C   UNL     1       5.187   4.019  14.363  0.00  0.00    +0.000 A 
ATOM     20  C   UNL     1       5.563   3.529  13.105  0.00  0.00    +0.000 A 
ATOM     21  C   UNL     1       6.748   3.950  12.491  0.00  0.00    +0.000 A 
ATOM     22  C   UNL     1       7.570   4.869  13.127  0.00  0.00    +0.000 A 
ATOM     23  C   UNL     1       7.195   5.359  14.374  0.00  0.00    +0.000 A 
ENDBRANCH  17  18
BRANCH  17  24
ATOM     24  C   UNL     1       7.118   6.038  17.038  0.00  0.00    +0.000 C 
BRANCH  24  26
ATOM     25  O   UNL     1       8.302   4.043  17.346  0.00  0.00    +0.000 OA
ATOM     26  N   UNL     1       7.880   5.075  17.883  0.00  0.00    +0.000 N 
ATOM     27  O   UNL     1       7.947   5.333  19.093  0.00  0.00    +0.000 OA
ENDBRANCH  24  26
ENDBRANCH  17  24
ENDBRANCH   1  17
TORSDOF 5
ENDMDL
MODEL 5
REMARK VINA RESULT:      -8.5      0.893      1.349
REMARK  Name = 
REMARK  5 active torsions:
REMARK  status: ('A' for Active; 'I' for Inactive)
REMARK    1  A    between atoms: N_2  and  C_4
REMARK    2  A    between atoms: C_4  and  C_5
REMARK    3  A    between atoms: C_5  and  C_6
REMARK    4  A    between atoms: C_5  and  C_12
REMARK    5  A    between atoms: C_13  and  C_14
REMARK                            x       y       z     vdW  Elec       q    Type
REMARK                         _______ _______ _______ _____ _____    ______ ____
ROOT
ATOM      1  C   UNL     1       5.076   4.510  17.439  0.00  0.00    +0.000 A 
ATOM      2  C   UNL     1       4.913   5.192  18.671  0.00  0.00    +0.000 A 
ATOM      3  N   UNL     1       5.045   4.085  19.513  0.00  0.00    +0.000 N 
ATOM      4  C   UNL     1       4.063   3.234  19.031  0.00  0.00    +0.000 A 
ATOM      5  C   UNL     1       3.210   2.406  19.758  0.00  0.00    +0.000 A 
ATOM      6  C   UNL     1       1.969   2.195  19.176  0.00  0.00    +0.000 A 
ATOM      7  C   UNL     1       1.703   2.658  17.883  0.00  0.00    +0.000 A 
ATOM      8  C   UNL     1       2.701   3.270  17.075  0.00  0.00    +0.000 A 
ATOM      9  C   UNL     1       3.941   3.604  17.673  0.00  0.00    +0.000 A 
ATOM     10  H   UNL     1       5.942   3.690  19.755  0.00  0.00    +0.000 HD
ENDROOT
BRANCH   2  11
ATOM     11  C   UNL     1       3.848   6.251  18.812  0.00  0.00    +0.000 A 
ATOM     12  C   UNL     1       3.649   7.213  17.769  0.00  0.00    +0.000 A 
ATOM     13  C   UNL     1       2.636   8.147  17.793  0.00  0.00    +0.000 A 
ATOM     14  C   UNL     1       1.774   8.155  18.874  0.00  0.00    +0.000 A 
ATOM     15  C   UNL     1       1.952   7.243  19.920  0.00  0.00    +0.000 A 
ATOM     16  C   UNL     1       2.982   6.293  19.895  0.00  0.00    +0.000 A 
ENDBRANCH   2  11
BRANCH   1  17
ATOM     17  C   UNL     1       5.828   5.358  16.421  0.00  0.00    +0.000 C 
BRANCH  17  18
ATOM     18  C   UNL     1       5.986   4.904  14.997  0.00  0.00    +0.000 A 
ATOM     19  C   UNL     1       5.169   3.995  14.332  0.00  0.00    +0.000 A 
ATOM     20  C   UNL     1       5.543   3.517  13.068  0.00  0.00    +0.000 A 
ATOM     21  C   UNL     1       6.731   3.939  12.458  0.00  0.00    +0.000 A 
ATOM     22  C   UNL     1       7.556   4.847  13.104  0.00  0.00    +0.000 A 
ATOM     23  C   UNL     1       7.184   5.326  14.355  0.00  0.00    +0.000 A 
ENDBRANCH  17  18
BRANCH  17  24
ATOM     24  C   UNL     1       7.111   5.974  17.028  0.00  0.00    +0.000 C 
BRANCH  24  26
ATOM     25  O   UNL     1       7.978   5.302  19.095  0.00  0.00    +0.000 OA
ATOM     26  N   UNL     1       7.843   5.011  17.900  0.00  0.00    +0.000 N 
ATOM     27  O   UNL     1       8.352   4.032  17.337  0.00  0.00    +0.000 OA
ENDBRANCH  24  26
ENDBRANCH  17  24
ENDBRANCH   1  17
TORSDOF 5
ENDMDL
MODEL 6
REMARK VINA RESULT:      -8.4      0.275      1.151
REMARK  Name = 
REMARK  5 active torsions:
REMARK  status: ('A' for Active; 'I' for Inactive)
REMARK    1  A    between atoms: N_2  and  C_4
REMARK    2  A    between atoms: C_4  and  C_5
REMARK    3  A    between atoms: C_5  and  C_6
REMARK    4  A    between atoms: C_5  and  C_12
REMARK    5  A    between atoms: C_13  and  C_14
REMARK                            x       y       z     vdW  Elec       q    Type
REMARK                         _______ _______ _______ _____ _____    ______ ____
ROOT
ATOM      1  C   UNL     1       5.310   4.277  17.710  0.00  0.00    +0.000 A 
ATOM      2  C   UNL     1       4.972   5.030  18.862  0.00  0.00    +0.000 A 
ATOM      3  N   UNL     1       4.972   3.974  19.777  0.00  0.00    +0.000 N 
ATOM      4  C   UNL     1       4.067   3.094  19.206  0.00  0.00    +0.000 A 
ATOM      5  C   UNL     1       3.112   2.308  19.846  0.00  0.00    +0.000 A 
ATOM      6  C   UNL     1       1.968   2.060  19.102  0.00  0.00    +0.000 A 
ATOM      7  C   UNL     1       1.898   2.446  17.759  0.00  0.00    +0.000 A 
ATOM      8  C   UNL     1       3.007   3.013  17.072  0.00  0.00    +0.000 A 
ATOM      9  C   UNL     1       4.148   3.384  17.825  0.00  0.00    +0.000 A 
ATOM     10  H   UNL     1       5.822   3.597  20.171  0.00  0.00    +0.000 HD
ENDROOT
BRANCH   2  11
ATOM     11  C   UNL     1       3.904   6.093  18.782  0.00  0.00    +0.000 A 
ATOM     12  C   UNL     1       2.980   6.266  19.864  0.00  0.00    +0.000 A 
ATOM     13  C   UNL     1       2.043   7.275  19.895  0.00  0.00    +0.000 A 
ATOM     14  C   UNL     1       1.992   8.159  18.832  0.00  0.00    +0.000 A 
ATOM     15  C   UNL     1       2.865   8.006  17.750  0.00  0.00    +0.000 A 
ATOM     16  C   UNL     1       3.820   6.980  17.719  0.00  0.00    +0.000 A 
ENDBRANCH   2  11
BRANCH   1  17
ATOM     17  C   UNL     1       6.209   5.067  16.765  0.00  0.00    +0.000 C 
BRANCH  17  18
ATOM     18  C   UNL     1       6.407   4.636  15.339  0.00  0.00    +0.000 A 
ATOM     19  C   UNL     1       7.485   4.967  14.525  0.00  0.00    +0.000 A 
ATOM     20  C   UNL     1       7.448   4.657  13.159  0.00  0.00    +0.000 A 
ATOM     21  C   UNL     1       6.340   4.015  12.593  0.00  0.00    +0.000 A 
ATOM     22  C   UNL     1       5.257   3.673  13.388  0.00  0.00    +0.000 A 
ATOM     23  C   UNL     1       5.294   3.977  14.745  0.00  0.00    +0.000 A 
ENDBRANCH  17  18
BRANCH  17  24
ATOM     24  C   UNL     1       7.510   5.527  17.466  0.00  0.00    +0.000 C 
BRANCH  24  26
ATOM     25  O   UNL     1       7.019   7.707  16.770  0.00  0.00    +0.000 OA
ATOM     26  N   UNL     1       7.569   7.008  17.631  0.00  0.00    +0.000 N 
ATOM     27  O   UNL     1       8.256   7.434  18.569  0.00  0.00    +0.000 OA
ENDBRANCH  24  26
ENDBRANCH  17  24
ENDBRANCH   1  17
TORSDOF 5
ENDMDL
MODEL 7
REMARK VINA RESULT:      -8.3      0.921      1.699
REMARK  Name = 
REMARK  5 active torsions:
REMARK  status: ('A' for Active; 'I' for Inactive)
REMARK    1  A    between atoms: N_2  and  C_4
REMARK    2  A    between atoms: C_4  and  C_5
REMARK    3  A    between atoms: C_5  and  C_6
REMARK    4  A    between atoms: C_5  and  C_12
REMARK    5  A    between atoms: C_13  and  C_14
REMARK                            x       y       z     vdW  Elec       q    Type
REMARK                         _______ _______ _______ _____ _____    ______ ____
ROOT
ATOM      1  C   UNL     1       5.167   4.465  17.571  0.00  0.00    +0.000 A 
ATOM      2  C   UNL     1       4.940   5.162  18.785  0.00  0.00    +0.000 A 
ATOM      3  N   UNL     1       5.016   4.062  19.644  0.00  0.00    +0.000 N 
ATOM      4  C   UNL     1       4.056   3.213  19.115  0.00  0.00    +0.000 A 
ATOM      5  C   UNL     1       3.156   2.400  19.801  0.00  0.00    +0.000 A 
ATOM      6  C   UNL     1       1.949   2.192  19.152  0.00  0.00    +0.000 A 
ATOM      7  C   UNL     1       1.760   2.644  17.842  0.00  0.00    +0.000 A 
ATOM      8  C   UNL     1       2.807   3.240  17.085  0.00  0.00    +0.000 A 
ATOM      9  C   UNL     1       4.013   3.570  17.749  0.00  0.00    +0.000 A 
ATOM     10  H   UNL     1       5.895   3.663  19.941  0.00  0.00    +0.000 HD
ENDROOT
BRANCH   2  11
ATOM     11  C   UNL     1       3.877   6.230  18.855  0.00  0.00    +0.000 A 
ATOM     12  C   UNL     1       3.720   7.159  17.775  0.00  0.00    +0.000 A 
ATOM     13  C   UNL     1       2.713   8.097  17.734  0.00  0.00    +0.000 A 
ATOM     14  C   UNL     1       1.815   8.145  18.784  0.00  0.00    +0.000 A 
ATOM     15  C   UNL     1       1.951   7.267  19.864  0.00  0.00    +0.000 A 
ATOM     16  C   UNL     1       2.976   6.311  19.906  0.00  0.00    +0.000 A 
ENDBRANCH   2  11
BRANCH   1  17
ATOM     17  C   UNL     1       5.983   5.298  16.589  0.00  0.00    +0.000 C 
BRANCH  17  18
ATOM     18  C   UNL     1       6.302   4.783  15.213  0.00  0.00    +0.000 A 
ATOM     19  C   UNL     1       7.409   5.130  14.446  0.00  0.00    +0.000 A 
ATOM     20  C   UNL     1       7.484   4.724  13.106  0.00  0.00    +0.000 A 
ATOM     21  C   UNL     1       6.460   3.970  12.522  0.00  0.00    +0.000 A 
ATOM     22  C   UNL     1       5.350   3.611  13.271  0.00  0.00    +0.000 A 
ATOM     23  C   UNL     1       5.276   4.010  14.601  0.00  0.00    +0.000 A 
ENDBRANCH  17  18
BRANCH  17  24
ATOM     24  C   UNL     1       7.171   6.002  17.286  0.00  0.00    +0.000 C 
BRANCH  24  26
ATOM     25  O   UNL     1       8.391   4.038  17.653  0.00  0.00    +0.000 OA
ATOM     26  N   UNL     1       7.942   5.073  18.162  0.00  0.00    +0.000 N 
ATOM     27  O   UNL     1       7.990   5.360  19.366  0.00  0.00    +0.000 OA
ENDBRANCH  24  26
ENDBRANCH  17  24
ENDBRANCH   1  17
TORSDOF 5
ENDMDL
MODEL 8
REMARK VINA RESULT:      -8.3      0.978      1.423
REMARK  Name = 
REMARK  5 active torsions:
REMARK  status: ('A' for Active; 'I' for Inactive)
REMARK    1  A    between atoms: N_2  and  C_4
REMARK    2  A    between atoms: C_4  and  C_5
REMARK    3  A    between atoms: C_5  and  C_6
REMARK    4  A    between atoms: C_5  and  C_12
REMARK    5  A    between atoms: C_13  and  C_14
REMARK                            x       y       z     vdW  Elec       q    Type
REMARK                         _______ _______ _______ _____ _____    ______ ____
ROOT
ATOM      1  C   UNL     1       4.873   4.234  18.189  0.00  0.00    +0.000 A 
ATOM      2  C   UNL     1       4.514   5.086  19.264  0.00  0.00    +0.000 A 
ATOM      3  N   UNL     1       4.227   4.089  20.201  0.00  0.00    +0.000 N 
ATOM      4  C   UNL     1       3.274   3.333  19.537  0.00  0.00    +0.000 A 
ATOM      5  C   UNL     1       2.130   2.737  20.065  0.00  0.00    +0.000 A 
ATOM      6  C   UNL     1       1.067   2.633  19.181  0.00  0.00    +0.000 A 
ATOM      7  C   UNL     1       1.233   2.960  17.830  0.00  0.00    +0.000 A 
ATOM      8  C   UNL     1       2.498   3.312  17.283  0.00  0.00    +0.000 A 
ATOM      9  C   UNL     1       3.577   3.539  18.172  0.00  0.00    +0.000 A 
ATOM     10  H   UNL     1       4.948   3.604  20.716  0.00  0.00    +0.000 HD
ENDROOT
BRANCH   2  11
ATOM     11  C   UNL     1       3.649   6.297  19.012  0.00  0.00    +0.000 A 
ATOM     12  C   UNL     1       3.764   7.017  17.779  0.00  0.00    +0.000 A 
ATOM     13  C   UNL     1       2.943   8.072  17.448  0.00  0.00    +0.000 A 
ATOM     14  C   UNL     1       1.965   8.453  18.348  0.00  0.00    +0.000 A 
ATOM     15  C   UNL     1       1.838   7.784  19.571  0.00  0.00    +0.000 A 
ATOM     16  C   UNL     1       2.674   6.710  19.908  0.00  0.00    +0.000 A 
ENDBRANCH   2  11
BRANCH   1  17
ATOM     17  C   UNL     1       6.000   4.828  17.353  0.00  0.00    +0.000 C 
BRANCH  17  18
ATOM     18  C   UNL     1       6.019   4.679  15.857  0.00  0.00    +0.000 A 
ATOM     19  C   UNL     1       5.076   4.003  15.089  0.00  0.00    +0.000 A 
ATOM     20  C   UNL     1       5.318   3.778  13.727  0.00  0.00    +0.000 A 
ATOM     21  C   UNL     1       6.498   4.223  13.120  0.00  0.00    +0.000 A 
ATOM     22  C   UNL     1       7.449   4.902  13.868  0.00  0.00    +0.000 A 
ATOM     23  C   UNL     1       7.208   5.129  15.218  0.00  0.00    +0.000 A 
ENDBRANCH  17  18
BRANCH  17  24
ATOM     24  C   UNL     1       7.380   4.615  18.021  0.00  0.00    +0.000 C 
BRANCH  24  26
ATOM     25  O   UNL     1       7.754   5.458  20.172  0.00  0.00    +0.000 OA
ATOM     26  N   UNL     1       7.727   5.718  18.962  0.00  0.00    +0.000 N 
ATOM     27  O   UNL     1       7.865   6.845  18.467  0.00  0.00    +0.000 OA
ENDBRANCH  24  26
ENDBRANCH  17  24
ENDBRANCH   1  17
TORSDOF 5
ENDMDL
MODEL 9
REMARK VINA RESULT:      -8.2      1.486      1.911
REMARK  Name = 
REMARK  5 active torsions:
REMARK  status: ('A' for Active; 'I' for Inactive)
REMARK    1  A    between atoms: N_2  and  C_4
REMARK    2  A    between atoms: C_4  and  C_5
REMARK    3  A    between atoms: C_5  and  C_6
REMARK    4  A    between atoms: C_5  and  C_12
REMARK    5  A    between atoms: C_13  and  C_14
REMARK                            x       y       z     vdW  Elec       q    Type
REMARK                         _______ _______ _______ _____ _____    ______ ____
ROOT
ATOM      1  C   UNL     1       4.414   5.114  18.167  0.00  0.00    +0.000 A 
ATOM      2  C   UNL     1       4.095   5.938  19.275  0.00  0.00    +0.000 A 
ATOM      3  N   UNL     1       4.012   4.928  20.237  0.00  0.00    +0.000 N 
ATOM      4  C   UNL     1       3.068   4.077  19.684  0.00  0.00    +0.000 A 
ATOM      5  C   UNL     1       2.053   3.379  20.334  0.00  0.00    +0.000 A 
ATOM      6  C   UNL     1       0.914   3.165  19.573  0.00  0.00    +0.000 A 
ATOM      7  C   UNL     1       0.898   3.491  18.213  0.00  0.00    +0.000 A 
ATOM      8  C   UNL     1       2.054   3.959  17.529  0.00  0.00    +0.000 A 
ATOM      9  C   UNL     1       3.197   4.297  18.294  0.00  0.00    +0.000 A 
ATOM     10  H   UNL     1       4.828   4.520  20.669  0.00  0.00    +0.000 HD
ENDROOT
BRANCH   2  11
ATOM     11  C   UNL     1       3.095   7.057  19.121  0.00  0.00    +0.000 A 
ATOM     12  C   UNL     1       2.999   7.770  17.881  0.00  0.00    +0.000 A 
ATOM     13  C   UNL     1       2.048   8.737  17.644  0.00  0.00    +0.000 A 
ATOM     14  C   UNL     1       1.146   9.034  18.649  0.00  0.00    +0.000 A 
ATOM     15  C   UNL     1       1.223   8.372  19.880  0.00  0.00    +0.000 A 
ATOM     16  C   UNL     1       2.192   7.387  20.121  0.00  0.00    +0.000 A 
ENDBRANCH   2  11
BRANCH   1  17
ATOM     17  C   UNL     1       5.379   5.805  17.211  0.00  0.00    +0.000 C 
BRANCH  17  18
ATOM     18  C   UNL     1       5.659   5.240  15.847  0.00  0.00    +0.000 A 
ATOM     19  C   UNL     1       4.948   4.220  15.221  0.00  0.00    +0.000 A 
ATOM     20  C   UNL     1       5.434   3.661  14.031  0.00  0.00    +0.000 A 
ATOM     21  C   UNL     1       6.629   4.110  13.456  0.00  0.00    +0.000 A 
ATOM     22  C   UNL     1       7.350   5.127  14.063  0.00  0.00    +0.000 A 
ATOM     23  C   UNL     1       6.866   5.687  15.241  0.00  0.00    +0.000 A 
ENDBRANCH  17  18
BRANCH  17  24
ATOM     24  C   UNL     1       6.640   6.320  17.946  0.00  0.00    +0.000 C 
BRANCH  24  26
ATOM     25  O   UNL     1       7.800   4.297  18.146  0.00  0.00    +0.000 OA
ATOM     26  N   UNL     1       7.299   5.252  18.753  0.00  0.00    +0.000 N 
ATOM     27  O   UNL     1       7.205   5.351  19.984  0.00  0.00    +0.000 OA
ENDBRANCH  24  26
ENDBRANCH  17  24
ENDBRANCH   1  17
TORSDOF 5
ENDMDL
