MODEL 1
REMARK VINA RESULT:      -7.0      0.000      0.000
REMARK  Name = 
REMARK  18 active torsions:
REMARK  status: ('A' for Active; 'I' for Inactive)
REMARK    1  A    between atoms: C_1  and  C_2
REMARK    2  A    between atoms: C_4  and  C_5
REMARK    3  A    between atoms: C_5  and  C_6
REMARK    4  A    between atoms: C_6  and  C_7
REMARK    5  A    between atoms: C_6  and  C_8
REMARK    6  A    between atoms: N_11  and  C_12
REMARK    7  A    between atoms: C_12  and  C_13
REMARK    8  A    between atoms: C_13  and  O_15
REMARK    9  A    between atoms: O_15  and  C_16
REMARK   10  A    between atoms: C_16  and  C_17
REMARK   11  A    between atoms: C_16  and  C_18
REMARK   12  A    between atoms: C_16  and  C_19
REMARK   13  A    between atoms: C_22  and  C_23
REMARK   14  A    between atoms: C_23  and  O_25
REMARK   15  A    between atoms: O_25  and  C_26
REMARK   16  A    between atoms: C_26  and  C_27
REMARK   17  A    between atoms: C_26  and  C_28
REMARK   18  A    between atoms: C_26  and  C_29
REMARK                            x       y       z     vdW  Elec       q    Type
REMARK                         _______ _______ _______ _____ _____    ______ ____
ROOT
ATOM      1  C   UNL     1      -0.640  10.736  22.707  0.00  0.00    +0.000 C 
ATOM      2  C   UNL     1      -0.660  10.665  21.192  0.00  0.00    +0.000 C 
ATOM      3  N   UNL     1      -1.568  11.360  20.603  0.00  0.00    +0.000 NA
ATOM      4  C   UNL     1      -1.667  11.445  19.142  0.00  0.00    +0.000 C 
ATOM      5  C   UNL     1      -0.407  12.108  18.581  0.00  0.00    +0.000 C 
ATOM      6  O   UNL     1      -0.492  13.190  17.985  0.00  0.00    +0.000 OA
ATOM      7  N   UNL     1       0.813  11.461  18.710  0.00  0.00    +0.000 N 
ATOM      8  C   UNL     1       1.000  10.205  19.349  0.00  0.00    +0.000 A 
ATOM      9  C   UNL     1       1.884   9.301  18.747  0.00  0.00    +0.000 A 
ATOM     10  C   UNL     1       2.154   8.035  19.283  0.00  0.00    +0.000 A 
ATOM     11  C   UNL     1       1.547   7.662  20.475  0.00  0.00    +0.000 A 
ATOM     12  C   UNL     1       0.646   8.547  21.091  0.00  0.00    +0.000 A 
ATOM     13  C   UNL     1       0.350   9.807  20.524  0.00  0.00    +0.000 A 
ENDROOT
BRANCH  10  14
ATOM     14  C   UNL     1       3.074   7.191  18.484  0.00  0.00    +0.000 C 
ATOM     15  O   UNL     1       3.423   7.538  17.369  0.00  0.00    +0.000 OA
BRANCH  14  16
ATOM     16  O   UNL     1       3.450   6.056  19.122  0.00  0.00    +0.000 OA
BRANCH  16  17
ATOM     17  C   UNL     1       3.154   4.790  18.471  0.00  0.00    +0.000 C 
ATOM     18  C   UNL     1       4.216   4.445  17.413  0.00  0.00    +0.000 C 
ATOM     19  C   UNL     1       3.210   3.721  19.572  0.00  0.00    +0.000 C 
ATOM     20  C   UNL     1       1.734   4.784  17.881  0.00  0.00    +0.000 C 
ENDBRANCH  16  17
ENDBRANCH  14  16
ENDBRANCH  10  14
BRANCH   4  21
ATOM     21  C   UNL     1      -2.084  10.134  18.461  0.00  0.00    +0.000 C 
BRANCH  21  22
ATOM     22  C   UNL     1      -3.255  10.283  17.470  0.00  0.00    +0.000 C 
ATOM     23  C   UNL     1      -4.046  11.571  17.701  0.00  0.00    +0.000 C 
ATOM     24  C   UNL     1      -2.725  10.249  16.033  0.00  0.00    +0.000 C 
ENDBRANCH  21  22
ENDBRANCH   4  21
BRANCH   7  25
ATOM     25  C   UNL     1       2.000  12.156  18.180  0.00  0.00    +0.000 C 
BRANCH  25  26
ATOM     26  C   UNL     1       2.616  13.270  19.020  0.00  0.00    +0.000 C 
ATOM     27  O   UNL     1       2.644  13.218  20.245  0.00  0.00    +0.000 OA
BRANCH  26  28
ATOM     28  O   UNL     1       3.161  14.257  18.262  0.00  0.00    +0.000 OA
BRANCH  28  29
ATOM     29  C   UNL     1       2.891  15.653  18.553  0.00  0.00    +0.000 C 
ATOM     30  C   UNL     1       3.804  16.202  19.657  0.00  0.00    +0.000 C 
ATOM     31  C   UNL     1       3.216  16.394  17.246  0.00  0.00    +0.000 C 
ATOM     32  C   UNL     1       1.409  15.862  18.883  0.00  0.00    +0.000 C 
ENDBRANCH  28  29
ENDBRANCH  26  28
ENDBRANCH  25  26
ENDBRANCH   7  25
TORSDOF 9
ENDMDL
MODEL 2
REMARK VINA RESULT:      -6.8      0.987      1.450
REMARK  Name = 
REMARK  18 active torsions:
REMARK  status: ('A' for Active; 'I' for Inactive)
REMARK    1  A    between atoms: C_1  and  C_2
REMARK    2  A    between atoms: C_4  and  C_5
REMARK    3  A    between atoms: C_5  and  C_6
REMARK    4  A    between atoms: C_6  and  C_7
REMARK    5  A    between atoms: C_6  and  C_8
REMARK    6  A    between atoms: N_11  and  C_12
REMARK    7  A    between atoms: C_12  and  C_13
REMARK    8  A    between atoms: C_13  and  O_15
REMARK    9  A    between atoms: O_15  and  C_16
REMARK   10  A    between atoms: C_16  and  C_17
REMARK   11  A    between atoms: C_16  and  C_18
REMARK   12  A    between atoms: C_16  and  C_19
REMARK   13  A    between atoms: C_22  and  C_23
REMARK   14  A    between atoms: C_23  and  O_25
REMARK   15  A    between atoms: O_25  and  C_26
REMARK   16  A    between atoms: C_26  and  C_27
REMARK   17  A    between atoms: C_26  and  C_28
REMARK   18  A    between atoms: C_26  and  C_29
REMARK                            x       y       z     vdW  Elec       q    Type
REMARK                         _______ _______ _______ _____ _____    ______ ____
ROOT
ATOM      1  C   UNL     1      -0.816  10.978  22.771  0.00  0.00    +0.000 C 
ATOM      2  C   UNL     1      -0.799  10.813  21.264  0.00  0.00    +0.000 C 
ATOM      3  N   UNL     1      -1.667  11.497  20.607  0.00  0.00    +0.000 NA
ATOM      4  C   UNL     1      -1.726  11.493  19.142  0.00  0.00    +0.000 C 
ATOM      5  C   UNL     1      -0.431  12.080  18.576  0.00  0.00    +0.000 C 
ATOM      6  O   UNL     1      -0.464  13.124  17.912  0.00  0.00    +0.000 OA
ATOM      7  N   UNL     1       0.764  11.405  18.780  0.00  0.00    +0.000 N 
ATOM      8  C   UNL     1       0.893  10.187  19.500  0.00  0.00    +0.000 A 
ATOM      9  C   UNL     1       1.762   9.219  18.980  0.00  0.00    +0.000 A 
ATOM     10  C   UNL     1       1.976   7.982  19.601  0.00  0.00    +0.000 A 
ATOM     11  C   UNL     1       1.327   7.704  20.796  0.00  0.00    +0.000 A 
ATOM     12  C   UNL     1       0.439   8.653  21.331  0.00  0.00    +0.000 A 
ATOM     13  C   UNL     1       0.200   9.883  20.678  0.00  0.00    +0.000 A 
ENDROOT
BRANCH  10  14
ATOM     14  C   UNL     1       2.889   7.061  18.883  0.00  0.00    +0.000 C 
ATOM     15  O   UNL     1       3.289   7.332  17.763  0.00  0.00    +0.000 OA
BRANCH  14  16
ATOM     16  O   UNL     1       3.198   5.950  19.593  0.00  0.00    +0.000 OA
BRANCH  16  17
ATOM     17  C   UNL     1       2.734   4.672  19.078  0.00  0.00    +0.000 C 
ATOM     18  C   UNL     1       3.914   3.773  18.672  0.00  0.00    +0.000 C 
ATOM     19  C   UNL     1       1.989   3.990  20.236  0.00  0.00    +0.000 C 
ATOM     20  C   UNL     1       1.735   4.864  17.925  0.00  0.00    +0.000 C 
ENDBRANCH  16  17
ENDBRANCH  14  16
ENDBRANCH  10  14
BRANCH   4  21
ATOM     21  C   UNL     1      -2.168  10.156  18.531  0.00  0.00    +0.000 C 
BRANCH  21  22
ATOM     22  C   UNL     1      -3.271  10.284  17.463  0.00  0.00    +0.000 C 
ATOM     23  C   UNL     1      -4.059  11.586  17.602  0.00  0.00    +0.000 C 
ATOM     24  C   UNL     1      -2.650  10.197  16.065  0.00  0.00    +0.000 C 
ENDBRANCH  21  22
ENDBRANCH   4  21
BRANCH   7  25
ATOM     25  C   UNL     1       1.987  12.028  18.240  0.00  0.00    +0.000 C 
BRANCH  25  26
ATOM     26  C   UNL     1       2.646  13.136  19.053  0.00  0.00    +0.000 C 
ATOM     27  O   UNL     1       3.472  13.898  18.562  0.00  0.00    +0.000 OA
BRANCH  26  28
ATOM     28  O   UNL     1       2.173  13.204  20.326  0.00  0.00    +0.000 OA
BRANCH  28  29
ATOM     29  C   UNL     1       1.664  14.451  20.864  0.00  0.00    +0.000 C 
ATOM     30  C   UNL     1       0.462  14.234  21.793  0.00  0.00    +0.000 C 
ATOM     31  C   UNL     1       2.823  15.017  21.700  0.00  0.00    +0.000 C 
ATOM     32  C   UNL     1       1.341  15.438  19.737  0.00  0.00    +0.000 C 
ENDBRANCH  28  29
ENDBRANCH  26  28
ENDBRANCH  25  26
ENDBRANCH   7  25
TORSDOF 9
ENDMDL
MODEL 3
REMARK VINA RESULT:      -6.8      0.703      1.280
REMARK  Name = 
REMARK  18 active torsions:
REMARK  status: ('A' for Active; 'I' for Inactive)
REMARK    1  A    between atoms: C_1  and  C_2
REMARK    2  A    between atoms: C_4  and  C_5
REMARK    3  A    between atoms: C_5  and  C_6
REMARK    4  A    between atoms: C_6  and  C_7
REMARK    5  A    between atoms: C_6  and  C_8
REMARK    6  A    between atoms: N_11  and  C_12
REMARK    7  A    between atoms: C_12  and  C_13
REMARK    8  A    between atoms: C_13  and  O_15
REMARK    9  A    between atoms: O_15  and  C_16
REMARK   10  A    between atoms: C_16  and  C_17
REMARK   11  A    between atoms: C_16  and  C_18
REMARK   12  A    between atoms: C_16  and  C_19
REMARK   13  A    between atoms: C_22  and  C_23
REMARK   14  A    between atoms: C_23  and  O_25
REMARK   15  A    between atoms: O_25  and  C_26
REMARK   16  A    between atoms: C_26  and  C_27
REMARK   17  A    between atoms: C_26  and  C_28
REMARK   18  A    between atoms: C_26  and  C_29
REMARK                            x       y       z     vdW  Elec       q    Type
REMARK                         _______ _______ _______ _____ _____    ______ ____
ROOT
ATOM      1  C   UNL     1      -0.652  10.999  22.763  0.00  0.00    +0.000 C 
ATOM      2  C   UNL     1      -0.709  11.047  21.248  0.00  0.00    +0.000 C 
ATOM      3  N   UNL     1      -1.588  11.834  20.737  0.00  0.00    +0.000 NA
ATOM      4  C   UNL     1      -1.714  12.038  19.290  0.00  0.00    +0.000 C 
ATOM      5  C   UNL     1      -0.431  12.671  18.748  0.00  0.00    +0.000 C 
ATOM      6  O   UNL     1      -0.466  13.798  18.238  0.00  0.00    +0.000 OA
ATOM      7  N   UNL     1       0.753  11.949  18.796  0.00  0.00    +0.000 N 
ATOM      8  C   UNL     1       0.881  10.639  19.332  0.00  0.00    +0.000 A 
ATOM      9  C   UNL     1       1.698   9.735  18.640  0.00  0.00    +0.000 A 
ATOM     10  C   UNL     1       1.906   8.419  19.071  0.00  0.00    +0.000 A 
ATOM     11  C   UNL     1       1.305   7.990  20.247  0.00  0.00    +0.000 A 
ATOM     12  C   UNL     1       0.470   8.873  20.952  0.00  0.00    +0.000 A 
ATOM     13  C   UNL     1       0.235  10.187  20.490  0.00  0.00    +0.000 A 
ENDROOT
BRANCH  10  14
ATOM     14  C   UNL     1       2.759   7.589  18.187  0.00  0.00    +0.000 C 
ATOM     15  O   UNL     1       3.820   8.019  17.767  0.00  0.00    +0.000 OA
BRANCH  14  16
ATOM     16  O   UNL     1       2.234   6.368  17.928  0.00  0.00    +0.000 OA
BRANCH  16  17
ATOM     17  C   UNL     1       3.051   5.205  18.235  0.00  0.00    +0.000 C 
ATOM     18  C   UNL     1       3.717   5.340  19.614  0.00  0.00    +0.000 C 
ATOM     19  C   UNL     1       2.090   4.008  18.282  0.00  0.00    +0.000 C 
ATOM     20  C   UNL     1       4.081   4.938  17.124  0.00  0.00    +0.000 C 
ENDBRANCH  16  17
ENDBRANCH  14  16
ENDBRANCH  10  14
BRANCH   4  21
ATOM     21  C   UNL     1      -2.221  10.808  18.522  0.00  0.00    +0.000 C 
BRANCH  21  22
ATOM     22  C   UNL     1      -2.799  11.129  17.130  0.00  0.00    +0.000 C 
ATOM     23  C   UNL     1      -2.647   9.959  16.159  0.00  0.00    +0.000 C 
ATOM     24  C   UNL     1      -4.277  11.511  17.259  0.00  0.00    +0.000 C 
ENDBRANCH  21  22
ENDBRANCH   4  21
BRANCH   7  25
ATOM     25  C   UNL     1       1.966  12.615  18.288  0.00  0.00    +0.000 C 
BRANCH  25  26
ATOM     26  C   UNL     1       2.794  13.441  19.267  0.00  0.00    +0.000 C 
ATOM     27  O   UNL     1       2.711  13.284  20.480  0.00  0.00    +0.000 OA
BRANCH  26  28
ATOM     28  O   UNL     1       3.646  14.295  18.641  0.00  0.00    +0.000 OA
BRANCH  28  29
ATOM     29  C   UNL     1       3.329  15.706  18.521  0.00  0.00    +0.000 C 
ATOM     30  C   UNL     1       2.065  16.085  19.305  0.00  0.00    +0.000 C 
ATOM     31  C   UNL     1       4.526  16.430  19.159  0.00  0.00    +0.000 C 
ATOM     32  C   UNL     1       3.230  16.119  17.049  0.00  0.00    +0.000 C 
ENDBRANCH  28  29
ENDBRANCH  26  28
ENDBRANCH  25  26
ENDBRANCH   7  25
TORSDOF 9
ENDMDL
MODEL 4
REMARK VINA RESULT:      -6.7      0.607      1.302
REMARK  Name = 
REMARK  18 active torsions:
REMARK  status: ('A' for Active; 'I' for Inactive)
REMARK    1  A    between atoms: C_1  and  C_2
REMARK    2  A    between atoms: C_4  and  C_5
REMARK    3  A    between atoms: C_5  and  C_6
REMARK    4  A    between atoms: C_6  and  C_7
REMARK    5  A    between atoms: C_6  and  C_8
REMARK    6  A    between atoms: N_11  and  C_12
REMARK    7  A    between atoms: C_12  and  C_13
REMARK    8  A    between atoms: C_13  and  O_15
REMARK    9  A    between atoms: O_15  and  C_16
REMARK   10  A    between atoms: C_16  and  C_17
REMARK   11  A    between atoms: C_16  and  C_18
REMARK   12  A    between atoms: C_16  and  C_19
REMARK   13  A    between atoms: C_22  and  C_23
REMARK   14  A    between atoms: C_23  and  O_25
REMARK   15  A    between atoms: O_25  and  C_26
REMARK   16  A    between atoms: C_26  and  C_27
REMARK   17  A    between atoms: C_26  and  C_28
REMARK   18  A    between atoms: C_26  and  C_29
REMARK                            x       y       z     vdW  Elec       q    Type
REMARK                         _______ _______ _______ _____ _____    ______ ____
ROOT
ATOM      1  C   UNL     1      -1.007  11.163  22.825  0.00  0.00    +0.000 C 
ATOM      2  C   UNL     1      -0.943  10.954  21.324  0.00  0.00    +0.000 C 
ATOM      3  N   UNL     1      -1.773  11.639  20.619  0.00  0.00    +0.000 NA
ATOM      4  C   UNL     1      -1.782  11.595  19.153  0.00  0.00    +0.000 C 
ATOM      5  C   UNL     1      -0.455  12.135  18.616  0.00  0.00    +0.000 C 
ATOM      6  O   UNL     1      -0.440  13.159  17.922  0.00  0.00    +0.000 OA
ATOM      7  N   UNL     1       0.715  11.437  18.879  0.00  0.00    +0.000 N 
ATOM      8  C   UNL     1       0.790  10.238  19.637  0.00  0.00    +0.000 A 
ATOM      9  C   UNL     1       1.652   9.234  19.174  0.00  0.00    +0.000 A 
ATOM     10  C   UNL     1       1.815   8.011  19.836  0.00  0.00    +0.000 A 
ATOM     11  C   UNL     1       1.119   7.783  21.017  0.00  0.00    +0.000 A 
ATOM     12  C   UNL     1       0.238   8.768  21.494  0.00  0.00    +0.000 A 
ATOM     13  C   UNL     1       0.050   9.984  20.799  0.00  0.00    +0.000 A 
ENDROOT
BRANCH  10  14
ATOM     14  C   UNL     1       2.728   7.048  19.176  0.00  0.00    +0.000 C 
ATOM     15  O   UNL     1       3.209   7.299  18.084  0.00  0.00    +0.000 OA
BRANCH  14  16
ATOM     16  O   UNL     1       2.941   5.926  19.903  0.00  0.00    +0.000 OA
BRANCH  16  17
ATOM     17  C   UNL     1       2.377   4.683  19.403  0.00  0.00    +0.000 C 
ATOM     18  C   UNL     1       1.162   4.247  20.238  0.00  0.00    +0.000 C 
ATOM     19  C   UNL     1       1.895   4.977  17.975  0.00  0.00    +0.000 C 
ATOM     20  C   UNL     1       3.444   3.578  19.322  0.00  0.00    +0.000 C 
ENDBRANCH  16  17
ENDBRANCH  14  16
ENDBRANCH  10  14
BRANCH   4  21
ATOM     21  C   UNL     1      -2.236  10.251  18.566  0.00  0.00    +0.000 C 
BRANCH  21  22
ATOM     22  C   UNL     1      -3.309  10.374  17.466  0.00  0.00    +0.000 C 
ATOM     23  C   UNL     1      -4.221  11.581  17.682  0.00  0.00    +0.000 C 
ATOM     24  C   UNL     1      -2.634  10.469  16.094  0.00  0.00    +0.000 C 
ENDBRANCH  21  22
ENDBRANCH   4  21
BRANCH   7  25
ATOM     25  C   UNL     1       1.970  12.015  18.364  0.00  0.00    +0.000 C 
BRANCH  25  26
ATOM     26  C   UNL     1       2.591  13.180  19.128  0.00  0.00    +0.000 C 
ATOM     27  O   UNL     1       2.641  13.199  20.353  0.00  0.00    +0.000 OA
BRANCH  26  28
ATOM     28  O   UNL     1       3.113  14.127  18.304  0.00  0.00    +0.000 OA
BRANCH  28  29
ATOM     29  C   UNL     1       2.864  15.536  18.540  0.00  0.00    +0.000 C 
ATOM     30  C   UNL     1       1.453  15.792  19.087  0.00  0.00    +0.000 C 
ATOM     31  C   UNL     1       3.880  15.937  19.621  0.00  0.00    +0.000 C 
ATOM     32  C   UNL     1       3.141  16.356  17.275  0.00  0.00    +0.000 C 
ENDBRANCH  28  29
ENDBRANCH  26  28
ENDBRANCH  25  26
ENDBRANCH   7  25
TORSDOF 9
ENDMDL
MODEL 5
REMARK VINA RESULT:      -6.6      0.972      1.622
REMARK  Name = 
REMARK  18 active torsions:
REMARK  status: ('A' for Active; 'I' for Inactive)
REMARK    1  A    between atoms: C_1  and  C_2
REMARK    2  A    between atoms: C_4  and  C_5
REMARK    3  A    between atoms: C_5  and  C_6
REMARK    4  A    between atoms: C_6  and  C_7
REMARK    5  A    between atoms: C_6  and  C_8
REMARK    6  A    between atoms: N_11  and  C_12
REMARK    7  A    between atoms: C_12  and  C_13
REMARK    8  A    between atoms: C_13  and  O_15
REMARK    9  A    between atoms: O_15  and  C_16
REMARK   10  A    between atoms: C_16  and  C_17
REMARK   11  A    between atoms: C_16  and  C_18
REMARK   12  A    between atoms: C_16  and  C_19
REMARK   13  A    between atoms: C_22  and  C_23
REMARK   14  A    between atoms: C_23  and  O_25
REMARK   15  A    between atoms: O_25  and  C_26
REMARK   16  A    between atoms: C_26  and  C_27
REMARK   17  A    between atoms: C_26  and  C_28
REMARK   18  A    between atoms: C_26  and  C_29
REMARK                            x       y       z     vdW  Elec       q    Type
REMARK                         _______ _______ _______ _____ _____    ______ ____
ROOT
ATOM      1  C   UNL     1      -0.852  11.153  22.697  0.00  0.00    +0.000 C 
ATOM      2  C   UNL     1      -0.833  11.085  21.182  0.00  0.00    +0.000 C 
ATOM      3  N   UNL     1      -1.670  11.844  20.568  0.00  0.00    +0.000 NA
ATOM      4  C   UNL     1      -1.720  11.936  19.105  0.00  0.00    +0.000 C 
ATOM      5  C   UNL     1      -0.399  12.506  18.583  0.00  0.00    +0.000 C 
ATOM      6  O   UNL     1      -0.387  13.591  17.987  0.00  0.00    +0.000 OA
ATOM      7  N   UNL     1       0.766  11.772  18.746  0.00  0.00    +0.000 N 
ATOM      8  C   UNL     1       0.843  10.505  19.387  0.00  0.00    +0.000 A 
ATOM      9  C   UNL     1       1.675   9.539  18.808  0.00  0.00    +0.000 A 
ATOM     10  C   UNL     1       1.836   8.257  19.349  0.00  0.00    +0.000 A 
ATOM     11  C   UNL     1       1.169   7.929  20.522  0.00  0.00    +0.000 A 
ATOM     12  C   UNL     1       0.318   8.877  21.114  0.00  0.00    +0.000 A 
ATOM     13  C   UNL     1       0.131  10.155  20.541  0.00  0.00    +0.000 A 
ENDROOT
BRANCH  10  14
ATOM     14  C   UNL     1       2.716   7.348  18.576  0.00  0.00    +0.000 C 
ATOM     15  O   UNL     1       3.025   7.613  17.427  0.00  0.00    +0.000 OA
BRANCH  14  16
ATOM     16  O   UNL     1       3.103   6.254  19.274  0.00  0.00    +0.000 OA
BRANCH  16  17
ATOM     17  C   UNL     1       3.010   4.964  18.610  0.00  0.00    +0.000 C 
ATOM     18  C   UNL     1       4.231   4.711  17.710  0.00  0.00    +0.000 C 
ATOM     19  C   UNL     1       3.011   3.908  19.725  0.00  0.00    +0.000 C 
ATOM     20  C   UNL     1       1.688   4.829  17.836  0.00  0.00    +0.000 C 
ENDBRANCH  16  17
ENDBRANCH  14  16
ENDBRANCH  10  14
BRANCH   4  21
ATOM     21  C   UNL     1      -2.211  10.660  18.409  0.00  0.00    +0.000 C 
BRANCH  21  22
ATOM     22  C   UNL     1      -3.004  10.914  17.112  0.00  0.00    +0.000 C 
ATOM     23  C   UNL     1      -2.668   9.898  16.022  0.00  0.00    +0.000 C 
ATOM     24  C   UNL     1      -4.507  10.882  17.409  0.00  0.00    +0.000 C 
ENDBRANCH  21  22
ENDBRANCH   4  21
BRANCH   7  25
ATOM     25  C   UNL     1       2.016  12.378  18.251  0.00  0.00    +0.000 C 
BRANCH  25  26
ATOM     26  C   UNL     1       2.710  13.412  19.132  0.00  0.00    +0.000 C 
ATOM     27  O   UNL     1       3.618  14.119  18.710  0.00  0.00    +0.000 OA
BRANCH  26  28
ATOM     28  O   UNL     1       2.170  13.485  20.378  0.00  0.00    +0.000 OA
BRANCH  28  29
ATOM     29  C   UNL     1       1.810  14.765  20.958  0.00  0.00    +0.000 C 
ATOM     30  C   UNL     1       1.413  15.794  19.891  0.00  0.00    +0.000 C 
ATOM     31  C   UNL     1       0.576  14.468  21.824  0.00  0.00    +0.000 C 
ATOM     32  C   UNL     1       2.933  15.287  21.862  0.00  0.00    +0.000 C 
ENDBRANCH  28  29
ENDBRANCH  26  28
ENDBRANCH  25  26
ENDBRANCH   7  25
TORSDOF 9
ENDMDL
MODEL 6
REMARK VINA RESULT:      -6.6      0.793      1.407
REMARK  Name = 
REMARK  18 active torsions:
REMARK  status: ('A' for Active; 'I' for Inactive)
REMARK    1  A    between atoms: C_1  and  C_2
REMARK    2  A    between atoms: C_4  and  C_5
REMARK    3  A    between atoms: C_5  and  C_6
REMARK    4  A    between atoms: C_6  and  C_7
REMARK    5  A    between atoms: C_6  and  C_8
REMARK    6  A    between atoms: N_11  and  C_12
REMARK    7  A    between atoms: C_12  and  C_13
REMARK    8  A    between atoms: C_13  and  O_15
REMARK    9  A    between atoms: O_15  and  C_16
REMARK   10  A    between atoms: C_16  and  C_17
REMARK   11  A    between atoms: C_16  and  C_18
REMARK   12  A    between atoms: C_16  and  C_19
REMARK   13  A    between atoms: C_22  and  C_23
REMARK   14  A    between atoms: C_23  and  O_25
REMARK   15  A    between atoms: O_25  and  C_26
REMARK   16  A    between atoms: C_26  and  C_27
REMARK   17  A    between atoms: C_26  and  C_28
REMARK   18  A    between atoms: C_26  and  C_29
REMARK                            x       y       z     vdW  Elec       q    Type
REMARK                         _______ _______ _______ _____ _____    ______ ____
ROOT
ATOM      1  C   UNL     1      -1.256  11.644  22.883  0.00  0.00    +0.000 C 
ATOM      2  C   UNL     1      -1.158  11.481  21.378  0.00  0.00    +0.000 C 
ATOM      3  N   UNL     1      -1.933  12.227  20.673  0.00  0.00    +0.000 NA
ATOM      4  C   UNL     1      -1.901  12.230  19.207  0.00  0.00    +0.000 C 
ATOM      5  C   UNL     1      -0.535  12.724  18.726  0.00  0.00    +0.000 C 
ATOM      6  O   UNL     1      -0.453  13.768  18.067  0.00  0.00    +0.000 OA
ATOM      7  N   UNL     1       0.594  11.964  18.998  0.00  0.00    +0.000 N 
ATOM      8  C   UNL     1       0.591  10.739  19.718  0.00  0.00    +0.000 A 
ATOM      9  C   UNL     1       1.419   9.712  19.246  0.00  0.00    +0.000 A 
ATOM     10  C   UNL     1       1.506   8.462  19.872  0.00  0.00    +0.000 A 
ATOM     11  C   UNL     1       0.765   8.229  21.023  0.00  0.00    +0.000 A 
ATOM     12  C   UNL     1      -0.084   9.238  21.508  0.00  0.00    +0.000 A 
ATOM     13  C   UNL     1      -0.194  10.483  20.849  0.00  0.00    +0.000 A 
ENDROOT
BRANCH  10  14
ATOM     14  C   UNL     1       2.393   7.479  19.206  0.00  0.00    +0.000 C 
ATOM     15  O   UNL     1       2.814   7.686  18.080  0.00  0.00    +0.000 OA
BRANCH  14  16
ATOM     16  O   UNL     1       2.656   6.391  19.968  0.00  0.00    +0.000 OA
BRANCH  16  17
ATOM     17  C   UNL     1       2.723   5.101  19.299  0.00  0.00    +0.000 C 
ATOM     18  C   UNL     1       1.843   5.081  18.038  0.00  0.00    +0.000 C 
ATOM     19  C   UNL     1       4.185   4.920  18.866  0.00  0.00    +0.000 C 
ATOM     20  C   UNL     1       2.372   3.954  20.262  0.00  0.00    +0.000 C 
ENDBRANCH  16  17
ENDBRANCH  14  16
ENDBRANCH  10  14
BRANCH   4  21
ATOM     21  C   UNL     1      -2.399  10.928  18.562  0.00  0.00    +0.000 C 
BRANCH  21  22
ATOM     22  C   UNL     1      -2.800  11.071  17.081  0.00  0.00    +0.000 C 
ATOM     23  C   UNL     1      -2.504   9.805  16.278  0.00  0.00    +0.000 C 
ATOM     24  C   UNL     1      -4.289  11.416  16.979  0.00  0.00    +0.000 C 
ENDBRANCH  21  22
ENDBRANCH   4  21
BRANCH   7  25
ATOM     25  C   UNL     1       1.889  12.499  18.539  0.00  0.00    +0.000 C 
BRANCH  25  26
ATOM     26  C   UNL     1       2.646  13.442  19.467  0.00  0.00    +0.000 C 
ATOM     27  O   UNL     1       2.582  13.341  20.688  0.00  0.00    +0.000 OA
BRANCH  26  28
ATOM     28  O   UNL     1       3.416  14.335  18.791  0.00  0.00    +0.000 OA
BRANCH  28  29
ATOM     29  C   UNL     1       3.086  15.748  18.786  0.00  0.00    +0.000 C 
ATOM     30  C   UNL     1       1.689  16.019  19.358  0.00  0.00    +0.000 C 
ATOM     31  C   UNL     1       4.122  16.394  19.719  0.00  0.00    +0.000 C 
ATOM     32  C   UNL     1       3.250  16.339  17.382  0.00  0.00    +0.000 C 
ENDBRANCH  28  29
ENDBRANCH  26  28
ENDBRANCH  25  26
ENDBRANCH   7  25
TORSDOF 9
ENDMDL
MODEL 7
REMARK VINA RESULT:      -6.6      0.591      1.191
REMARK  Name = 
REMARK  18 active torsions:
REMARK  status: ('A' for Active; 'I' for Inactive)
REMARK    1  A    between atoms: C_1  and  C_2
REMARK    2  A    between atoms: C_4  and  C_5
REMARK    3  A    between atoms: C_5  and  C_6
REMARK    4  A    between atoms: C_6  and  C_7
REMARK    5  A    between atoms: C_6  and  C_8
REMARK    6  A    between atoms: N_11  and  C_12
REMARK    7  A    between atoms: C_12  and  C_13
REMARK    8  A    between atoms: C_13  and  O_15
REMARK    9  A    between atoms: O_15  and  C_16
REMARK   10  A    between atoms: C_16  and  C_17
REMARK   11  A    between atoms: C_16  and  C_18
REMARK   12  A    between atoms: C_16  and  C_19
REMARK   13  A    between atoms: C_22  and  C_23
REMARK   14  A    between atoms: C_23  and  O_25
REMARK   15  A    between atoms: O_25  and  C_26
REMARK   16  A    between atoms: C_26  and  C_27
REMARK   17  A    between atoms: C_26  and  C_28
REMARK   18  A    between atoms: C_26  and  C_29
REMARK                            x       y       z     vdW  Elec       q    Type
REMARK                         _______ _______ _______ _____ _____    ______ ____
ROOT
ATOM      1  C   UNL     1      -0.698  10.800  22.781  0.00  0.00    +0.000 C 
ATOM      2  C   UNL     1      -0.702  10.809  21.264  0.00  0.00    +0.000 C 
ATOM      3  N   UNL     1      -1.582  11.561  20.702  0.00  0.00    +0.000 NA
ATOM      4  C   UNL     1      -1.662  11.724  19.247  0.00  0.00    +0.000 C 
ATOM      5  C   UNL     1      -0.376  12.376  18.734  0.00  0.00    +0.000 C 
ATOM      6  O   UNL     1      -0.420  13.489  18.194  0.00  0.00    +0.000 OA
ATOM      7  N   UNL     1       0.823  11.685  18.841  0.00  0.00    +0.000 N 
ATOM      8  C   UNL     1       0.964  10.393  19.416  0.00  0.00    +0.000 A 
ATOM      9  C   UNL     1       1.826   9.493  18.776  0.00  0.00    +0.000 A 
ATOM     10  C   UNL     1       2.051   8.194  19.248  0.00  0.00    +0.000 A 
ATOM     11  C   UNL     1       1.419   7.779  20.414  0.00  0.00    +0.000 A 
ATOM     12  C   UNL     1       0.539   8.659  21.066  0.00  0.00    +0.000 A 
ATOM     13  C   UNL     1       0.288   9.955  20.562  0.00  0.00    +0.000 A 
ENDROOT
BRANCH  10  14
ATOM     14  C   UNL     1       2.954   7.363  18.417  0.00  0.00    +0.000 C 
ATOM     15  O   UNL     1       3.106   7.608  17.232  0.00  0.00    +0.000 OA
BRANCH  14  16
ATOM     16  O   UNL     1       3.549   6.361  19.107  0.00  0.00    +0.000 OA
BRANCH  16  17
ATOM     17  C   UNL     1       3.119   5.002  18.824  0.00  0.00    +0.000 C 
ATOM     18  C   UNL     1       1.930   4.985  17.848  0.00  0.00    +0.000 C 
ATOM     19  C   UNL     1       4.308   4.311  18.141  0.00  0.00    +0.000 C 
ATOM     20  C   UNL     1       2.808   4.233  20.119  0.00  0.00    +0.000 C 
ENDBRANCH  16  17
ENDBRANCH  14  16
ENDBRANCH  10  14
BRANCH   4  21
ATOM     21  C   UNL     1      -2.111  10.464  18.495  0.00  0.00    +0.000 C 
BRANCH  21  22
ATOM     22  C   UNL     1      -2.945  10.748  17.230  0.00  0.00    +0.000 C 
ATOM     23  C   UNL     1      -2.639   9.762  16.103  0.00  0.00    +0.000 C 
ATOM     24  C   UNL     1      -4.437  10.701  17.573  0.00  0.00    +0.000 C 
ENDBRANCH  21  22
ENDBRANCH   4  21
BRANCH   7  25
ATOM     25  C   UNL     1       2.037  12.369  18.359  0.00  0.00    +0.000 C 
BRANCH  25  26
ATOM     26  C   UNL     1       2.538  13.578  19.141  0.00  0.00    +0.000 C 
ATOM     27  O   UNL     1       2.998  13.473  20.273  0.00  0.00    +0.000 OA
BRANCH  26  28
ATOM     28  O   UNL     1       2.469  14.731  18.425  0.00  0.00    +0.000 OA
BRANCH  28  29
ATOM     29  C   UNL     1       3.614  15.615  18.326  0.00  0.00    +0.000 C 
ATOM     30  C   UNL     1       4.873  14.881  17.846  0.00  0.00    +0.000 C 
ATOM     31  C   UNL     1       3.220  16.646  17.256  0.00  0.00    +0.000 C 
ATOM     32  C   UNL     1       3.852  16.346  19.652  0.00  0.00    +0.000 C 
ENDBRANCH  28  29
ENDBRANCH  26  28
ENDBRANCH  25  26
ENDBRANCH   7  25
TORSDOF 9
ENDMDL
MODEL 8
REMARK VINA RESULT:      -6.5      1.006      1.768
REMARK  Name = 
REMARK  18 active torsions:
REMARK  status: ('A' for Active; 'I' for Inactive)
REMARK    1  A    between atoms: C_1  and  C_2
REMARK    2  A    between atoms: C_4  and  C_5
REMARK    3  A    between atoms: C_5  and  C_6
REMARK    4  A    between atoms: C_6  and  C_7
REMARK    5  A    between atoms: C_6  and  C_8
REMARK    6  A    between atoms: N_11  and  C_12
REMARK    7  A    between atoms: C_12  and  C_13
REMARK    8  A    between atoms: C_13  and  O_15
REMARK    9  A    between atoms: O_15  and  C_16
REMARK   10  A    between atoms: C_16  and  C_17
REMARK   11  A    between atoms: C_16  and  C_18
REMARK   12  A    between atoms: C_16  and  C_19
REMARK   13  A    between atoms: C_22  and  C_23
REMARK   14  A    between atoms: C_23  and  O_25
REMARK   15  A    between atoms: O_25  and  C_26
REMARK   16  A    between atoms: C_26  and  C_27
REMARK   17  A    between atoms: C_26  and  C_28
REMARK   18  A    between atoms: C_26  and  C_29
REMARK                            x       y       z     vdW  Elec       q    Type
REMARK                         _______ _______ _______ _____ _____    ______ ____
ROOT
ATOM      1  C   UNL     1      -0.713  10.891  22.753  0.00  0.00    +0.000 C 
ATOM      2  C   UNL     1      -0.723  10.894  21.236  0.00  0.00    +0.000 C 
ATOM      3  N   UNL     1      -1.597  11.650  20.674  0.00  0.00    +0.000 NA
ATOM      4  C   UNL     1      -1.680  11.809  19.219  0.00  0.00    +0.000 C 
ATOM      5  C   UNL     1      -0.391  12.448  18.699  0.00  0.00    +0.000 C 
ATOM      6  O   UNL     1      -0.428  13.559  18.155  0.00  0.00    +0.000 OA
ATOM      7  N   UNL     1       0.802  11.748  18.806  0.00  0.00    +0.000 N 
ATOM      8  C   UNL     1       0.935  10.457  19.385  0.00  0.00    +0.000 A 
ATOM      9  C   UNL     1       1.788   9.548  18.746  0.00  0.00    +0.000 A 
ATOM     10  C   UNL     1       2.004   8.249  19.223  0.00  0.00    +0.000 A 
ATOM     11  C   UNL     1       1.372   7.844  20.392  0.00  0.00    +0.000 A 
ATOM     12  C   UNL     1       0.501   8.733  21.043  0.00  0.00    +0.000 A 
ATOM     13  C   UNL     1       0.259  10.029  20.534  0.00  0.00    +0.000 A 
ENDROOT
BRANCH  10  14
ATOM     14  C   UNL     1       2.898   7.408  18.392  0.00  0.00    +0.000 C 
ATOM     15  O   UNL     1       3.126   7.705  17.231  0.00  0.00    +0.000 OA
BRANCH  14  16
ATOM     16  O   UNL     1       3.394   6.335  19.054  0.00  0.00    +0.000 OA
BRANCH  16  17
ATOM     17  C   UNL     1       3.103   5.018  18.513  0.00  0.00    +0.000 C 
ATOM     18  C   UNL     1       1.705   4.974  17.874  0.00  0.00    +0.000 C 
ATOM     19  C   UNL     1       4.141   4.771  17.408  0.00  0.00    +0.000 C 
ATOM     20  C   UNL     1       3.282   3.924  19.579  0.00  0.00    +0.000 C 
ENDBRANCH  16  17
ENDBRANCH  14  16
ENDBRANCH  10  14
BRANCH   4  21
ATOM     21  C   UNL     1      -2.142  10.549  18.472  0.00  0.00    +0.000 C 
BRANCH  21  22
ATOM     22  C   UNL     1      -2.808  10.831  17.111  0.00  0.00    +0.000 C 
ATOM     23  C   UNL     1      -2.716   9.635  16.165  0.00  0.00    +0.000 C 
ATOM     24  C   UNL     1      -4.276  11.216  17.323  0.00  0.00    +0.000 C 
ENDBRANCH  21  22
ENDBRANCH   4  21
BRANCH   7  25
ATOM     25  C   UNL     1       2.020  12.420  18.317  0.00  0.00    +0.000 C 
BRANCH  25  26
ATOM     26  C   UNL     1       2.733  13.387  19.257  0.00  0.00    +0.000 C 
ATOM     27  O   UNL     1       3.651  14.104  18.876  0.00  0.00    +0.000 OA
BRANCH  26  28
ATOM     28  O   UNL     1       2.198  13.391  20.507  0.00  0.00    +0.000 OA
BRANCH  28  29
ATOM     29  C   UNL     1       1.676  14.614  21.088  0.00  0.00    +0.000 C 
ATOM     30  C   UNL     1       0.424  14.362  21.939  0.00  0.00    +0.000 C 
ATOM     31  C   UNL     1       2.796  15.115  22.013  0.00  0.00    +0.000 C 
ATOM     32  C   UNL     1       1.424  15.666  20.003  0.00  0.00    +0.000 C 
ENDBRANCH  28  29
ENDBRANCH  26  28
ENDBRANCH  25  26
ENDBRANCH   7  25
TORSDOF 9
ENDMDL
MODEL 9
REMARK VINA RESULT:      -6.5      0.637      1.190
REMARK  Name = 
REMARK  18 active torsions:
REMARK  status: ('A' for Active; 'I' for Inactive)
REMARK    1  A    between atoms: C_1  and  C_2
REMARK    2  A    between atoms: C_4  and  C_5
REMARK    3  A    between atoms: C_5  and  C_6
REMARK    4  A    between atoms: C_6  and  C_7
REMARK    5  A    between atoms: C_6  and  C_8
REMARK    6  A    between atoms: N_11  and  C_12
REMARK    7  A    between atoms: C_12  and  C_13
REMARK    8  A    between atoms: C_13  and  O_15
REMARK    9  A    between atoms: O_15  and  C_16
REMARK   10  A    between atoms: C_16  and  C_17
REMARK   11  A    between atoms: C_16  and  C_18
REMARK   12  A    between atoms: C_16  and  C_19
REMARK   13  A    between atoms: C_22  and  C_23
REMARK   14  A    between atoms: C_23  and  O_25
REMARK   15  A    between atoms: O_25  and  C_26
REMARK   16  A    between atoms: C_26  and  C_27
REMARK   17  A    between atoms: C_26  and  C_28
REMARK   18  A    between atoms: C_26  and  C_29
REMARK                            x       y       z     vdW  Elec       q    Type
REMARK                         _______ _______ _______ _____ _____    ______ ____
ROOT
ATOM      1  C   UNL     1      -0.919  11.223  22.879  0.00  0.00    +0.000 C 
ATOM      2  C   UNL     1      -0.915  11.209  21.363  0.00  0.00    +0.000 C 
ATOM      3  N   UNL     1      -1.759  11.988  20.784  0.00  0.00    +0.000 NA
ATOM      4  C   UNL     1      -1.824  12.132  19.326  0.00  0.00    +0.000 C 
ATOM      5  C   UNL     1      -0.509  12.722  18.811  0.00  0.00    +0.000 C 
ATOM      6  O   UNL     1      -0.504  13.827  18.254  0.00  0.00    +0.000 OA
ATOM      7  N   UNL     1       0.659  11.983  18.937  0.00  0.00    +0.000 N 
ATOM      8  C   UNL     1       0.742  10.695  19.531  0.00  0.00    +0.000 A 
ATOM      9  C   UNL     1       1.570   9.750  18.911  0.00  0.00    +0.000 A 
ATOM     10  C   UNL     1       1.737   8.450  19.404  0.00  0.00    +0.000 A 
ATOM     11  C   UNL     1       1.082   8.080  20.572  0.00  0.00    +0.000 A 
ATOM     12  C   UNL     1       0.235   9.006  21.205  0.00  0.00    +0.000 A 
ATOM     13  C   UNL     1       0.042  10.303  20.680  0.00  0.00    +0.000 A 
ENDROOT
BRANCH  10  14
ATOM     14  C   UNL     1       2.609   7.570  18.591  0.00  0.00    +0.000 C 
ATOM     15  O   UNL     1       2.965   7.910  17.475  0.00  0.00    +0.000 OA
BRANCH  14  16
ATOM     16  O   UNL     1       2.935   6.413  19.215  0.00  0.00    +0.000 OA
BRANCH  16  17
ATOM     17  C   UNL     1       3.099   5.227  18.390  0.00  0.00    +0.000 C 
ATOM     18  C   UNL     1       4.124   5.465  17.268  0.00  0.00    +0.000 C 
ATOM     19  C   UNL     1       3.650   4.134  19.317  0.00  0.00    +0.000 C 
ATOM     20  C   UNL     1       1.749   4.739  17.838  0.00  0.00    +0.000 C 
ENDBRANCH  16  17
ENDBRANCH  14  16
ENDBRANCH  10  14
BRANCH   4  21
ATOM     21  C   UNL     1      -2.322  10.881  18.590  0.00  0.00    +0.000 C 
BRANCH  21  22
ATOM     22  C   UNL     1      -2.720  11.129  17.122  0.00  0.00    +0.000 C 
ATOM     23  C   UNL     1      -2.373   9.944  16.222  0.00  0.00    +0.000 C 
ATOM     24  C   UNL     1      -4.220  11.428  17.036  0.00  0.00    +0.000 C 
ENDBRANCH  21  22
ENDBRANCH   4  21
BRANCH   7  25
ATOM     25  C   UNL     1       1.903  12.608  18.451  0.00  0.00    +0.000 C 
BRANCH  25  26
ATOM     26  C   UNL     1       2.706  13.461  19.428  0.00  0.00    +0.000 C 
ATOM     27  O   UNL     1       2.582  13.347  20.642  0.00  0.00    +0.000 OA
BRANCH  26  28
ATOM     28  O   UNL     1       3.585  14.286  18.801  0.00  0.00    +0.000 OA
BRANCH  28  29
ATOM     29  C   UNL     1       3.372  15.721  18.778  0.00  0.00    +0.000 C 
ATOM     30  C   UNL     1       3.347  16.280  17.350  0.00  0.00    +0.000 C 
ATOM     31  C   UNL     1       1.978  15.917  19.397  0.00  0.00    +0.000 C 
ATOM     32  C   UNL     1       4.405  16.438  19.653  0.00  0.00    +0.000 C 
ENDBRANCH  28  29
ENDBRANCH  26  28
ENDBRANCH  25  26
ENDBRANCH   7  25
TORSDOF 9
ENDMDL
