MODEL 1
REMARK VINA RESULT:      -8.5      0.000      0.000
REMARK  Name = 
REMARK  8 active torsions:
REMARK  status: ('A' for Active; 'I' for Inactive)
REMARK    1  A    between atoms: C_1  and  C_2
REMARK    2  A    between atoms: C_7  and  N_8
REMARK    3  A    between atoms: N_8  and  C_9
REMARK    4  A    between atoms: C_12  and  C_13
REMARK    5  A    between atoms: C_16  and  C_17
REMARK    6  A    between atoms: N_19  and  C_20
REMARK    7  A    between atoms: C_20  and  C_21
REMARK    8  A    between atoms: C_21  and  O_22
REMARK                            x       y       z     vdW  Elec       q    Type
REMARK                         _______ _______ _______ _____ _____    ______ ____
ROOT
ATOM      1  C   UNL     1       4.119   4.694  18.328  0.00  0.00    +0.000 A 
ATOM      2  N   UNL     1       4.255   6.014  18.077  0.00  0.00    +0.000 NA
ATOM      3  N   UNL     1       3.449   6.935  18.678  0.00  0.00    +0.000 NA
ATOM      4  C   UNL     1       2.450   6.554  19.504  0.00  0.00    +0.000 A 
ATOM      5  C   UNL     1       2.250   5.184  19.799  0.00  0.00    +0.000 A 
ATOM      6  C   UNL     1       1.165   4.674  20.564  0.00  0.00    +0.000 A 
ATOM      7  C   UNL     1       1.066   3.326  20.908  0.00  0.00    +0.000 A 
ATOM      8  C   UNL     1       2.026   2.432  20.467  0.00  0.00    +0.000 A 
ATOM      9  C   UNL     1       3.046   2.877  19.629  0.00  0.00    +0.000 A 
ATOM     10  C   UNL     1       3.167   4.240  19.261  0.00  0.00    +0.000 A 
ENDROOT
BRANCH   4  11
ATOM     11  C   UNL     1       1.679   7.706  20.046  0.00  0.00    +0.000 A 
ATOM     12  C   UNL     1       1.400   8.826  19.233  0.00  0.00    +0.000 A 
ATOM     13  C   UNL     1       0.719   9.951  19.723  0.00  0.00    +0.000 A 
ATOM     14  C   UNL     1       0.284   9.978  21.049  0.00  0.00    +0.000 A 
ATOM     15  C   UNL     1       0.532   8.876  21.870  0.00  0.00    +0.000 A 
ATOM     16  C   UNL     1       1.250   7.777  21.383  0.00  0.00    +0.000 A 
BRANCH  14  17
ATOM     17  C   UNL     1      -0.430  11.142  21.641  0.00  0.00    +0.000 C 
ATOM     18  O   UNL     1      -0.286  11.414  22.828  0.00  0.00    +0.000 OA
ATOM     19  N   UNL     1      -1.192  11.900  20.780  0.00  0.00    +0.000 N 
ATOM     20  H   UNL     1      -1.162  11.729  19.785  0.00  0.00    +0.000 HD
BRANCH  19  21
ATOM     21  C   UNL     1      -1.886  13.096  21.237  0.00  0.00    +0.000 C 
BRANCH  21  22
ATOM     22  C   UNL     1      -3.353  12.824  21.573  0.00  0.00    +0.000 C 
BRANCH  22  23
ATOM     23  O   UNL     1      -3.530  12.767  22.988  0.00  0.00    +0.000 OA
ATOM     24  H   UNL     1      -2.636  12.721  23.369  0.00  0.00    +0.000 HD
ENDBRANCH  22  23
ENDBRANCH  21  22
ENDBRANCH  19  21
ENDBRANCH  14  17
ENDBRANCH   4  11
BRANCH   1  25
ATOM     25  N   UNL     1       4.893   3.772  17.572  0.00  0.00    +0.000 N 
ATOM     26  H   UNL     1       5.370   3.131  18.193  0.00  0.00    +0.000 HD
BRANCH  25  33
ATOM     27  C   UNL     1       7.723   4.744  17.738  0.00  0.00    +0.000 C 
ATOM     28  C   UNL     1       6.960   4.576  16.451  0.00  0.00    +0.000 A 
ATOM     29  C   UNL     1       7.613   4.927  15.252  0.00  0.00    +0.000 A 
ATOM     30  C   UNL     1       6.992   4.764  14.015  0.00  0.00    +0.000 A 
ATOM     31  C   UNL     1       5.715   4.228  13.956  0.00  0.00    +0.000 A 
ATOM     32  C   UNL     1       5.052   3.902  15.137  0.00  0.00    +0.000 A 
ATOM     33  C   UNL     1       5.627   4.123  16.407  0.00  0.00    +0.000 A 
ENDBRANCH  25  33
ENDBRANCH   1  25
TORSDOF 7
ENDMDL
MODEL 2
REMARK VINA RESULT:      -8.5      0.720      1.130
REMARK  Name = 
REMARK  8 active torsions:
REMARK  status: ('A' for Active; 'I' for Inactive)
REMARK    1  A    between atoms: C_1  and  C_2
REMARK    2  A    between atoms: C_7  and  N_8
REMARK    3  A    between atoms: N_8  and  C_9
REMARK    4  A    between atoms: C_12  and  C_13
REMARK    5  A    between atoms: C_16  and  C_17
REMARK    6  A    between atoms: N_19  and  C_20
REMARK    7  A    between atoms: C_20  and  C_21
REMARK    8  A    between atoms: C_21  and  O_22
REMARK                            x       y       z     vdW  Elec       q    Type
REMARK                         _______ _______ _______ _____ _____    ______ ____
ROOT
ATOM      1  C   UNL     1       4.025   4.689  18.009  0.00  0.00    +0.000 A 
ATOM      2  N   UNL     1       4.178   6.000  17.727  0.00  0.00    +0.000 NA
ATOM      3  N   UNL     1       3.463   6.954  18.388  0.00  0.00    +0.000 NA
ATOM      4  C   UNL     1       2.535   6.616  19.310  0.00  0.00    +0.000 A 
ATOM      5  C   UNL     1       2.322   5.257  19.644  0.00  0.00    +0.000 A 
ATOM      6  C   UNL     1       1.299   4.792  20.516  0.00  0.00    +0.000 A 
ATOM      7  C   UNL     1       1.190   3.452  20.888  0.00  0.00    +0.000 A 
ATOM      8  C   UNL     1       2.075   2.522  20.370  0.00  0.00    +0.000 A 
ATOM      9  C   UNL     1       3.024   2.923  19.433  0.00  0.00    +0.000 A 
ATOM     10  C   UNL     1       3.152   4.277  19.035  0.00  0.00    +0.000 A 
ENDROOT
BRANCH   4  11
ATOM     11  C   UNL     1       1.856   7.799  19.907  0.00  0.00    +0.000 A 
ATOM     12  C   UNL     1       1.621   7.863  21.298  0.00  0.00    +0.000 A 
ATOM     13  C   UNL     1       0.941   8.938  21.891  0.00  0.00    +0.000 A 
ATOM     14  C   UNL     1       0.486   9.993  21.099  0.00  0.00    +0.000 A 
ATOM     15  C   UNL     1       0.721   9.963  19.723  0.00  0.00    +0.000 A 
ATOM     16  C   UNL     1       1.362   8.866  19.137  0.00  0.00    +0.000 A 
BRANCH  14  17
ATOM     17  C   UNL     1      -0.255  11.158  21.655  0.00  0.00    +0.000 C 
ATOM     18  O   UNL     1      -0.389  11.281  22.867  0.00  0.00    +0.000 OA
ATOM     19  N   UNL     1      -0.714  12.087  20.747  0.00  0.00    +0.000 N 
ATOM     20  H   UNL     1      -0.451  12.023  19.774  0.00  0.00    +0.000 HD
BRANCH  19  21
ATOM     21  C   UNL     1      -1.399  13.296  21.182  0.00  0.00    +0.000 C 
BRANCH  21  22
ATOM     22  C   UNL     1      -2.891  13.270  20.846  0.00  0.00    +0.000 C 
BRANCH  22  23
ATOM     23  O   UNL     1      -3.087  12.787  19.518  0.00  0.00    +0.000 OA
ATOM     24  H   UNL     1      -4.011  12.990  19.291  0.00  0.00    +0.000 HD
ENDBRANCH  22  23
ENDBRANCH  21  22
ENDBRANCH  19  21
ENDBRANCH  14  17
ENDBRANCH   4  11
BRANCH   1  25
ATOM     25  N   UNL     1       4.694   3.733  17.197  0.00  0.00    +0.000 N 
ATOM     26  H   UNL     1       5.049   2.980  17.772  0.00  0.00    +0.000 HD
BRANCH  25  33
ATOM     27  C   UNL     1       7.519   4.657  17.575  0.00  0.00    +0.000 C 
ATOM     28  C   UNL     1       6.852   4.503  16.235  0.00  0.00    +0.000 A 
ATOM     29  C   UNL     1       7.598   4.845  15.088  0.00  0.00    +0.000 A 
ATOM     30  C   UNL     1       7.067   4.693  13.808  0.00  0.00    +0.000 A 
ATOM     31  C   UNL     1       5.790   4.178  13.653  0.00  0.00    +0.000 A 
ATOM     32  C   UNL     1       5.035   3.863  14.781  0.00  0.00    +0.000 A 
ATOM     33  C   UNL     1       5.518   4.073  16.090  0.00  0.00    +0.000 A 
ENDBRANCH  25  33
ENDBRANCH   1  25
TORSDOF 7
ENDMDL
MODEL 3
REMARK VINA RESULT:      -8.4      0.875      1.235
REMARK  Name = 
REMARK  8 active torsions:
REMARK  status: ('A' for Active; 'I' for Inactive)
REMARK    1  A    between atoms: C_1  and  C_2
REMARK    2  A    between atoms: C_7  and  N_8
REMARK    3  A    between atoms: N_8  and  C_9
REMARK    4  A    between atoms: C_12  and  C_13
REMARK    5  A    between atoms: C_16  and  C_17
REMARK    6  A    between atoms: N_19  and  C_20
REMARK    7  A    between atoms: C_20  and  C_21
REMARK    8  A    between atoms: C_21  and  O_22
REMARK                            x       y       z     vdW  Elec       q    Type
REMARK                         _______ _______ _______ _____ _____    ______ ____
ROOT
ATOM      1  C   UNL     1       4.078   4.814  18.129  0.00  0.00    +0.000 A 
ATOM      2  N   UNL     1       4.199   6.110  17.771  0.00  0.00    +0.000 NA
ATOM      3  N   UNL     1       3.440   7.079  18.357  0.00  0.00    +0.000 NA
ATOM      4  C   UNL     1       2.500   6.768  19.276  0.00  0.00    +0.000 A 
ATOM      5  C   UNL     1       2.319   5.426  19.687  0.00  0.00    +0.000 A 
ATOM      6  C   UNL     1       1.289   4.983  20.562  0.00  0.00    +0.000 A 
ATOM      7  C   UNL     1       1.211   3.665  21.013  0.00  0.00    +0.000 A 
ATOM      8  C   UNL     1       2.136   2.733  20.573  0.00  0.00    +0.000 A 
ATOM      9  C   UNL     1       3.095   3.106  19.634  0.00  0.00    +0.000 A 
ATOM     10  C   UNL     1       3.193   4.437  19.158  0.00  0.00    +0.000 A 
ENDROOT
BRANCH   4  11
ATOM     11  C   UNL     1       1.772   7.963  19.784  0.00  0.00    +0.000 A 
ATOM     12  C   UNL     1       1.467   8.085  21.158  0.00  0.00    +0.000 A 
ATOM     13  C   UNL     1       0.740   9.172  21.666  0.00  0.00    +0.000 A 
ATOM     14  C   UNL     1       0.306  10.182  20.805  0.00  0.00    +0.000 A 
ATOM     15  C   UNL     1       0.608  10.094  19.445  0.00  0.00    +0.000 A 
ATOM     16  C   UNL     1       1.297   8.984  18.942  0.00  0.00    +0.000 A 
BRANCH  14  17
ATOM     17  C   UNL     1      -0.482  11.355  21.270  0.00  0.00    +0.000 C 
ATOM     18  O   UNL     1      -0.894  12.180  20.462  0.00  0.00    +0.000 OA
ATOM     19  N   UNL     1      -0.757  11.418  22.619  0.00  0.00    +0.000 N 
ATOM     20  H   UNL     1      -0.528  10.642  23.223  0.00  0.00    +0.000 HD
BRANCH  19  21
ATOM     21  C   UNL     1      -1.571  12.489  23.176  0.00  0.00    +0.000 C 
BRANCH  21  22
ATOM     22  C   UNL     1      -3.008  12.044  23.449  0.00  0.00    +0.000 C 
BRANCH  22  23
ATOM     23  O   UNL     1      -3.637  12.948  24.357  0.00  0.00    +0.000 OA
ATOM     24  H   UNL     1      -3.311  12.710  25.242  0.00  0.00    +0.000 HD
ENDBRANCH  22  23
ENDBRANCH  21  22
ENDBRANCH  19  21
ENDBRANCH  14  17
ENDBRANCH   4  11
BRANCH   1  25
ATOM     25  N   UNL     1       4.795   3.832  17.392  0.00  0.00    +0.000 N 
ATOM     26  H   UNL     1       5.207   3.158  18.025  0.00  0.00    +0.000 HD
BRANCH  25  33
ATOM     27  C   UNL     1       7.655   4.696  17.623  0.00  0.00    +0.000 C 
ATOM     28  C   UNL     1       6.926   4.522  16.318  0.00  0.00    +0.000 A 
ATOM     29  C   UNL     1       7.630   4.814  15.131  0.00  0.00    +0.000 A 
ATOM     30  C   UNL     1       7.041   4.640  13.880  0.00  0.00    +0.000 A 
ATOM     31  C   UNL     1       5.747   4.152  13.793  0.00  0.00    +0.000 A 
ATOM     32  C   UNL     1       5.034   3.887  14.961  0.00  0.00    +0.000 A 
ATOM     33  C   UNL     1       5.579   4.121  16.243  0.00  0.00    +0.000 A 
ENDBRANCH  25  33
ENDBRANCH   1  25
TORSDOF 7
ENDMDL
MODEL 4
REMARK VINA RESULT:      -8.4      0.815      1.404
REMARK  Name = 
REMARK  8 active torsions:
REMARK  status: ('A' for Active; 'I' for Inactive)
REMARK    1  A    between atoms: C_1  and  C_2
REMARK    2  A    between atoms: C_7  and  N_8
REMARK    3  A    between atoms: N_8  and  C_9
REMARK    4  A    between atoms: C_12  and  C_13
REMARK    5  A    between atoms: C_16  and  C_17
REMARK    6  A    between atoms: N_19  and  C_20
REMARK    7  A    between atoms: C_20  and  C_21
REMARK    8  A    between atoms: C_21  and  O_22
REMARK                            x       y       z     vdW  Elec       q    Type
REMARK                         _______ _______ _______ _____ _____    ______ ____
ROOT
ATOM      1  C   UNL     1       3.957   4.750  17.964  0.00  0.00    +0.000 A 
ATOM      2  N   UNL     1       4.094   6.060  17.668  0.00  0.00    +0.000 NA
ATOM      3  N   UNL     1       3.400   7.016  18.350  0.00  0.00    +0.000 NA
ATOM      4  C   UNL     1       2.507   6.680  19.307  0.00  0.00    +0.000 A 
ATOM      5  C   UNL     1       2.311   5.322  19.656  0.00  0.00    +0.000 A 
ATOM      6  C   UNL     1       1.323   4.859  20.568  0.00  0.00    +0.000 A 
ATOM      7  C   UNL     1       1.233   3.521  20.952  0.00  0.00    +0.000 A 
ATOM      8  C   UNL     1       2.102   2.591  20.408  0.00  0.00    +0.000 A 
ATOM      9  C   UNL     1       3.015   2.990  19.434  0.00  0.00    +0.000 A 
ATOM     10  C   UNL     1       3.123   4.342  19.024  0.00  0.00    +0.000 A 
ENDROOT
BRANCH   4  11
ATOM     11  C   UNL     1       1.845   7.864  19.920  0.00  0.00    +0.000 A 
ATOM     12  C   UNL     1       1.570   7.892  21.305  0.00  0.00    +0.000 A 
ATOM     13  C   UNL     1       0.904   8.969  21.911  0.00  0.00    +0.000 A 
ATOM     14  C   UNL     1       0.504  10.061  21.139  0.00  0.00    +0.000 A 
ATOM     15  C   UNL     1       0.780  10.066  19.770  0.00  0.00    +0.000 A 
ATOM     16  C   UNL     1       1.406   8.968  19.169  0.00  0.00    +0.000 A 
BRANCH  14  17
ATOM     17  C   UNL     1      -0.219  11.230  21.709  0.00  0.00    +0.000 C 
ATOM     18  O   UNL     1      -0.395  11.315  22.919  0.00  0.00    +0.000 OA
ATOM     19  N   UNL     1      -0.614  12.205  20.819  0.00  0.00    +0.000 N 
ATOM     20  H   UNL     1      -0.316  12.166  19.855  0.00  0.00    +0.000 HD
BRANCH  19  21
ATOM     21  C   UNL     1      -1.275  13.420  21.273  0.00  0.00    +0.000 C 
BRANCH  21  22
ATOM     22  C   UNL     1      -0.294  14.579  21.462  0.00  0.00    +0.000 C 
BRANCH  22  23
ATOM     23  O   UNL     1       0.723  14.213  22.393  0.00  0.00    +0.000 OA
ATOM     24  H   UNL     1       1.459  14.832  22.244  0.00  0.00    +0.000 HD
ENDBRANCH  22  23
ENDBRANCH  21  22
ENDBRANCH  19  21
ENDBRANCH  14  17
ENDBRANCH   4  11
BRANCH   1  25
ATOM     25  N   UNL     1       4.599   3.791  17.135  0.00  0.00    +0.000 N 
ATOM     26  H   UNL     1       4.900   3.001  17.690  0.00  0.00    +0.000 HD
BRANCH  25  33
ATOM     27  C   UNL     1       7.430   4.644  17.630  0.00  0.00    +0.000 C 
ATOM     28  C   UNL     1       6.808   4.526  16.264  0.00  0.00    +0.000 A 
ATOM     29  C   UNL     1       7.603   4.867  15.151  0.00  0.00    +0.000 A 
ATOM     30  C   UNL     1       7.117   4.748  13.850  0.00  0.00    +0.000 A 
ATOM     31  C   UNL     1       5.835   4.265  13.640  0.00  0.00    +0.000 A 
ATOM     32  C   UNL     1       5.032   3.950  14.735  0.00  0.00    +0.000 A 
ATOM     33  C   UNL     1       5.472   4.129  16.065  0.00  0.00    +0.000 A 
ENDBRANCH  25  33
ENDBRANCH   1  25
TORSDOF 7
ENDMDL
MODEL 5
REMARK VINA RESULT:      -8.3      3.553     10.005
REMARK  Name = 
REMARK  8 active torsions:
REMARK  status: ('A' for Active; 'I' for Inactive)
REMARK    1  A    between atoms: C_1  and  C_2
REMARK    2  A    between atoms: C_7  and  N_8
REMARK    3  A    between atoms: N_8  and  C_9
REMARK    4  A    between atoms: C_12  and  C_13
REMARK    5  A    between atoms: C_16  and  C_17
REMARK    6  A    between atoms: N_19  and  C_20
REMARK    7  A    between atoms: C_20  and  C_21
REMARK    8  A    between atoms: C_21  and  O_22
REMARK                            x       y       z     vdW  Elec       q    Type
REMARK                         _______ _______ _______ _____ _____    ______ ____
ROOT
ATOM      1  C   UNL     1      -0.950  11.175  19.555  0.00  0.00    +0.000 A 
ATOM      2  N   UNL     1      -0.468  10.810  18.348  0.00  0.00    +0.000 NA
ATOM      3  N   UNL     1       0.471   9.828  18.228  0.00  0.00    +0.000 NA
ATOM      4  C   UNL     1       0.992   9.226  19.319  0.00  0.00    +0.000 A 
ATOM      5  C   UNL     1       0.535   9.571  20.613  0.00  0.00    +0.000 A 
ATOM      6  C   UNL     1       1.093   9.076  21.824  0.00  0.00    +0.000 A 
ATOM      7  C   UNL     1       0.544   9.372  23.072  0.00  0.00    +0.000 A 
ATOM      8  C   UNL     1      -0.558  10.205  23.158  0.00  0.00    +0.000 A 
ATOM      9  C   UNL     1      -1.068  10.791  22.002  0.00  0.00    +0.000 A 
ATOM     10  C   UNL     1      -0.527  10.510  20.723  0.00  0.00    +0.000 A 
ENDROOT
BRANCH   4  11
ATOM     11  C   UNL     1       2.010   8.194  18.978  0.00  0.00    +0.000 A 
ATOM     12  C   UNL     1       2.801   8.327  17.815  0.00  0.00    +0.000 A 
ATOM     13  C   UNL     1       3.735   7.352  17.434  0.00  0.00    +0.000 A 
ATOM     14  C   UNL     1       3.912   6.213  18.222  0.00  0.00    +0.000 A 
ATOM     15  C   UNL     1       3.155   6.066  19.386  0.00  0.00    +0.000 A 
ATOM     16  C   UNL     1       2.196   7.023  19.734  0.00  0.00    +0.000 A 
BRANCH  14  17
ATOM     17  C   UNL     1       4.873   5.131  17.873  0.00  0.00    +0.000 C 
ATOM     18  O   UNL     1       4.796   4.039  18.422  0.00  0.00    +0.000 OA
ATOM     19  N   UNL     1       5.787   5.415  16.881  0.00  0.00    +0.000 N 
ATOM     20  H   UNL     1       5.717   6.273  16.353  0.00  0.00    +0.000 HD
BRANCH  19  21
ATOM     21  C   UNL     1       6.734   4.412  16.417  0.00  0.00    +0.000 C 
BRANCH  21  22
ATOM     22  C   UNL     1       6.889   4.420  14.895  0.00  0.00    +0.000 C 
BRANCH  22  23
ATOM     23  O   UNL     1       7.706   5.518  14.492  0.00  0.00    +0.000 OA
ATOM     24  H   UNL     1       7.311   5.860  13.671  0.00  0.00    +0.000 HD
ENDBRANCH  22  23
ENDBRANCH  21  22
ENDBRANCH  19  21
ENDBRANCH  14  17
ENDBRANCH   4  11
BRANCH   1  25
ATOM     25  N   UNL     1      -1.824  12.293  19.632  0.00  0.00    +0.000 N 
ATOM     26  H   UNL     1      -1.493  12.942  20.335  0.00  0.00    +0.000 HD
BRANCH  25  33
ATOM     27  C   UNL     1      -3.623  13.470  21.720  0.00  0.00    +0.000 C 
ATOM     28  C   UNL     1      -4.111  12.749  20.491  0.00  0.00    +0.000 A 
ATOM     29  C   UNL     1      -5.503  12.594  20.331  0.00  0.00    +0.000 A 
ATOM     30  C   UNL     1      -6.037  11.975  19.203  0.00  0.00    +0.000 A 
ATOM     31  C   UNL     1      -5.189  11.519  18.206  0.00  0.00    +0.000 A 
ATOM     32  C   UNL     1      -3.811  11.643  18.367  0.00  0.00    +0.000 A 
ATOM     33  C   UNL     1      -3.238  12.201  19.531  0.00  0.00    +0.000 A 
ENDBRANCH  25  33
ENDBRANCH   1  25
TORSDOF 7
ENDMDL
MODEL 6
REMARK VINA RESULT:      -8.2      1.146      1.399
REMARK  Name = 
REMARK  8 active torsions:
REMARK  status: ('A' for Active; 'I' for Inactive)
REMARK    1  A    between atoms: C_1  and  C_2
REMARK    2  A    between atoms: C_7  and  N_8
REMARK    3  A    between atoms: N_8  and  C_9
REMARK    4  A    between atoms: C_12  and  C_13
REMARK    5  A    between atoms: C_16  and  C_17
REMARK    6  A    between atoms: N_19  and  C_20
REMARK    7  A    between atoms: C_20  and  C_21
REMARK    8  A    between atoms: C_21  and  O_22
REMARK                            x       y       z     vdW  Elec       q    Type
REMARK                         _______ _______ _______ _____ _____    ______ ____
ROOT
ATOM      1  C   UNL     1       3.963   4.716  17.966  0.00  0.00    +0.000 A 
ATOM      2  N   UNL     1       4.086   6.028  17.675  0.00  0.00    +0.000 NA
ATOM      3  N   UNL     1       3.369   6.973  18.349  0.00  0.00    +0.000 NA
ATOM      4  C   UNL     1       2.470   6.622  19.294  0.00  0.00    +0.000 A 
ATOM      5  C   UNL     1       2.289   5.261  19.639  0.00  0.00    +0.000 A 
ATOM      6  C   UNL     1       1.296   4.782  20.537  0.00  0.00    +0.000 A 
ATOM      7  C   UNL     1       1.221   3.442  20.918  0.00  0.00    +0.000 A 
ATOM      8  C   UNL     1       2.110   2.526  20.383  0.00  0.00    +0.000 A 
ATOM      9  C   UNL     1       3.029   2.939  19.422  0.00  0.00    +0.000 A 
ATOM     10  C   UNL     1       3.123   4.293  19.015  0.00  0.00    +0.000 A 
ENDROOT
BRANCH   4  11
ATOM     11  C   UNL     1       1.784   7.796  19.901  0.00  0.00    +0.000 A 
ATOM     12  C   UNL     1       1.444   8.914  19.108  0.00  0.00    +0.000 A 
ATOM     13  C   UNL     1       0.842  10.058  19.653  0.00  0.00    +0.000 A 
ATOM     14  C   UNL     1       0.549  10.107  21.017  0.00  0.00    +0.000 A 
ATOM     15  C   UNL     1       0.858   9.007  21.820  0.00  0.00    +0.000 A 
ATOM     16  C   UNL     1       1.498   7.889  21.274  0.00  0.00    +0.000 A 
BRANCH  14  17
ATOM     17  C   UNL     1      -0.075  11.291  21.667  0.00  0.00    +0.000 C 
ATOM     18  O   UNL     1      -0.884  11.141  22.576  0.00  0.00    +0.000 OA
ATOM     19  N   UNL     1       0.347  12.528  21.231  0.00  0.00    +0.000 N 
ATOM     20  H   UNL     1       1.123  12.604  20.588  0.00  0.00    +0.000 HD
BRANCH  19  21
ATOM     21  C   UNL     1      -0.150  13.755  21.837  0.00  0.00    +0.000 C 
BRANCH  21  22
ATOM     22  C   UNL     1       0.912  14.854  21.880  0.00  0.00    +0.000 C 
BRANCH  22  23
ATOM     23  O   UNL     1       0.827  15.570  23.111  0.00  0.00    +0.000 OA
ATOM     24  H   UNL     1       1.683  16.019  23.221  0.00  0.00    +0.000 HD
ENDBRANCH  22  23
ENDBRANCH  21  22
ENDBRANCH  19  21
ENDBRANCH  14  17
ENDBRANCH   4  11
BRANCH   1  25
ATOM     25  N   UNL     1       4.630   3.768  17.143  0.00  0.00    +0.000 N 
ATOM     26  H   UNL     1       4.963   2.996  17.706  0.00  0.00    +0.000 HD
BRANCH  25  33
ATOM     27  C   UNL     1       7.460   4.645  17.594  0.00  0.00    +0.000 C 
ATOM     28  C   UNL     1       6.816   4.529  16.238  0.00  0.00    +0.000 A 
ATOM     29  C   UNL     1       7.588   4.884  15.113  0.00  0.00    +0.000 A 
ATOM     30  C   UNL     1       7.080   4.767  13.821  0.00  0.00    +0.000 A 
ATOM     31  C   UNL     1       5.799   4.273  13.630  0.00  0.00    +0.000 A 
ATOM     32  C   UNL     1       5.019   3.944  14.738  0.00  0.00    +0.000 A 
ATOM     33  C   UNL     1       5.480   4.120  16.060  0.00  0.00    +0.000 A 
ENDBRANCH  25  33
ENDBRANCH   1  25
TORSDOF 7
ENDMDL
MODEL 7
REMARK VINA RESULT:      -8.2      1.808      2.700
REMARK  Name = 
REMARK  8 active torsions:
REMARK  status: ('A' for Active; 'I' for Inactive)
REMARK    1  A    between atoms: C_1  and  C_2
REMARK    2  A    between atoms: C_7  and  N_8
REMARK    3  A    between atoms: N_8  and  C_9
REMARK    4  A    between atoms: C_12  and  C_13
REMARK    5  A    between atoms: C_16  and  C_17
REMARK    6  A    between atoms: N_19  and  C_20
REMARK    7  A    between atoms: C_20  and  C_21
REMARK    8  A    between atoms: C_21  and  O_22
REMARK                            x       y       z     vdW  Elec       q    Type
REMARK                         _______ _______ _______ _____ _____    ______ ____
ROOT
ATOM      1  C   UNL     1       4.845   4.546  16.434  0.00  0.00    +0.000 A 
ATOM      2  N   UNL     1       5.123   5.866  16.479  0.00  0.00    +0.000 NA
ATOM      3  N   UNL     1       4.338   6.732  17.181  0.00  0.00    +0.000 NA
ATOM      4  C   UNL     1       3.221   6.305  17.811  0.00  0.00    +0.000 A 
ATOM      5  C   UNL     1       2.870   4.934  17.793  0.00  0.00    +0.000 A 
ATOM      6  C   UNL     1       1.664   4.404  18.329  0.00  0.00    +0.000 A 
ATOM      7  C   UNL     1       1.408   3.033  18.372  0.00  0.00    +0.000 A 
ATOM      8  C   UNL     1       2.331   2.146  17.845  0.00  0.00    +0.000 A 
ATOM      9  C   UNL     1       3.475   2.634  17.219  0.00  0.00    +0.000 A 
ATOM     10  C   UNL     1       3.756   4.022  17.158  0.00  0.00    +0.000 A 
ENDROOT
BRANCH   4  11
ATOM     11  C   UNL     1       2.496   7.403  18.507  0.00  0.00    +0.000 A 
ATOM     12  C   UNL     1       2.222   7.315  19.890  0.00  0.00    +0.000 A 
ATOM     13  C   UNL     1       1.499   8.306  20.571  0.00  0.00    +0.000 A 
ATOM     14  C   UNL     1       1.040   9.429  19.881  0.00  0.00    +0.000 A 
ATOM     15  C   UNL     1       1.312   9.550  18.517  0.00  0.00    +0.000 A 
ATOM     16  C   UNL     1       1.996   8.534  17.839  0.00  0.00    +0.000 A 
BRANCH  14  17
ATOM     17  C   UNL     1       0.254  10.512  20.534  0.00  0.00    +0.000 C 
ATOM     18  O   UNL     1       0.571  10.917  21.647  0.00  0.00    +0.000 OA
ATOM     19  N   UNL     1      -0.782  11.048  19.802  0.00  0.00    +0.000 N 
ATOM     20  H   UNL     1      -0.912  10.789  18.835  0.00  0.00    +0.000 HD
BRANCH  19  21
ATOM     21  C   UNL     1      -1.579  12.153  20.317  0.00  0.00    +0.000 C 
BRANCH  21  22
ATOM     22  C   UNL     1      -1.020  13.515  19.902  0.00  0.00    +0.000 C 
BRANCH  22  23
ATOM     23  O   UNL     1      -0.996  13.623  18.480  0.00  0.00    +0.000 OA
ATOM     24  H   UNL     1      -0.591  12.800  18.154  0.00  0.00    +0.000 HD
ENDBRANCH  22  23
ENDBRANCH  21  22
ENDBRANCH  19  21
ENDBRANCH  14  17
ENDBRANCH   4  11
BRANCH   1  25
ATOM     25  N   UNL     1       5.617   3.714  15.578  0.00  0.00    +0.000 N 
ATOM     26  H   UNL     1       6.078   2.994  16.121  0.00  0.00    +0.000 HD
BRANCH  25  33
ATOM     27  C   UNL     1       4.835   3.083  12.755  0.00  0.00    +0.000 C 
ATOM     28  C   UNL     1       6.024   3.923  13.136  0.00  0.00    +0.000 A 
ATOM     29  C   UNL     1       6.836   4.419  12.096  0.00  0.00    +0.000 A 
ATOM     30  C   UNL     1       7.933   5.237  12.361  0.00  0.00    +0.000 A 
ATOM     31  C   UNL     1       8.223   5.591  13.670  0.00  0.00    +0.000 A 
ATOM     32  C   UNL     1       7.442   5.084  14.707  0.00  0.00    +0.000 A 
ATOM     33  C   UNL     1       6.369   4.196  14.474  0.00  0.00    +0.000 A 
ENDBRANCH  25  33
ENDBRANCH   1  25
TORSDOF 7
ENDMDL
MODEL 8
REMARK VINA RESULT:      -8.2      3.284     10.539
REMARK  Name = 
REMARK  8 active torsions:
REMARK  status: ('A' for Active; 'I' for Inactive)
REMARK    1  A    between atoms: C_1  and  C_2
REMARK    2  A    between atoms: C_7  and  N_8
REMARK    3  A    between atoms: N_8  and  C_9
REMARK    4  A    between atoms: C_12  and  C_13
REMARK    5  A    between atoms: C_16  and  C_17
REMARK    6  A    between atoms: N_19  and  C_20
REMARK    7  A    between atoms: C_20  and  C_21
REMARK    8  A    between atoms: C_21  and  O_22
REMARK                            x       y       z     vdW  Elec       q    Type
REMARK                         _______ _______ _______ _____ _____    ______ ____
ROOT
ATOM      1  C   UNL     1      -1.445  12.533  20.342  0.00  0.00    +0.000 A 
ATOM      2  N   UNL     1      -0.256  12.270  20.926  0.00  0.00    +0.000 NA
ATOM      3  N   UNL     1       0.510  11.214  20.528  0.00  0.00    +0.000 NA
ATOM      4  C   UNL     1       0.079  10.361  19.572  0.00  0.00    +0.000 A 
ATOM      5  C   UNL     1      -1.163  10.578  18.929  0.00  0.00    +0.000 A 
ATOM      6  C   UNL     1      -1.753   9.683  17.993  0.00  0.00    +0.000 A 
ATOM      7  C   UNL     1      -2.932   9.988  17.314  0.00  0.00    +0.000 A 
ATOM      8  C   UNL     1      -3.586  11.180  17.574  0.00  0.00    +0.000 A 
ATOM      9  C   UNL     1      -3.094  12.034  18.559  0.00  0.00    +0.000 A 
ATOM     10  C   UNL     1      -1.901  11.745  19.266  0.00  0.00    +0.000 A 
ENDROOT
BRANCH   4  11
ATOM     11  C   UNL     1       1.052   9.270  19.292  0.00  0.00    +0.000 A 
ATOM     12  C   UNL     1       1.696   9.191  18.037  0.00  0.00    +0.000 A 
ATOM     13  C   UNL     1       2.582   8.151  17.718  0.00  0.00    +0.000 A 
ATOM     14  C   UNL     1       2.857   7.159  18.662  0.00  0.00    +0.000 A 
ATOM     15  C   UNL     1       2.247   7.223  19.916  0.00  0.00    +0.000 A 
ATOM     16  C   UNL     1       1.332   8.241  20.208  0.00  0.00    +0.000 A 
BRANCH  14  17
ATOM     17  C   UNL     1       3.773   6.018  18.389  0.00  0.00    +0.000 C 
ATOM     18  O   UNL     1       4.022   5.203  19.270  0.00  0.00    +0.000 OA
ATOM     19  N   UNL     1       4.260   5.912  17.104  0.00  0.00    +0.000 N 
ATOM     20  H   UNL     1       3.911   6.517  16.375  0.00  0.00    +0.000 HD
BRANCH  19  21
ATOM     21  C   UNL     1       5.115   4.802  16.709  0.00  0.00    +0.000 C 
BRANCH  21  22
ATOM     22  C   UNL     1       6.562   4.992  17.167  0.00  0.00    +0.000 C 
BRANCH  22  23
ATOM     23  O   UNL     1       6.831   4.168  18.300  0.00  0.00    +0.000 OA
ATOM     24  H   UNL     1       6.130   4.362  18.946  0.00  0.00    +0.000 HD
ENDBRANCH  22  23
ENDBRANCH  21  22
ENDBRANCH  19  21
ENDBRANCH  14  17
ENDBRANCH   4  11
BRANCH   1  25
ATOM     25  N   UNL     1      -2.261  13.561  20.886  0.00  0.00    +0.000 N 
ATOM     26  H   UNL     1      -1.747  14.432  20.912  0.00  0.00    +0.000 HD
BRANCH  25  33
ATOM     27  C   UNL     1      -1.423  14.089  23.715  0.00  0.00    +0.000 C 
ATOM     28  C   UNL     1      -2.794  13.615  23.312  0.00  0.00    +0.000 A 
ATOM     29  C   UNL     1      -3.732  13.378  24.338  0.00  0.00    +0.000 A 
ATOM     30  C   UNL     1      -5.035  12.977  24.048  0.00  0.00    +0.000 A 
ATOM     31  C   UNL     1      -5.428  12.826  22.727  0.00  0.00    +0.000 A 
ATOM     32  C   UNL     1      -4.500  13.033  21.708  0.00  0.00    +0.000 A 
ATOM     33  C   UNL     1      -3.155  13.369  21.973  0.00  0.00    +0.000 A 
ENDBRANCH  25  33
ENDBRANCH   1  25
TORSDOF 7
ENDMDL
MODEL 9
REMARK VINA RESULT:      -8.2      1.924      2.648
REMARK  Name = 
REMARK  8 active torsions:
REMARK  status: ('A' for Active; 'I' for Inactive)
REMARK    1  A    between atoms: C_1  and  C_2
REMARK    2  A    between atoms: C_7  and  N_8
REMARK    3  A    between atoms: N_8  and  C_9
REMARK    4  A    between atoms: C_12  and  C_13
REMARK    5  A    between atoms: C_16  and  C_17
REMARK    6  A    between atoms: N_19  and  C_20
REMARK    7  A    between atoms: C_20  and  C_21
REMARK    8  A    between atoms: C_21  and  O_22
REMARK                            x       y       z     vdW  Elec       q    Type
REMARK                         _______ _______ _______ _____ _____    ______ ____
ROOT
ATOM      1  C   UNL     1       5.727   5.375  16.428  0.00  0.00    +0.000 A 
ATOM      2  N   UNL     1       5.724   6.725  16.481  0.00  0.00    +0.000 NA
ATOM      3  N   UNL     1       4.721   7.405  17.107  0.00  0.00    +0.000 NA
ATOM      4  C   UNL     1       3.668   6.754  17.646  0.00  0.00    +0.000 A 
ATOM      5  C   UNL     1       3.609   5.340  17.614  0.00  0.00    +0.000 A 
ATOM      6  C   UNL     1       2.497   4.570  18.054  0.00  0.00    +0.000 A 
ATOM      7  C   UNL     1       2.526   3.176  18.092  0.00  0.00    +0.000 A 
ATOM      8  C   UNL     1       3.652   2.500  17.653  0.00  0.00    +0.000 A 
ATOM      9  C   UNL     1       4.720   3.218  17.118  0.00  0.00    +0.000 A 
ATOM     10  C   UNL     1       4.713   4.634  17.065  0.00  0.00    +0.000 A 
ENDROOT
BRANCH   4  11
ATOM     11  C   UNL     1       2.677   7.675  18.268  0.00  0.00    +0.000 A 
ATOM     12  C   UNL     1       2.151   8.761  17.534  0.00  0.00    +0.000 A 
ATOM     13  C   UNL     1       1.254   9.679  18.102  0.00  0.00    +0.000 A 
ATOM     14  C   UNL     1       0.846   9.524  19.428  0.00  0.00    +0.000 A 
ATOM     15  C   UNL     1       1.338   8.448  20.170  0.00  0.00    +0.000 A 
ATOM     16  C   UNL     1       2.266   7.564  19.608  0.00  0.00    +0.000 A 
BRANCH  14  17
ATOM     17  C   UNL     1      -0.090  10.466  20.100  0.00  0.00    +0.000 C 
ATOM     18  O   UNL     1      -1.174  10.724  19.590  0.00  0.00    +0.000 OA
ATOM     19  N   UNL     1       0.309  10.965  21.320  0.00  0.00    +0.000 N 
ATOM     20  H   UNL     1       1.140  10.608  21.771  0.00  0.00    +0.000 HD
BRANCH  19  21
ATOM     21  C   UNL     1      -0.553  11.846  22.095  0.00  0.00    +0.000 C 
BRANCH  21  22
ATOM     22  C   UNL     1      -1.340  11.093  23.168  0.00  0.00    +0.000 C 
BRANCH  22  23
ATOM     23  O   UNL     1      -0.607   9.947  23.600  0.00  0.00    +0.000 OA
ATOM     24  H   UNL     1      -0.420  10.087  24.544  0.00  0.00    +0.000 HD
ENDBRANCH  22  23
ENDBRANCH  21  22
ENDBRANCH  19  21
ENDBRANCH  14  17
ENDBRANCH   4  11
BRANCH   1  25
ATOM     25  N   UNL     1       6.722   4.725  15.648  0.00  0.00    +0.000 N 
ATOM     26  H   UNL     1       7.642   5.044  15.926  0.00  0.00    +0.000 HD
BRANCH  25  33
ATOM     27  C   UNL     1       8.681   5.781  13.641  0.00  0.00    +0.000 C 
ATOM     28  C   UNL     1       7.493   4.925  13.294  0.00  0.00    +0.000 A 
ATOM     29  C   UNL     1       7.275   4.628  11.934  0.00  0.00    +0.000 A 
ATOM     30  C   UNL     1       6.221   3.809  11.532  0.00  0.00    +0.000 A 
ATOM     31  C   UNL     1       5.380   3.257  12.486  0.00  0.00    +0.000 A 
ATOM     32  C   UNL     1       5.572   3.567  13.831  0.00  0.00    +0.000 A 
ATOM     33  C   UNL     1       6.586   4.450  14.261  0.00  0.00    +0.000 A 
ENDBRANCH  25  33
ENDBRANCH   1  25
TORSDOF 7
ENDMDL
