MODEL 1
REMARK VINA RESULT:      -7.6      0.000      0.000
REMARK  Name = 
REMARK  7 active torsions:
REMARK  status: ('A' for Active; 'I' for Inactive)
REMARK    1  A    between atoms: C_1  and  C_2
REMARK    2  A    between atoms: C_6  and  C_7
REMARK    3  A    between atoms: C_7  and  O_9
REMARK    4  A    between atoms: O_9  and  C_10
REMARK    5  A    between atoms: C_12  and  C_13
REMARK    6  A    between atoms: C_15  and  O_16
REMARK    7  A    between atoms: C_17  and  N_18
REMARK                            x       y       z     vdW  Elec       q    Type
REMARK                         _______ _______ _______ _____ _____    ______ ____
ROOT
ATOM      1  C   UNL     1       4.085   4.441  17.549  0.00  0.00    +0.000 A 
ATOM      2  C   UNL     1       3.795   5.783  17.278  0.00  0.00    +0.000 A 
ATOM      3  C   UNL     1       3.113   6.529  18.231  0.00  0.00    +0.000 A 
ATOM      4  C   UNL     1       2.811   7.975  17.975  0.00  0.00    +0.000 C 
ATOM      5  N   UNL     1       2.726   6.009  19.421  0.00  0.00    +0.000 NA
ATOM      6  C   UNL     1       3.036   4.718  19.662  0.00  0.00    +0.000 A 
ATOM      7  C   UNL     1       3.709   3.908  18.775  0.00  0.00    +0.000 A 
ENDROOT
BRANCH   7   8
ATOM      8  N   UNL     1       4.065   2.573  19.156  0.00  0.00    +0.000 N 
ATOM      9  O   UNL     1       4.935   2.454  20.034  0.00  0.00    +0.000 OA
ATOM     10  O   UNL     1       3.505   1.638  18.569  0.00  0.00    +0.000 OA
ENDBRANCH   7   8
BRANCH   6  11
ATOM     11  O   UNL     1       2.662   4.328  20.903  0.00  0.00    +0.000 OA
ATOM     12  H   UNL     1       3.529   4.122  21.298  0.00  0.00    +0.000 HD
ENDBRANCH   6  11
BRANCH   1  13
ATOM     13  O   UNL     1       4.879   3.704  16.657  0.00  0.00    +0.000 OA
BRANCH  13  14
ATOM     14  C   UNL     1       6.126   4.251  16.407  0.00  0.00    +0.000 C 
ATOM     15  O   UNL     1       6.978   4.495  17.250  0.00  0.00    +0.000 OA
BRANCH  14  21
ATOM     16  C   UNL     1       5.072   2.824  11.686  0.00  0.00    +0.000 C 
ATOM     17  C   UNL     1       5.898   3.624  12.650  0.00  0.00    +0.000 A 
ATOM     18  C   UNL     1       6.990   4.380  12.209  0.00  0.00    +0.000 A 
ATOM     19  C   UNL     1       7.762   5.105  13.119  0.00  0.00    +0.000 A 
ATOM     20  C   UNL     1       7.451   5.079  14.478  0.00  0.00    +0.000 A 
ATOM     21  C   UNL     1       6.355   4.334  14.934  0.00  0.00    +0.000 A 
ATOM     22  C   UNL     1       5.584   3.608  14.015  0.00  0.00    +0.000 A 
ENDBRANCH  14  21
ENDBRANCH  13  14
ENDBRANCH   1  13
TORSDOF 5
ENDMDL
MODEL 2
REMARK VINA RESULT:      -7.5      2.253      6.169
REMARK  Name = 
REMARK  7 active torsions:
REMARK  status: ('A' for Active; 'I' for Inactive)
REMARK    1  A    between atoms: C_1  and  C_2
REMARK    2  A    between atoms: C_6  and  C_7
REMARK    3  A    between atoms: C_7  and  O_9
REMARK    4  A    between atoms: O_9  and  C_10
REMARK    5  A    between atoms: C_12  and  C_13
REMARK    6  A    between atoms: C_15  and  O_16
REMARK    7  A    between atoms: C_17  and  N_18
REMARK                            x       y       z     vdW  Elec       q    Type
REMARK                         _______ _______ _______ _____ _____    ______ ____
ROOT
ATOM      1  C   UNL     1       5.182   5.068  16.641  0.00  0.00    +0.000 A 
ATOM      2  C   UNL     1       5.484   5.091  15.274  0.00  0.00    +0.000 A 
ATOM      3  C   UNL     1       6.780   4.797  14.868  0.00  0.00    +0.000 A 
ATOM      4  C   UNL     1       7.124   4.792  13.408  0.00  0.00    +0.000 C 
ATOM      5  N   UNL     1       7.763   4.478  15.745  0.00  0.00    +0.000 NA
ATOM      6  C   UNL     1       7.436   4.446  17.054  0.00  0.00    +0.000 A 
ATOM      7  C   UNL     1       6.179   4.721  17.542  0.00  0.00    +0.000 A 
ENDROOT
BRANCH   7   8
ATOM      8  N   UNL     1       5.911   4.579  18.944  0.00  0.00    +0.000 N 
ATOM      9  O   UNL     1       6.291   5.501  19.683  0.00  0.00    +0.000 OA
ATOM     10  O   UNL     1       5.347   3.543  19.319  0.00  0.00    +0.000 OA
ENDBRANCH   7   8
BRANCH   6  11
ATOM     11  O   UNL     1       8.474   4.049  17.827  0.00  0.00    +0.000 OA
ATOM     12  H   UNL     1       9.226   4.249  17.239  0.00  0.00    +0.000 HD
ENDBRANCH   6  11
BRANCH   1  13
ATOM     13  O   UNL     1       3.856   5.239  17.065  0.00  0.00    +0.000 OA
BRANCH  13  14
ATOM     14  C   UNL     1       3.578   6.482  17.609  0.00  0.00    +0.000 C 
ATOM     15  O   UNL     1       3.805   7.559  17.074  0.00  0.00    +0.000 OA
BRANCH  14  21
ATOM     16  C   UNL     1       1.157   3.596  20.961  0.00  0.00    +0.000 C 
ATOM     17  C   UNL     1       1.579   4.951  20.476  0.00  0.00    +0.000 A 
ATOM     18  C   UNL     1       1.150   6.116  21.124  0.00  0.00    +0.000 A 
ATOM     19  C   UNL     1       1.535   7.371  20.651  0.00  0.00    +0.000 A 
ATOM     20  C   UNL     1       2.352   7.475  19.524  0.00  0.00    +0.000 A 
ATOM     21  C   UNL     1       2.797   6.319  18.871  0.00  0.00    +0.000 A 
ATOM     22  C   UNL     1       2.406   5.061  19.350  0.00  0.00    +0.000 A 
ENDBRANCH  14  21
ENDBRANCH  13  14
ENDBRANCH   1  13
TORSDOF 5
ENDMDL
MODEL 3
REMARK VINA RESULT:      -7.5      3.090      5.851
REMARK  Name = 
REMARK  7 active torsions:
REMARK  status: ('A' for Active; 'I' for Inactive)
REMARK    1  A    between atoms: C_1  and  C_2
REMARK    2  A    between atoms: C_6  and  C_7
REMARK    3  A    between atoms: C_7  and  O_9
REMARK    4  A    between atoms: O_9  and  C_10
REMARK    5  A    between atoms: C_12  and  C_13
REMARK    6  A    between atoms: C_15  and  O_16
REMARK    7  A    between atoms: C_17  and  N_18
REMARK                            x       y       z     vdW  Elec       q    Type
REMARK                         _______ _______ _______ _____ _____    ______ ____
ROOT
ATOM      1  C   UNL     1       5.147   6.354  17.354  0.00  0.00    +0.000 A 
ATOM      2  C   UNL     1       5.861   7.550  17.485  0.00  0.00    +0.000 A 
ATOM      3  C   UNL     1       7.243   7.497  17.613  0.00  0.00    +0.000 A 
ATOM      4  C   UNL     1       8.034   8.766  17.731  0.00  0.00    +0.000 C 
ATOM      5  N   UNL     1       7.930   6.329  17.603  0.00  0.00    +0.000 NA
ATOM      6  C   UNL     1       7.216   5.193  17.456  0.00  0.00    +0.000 A 
ATOM      7  C   UNL     1       5.847   5.156  17.323  0.00  0.00    +0.000 A 
ENDROOT
BRANCH   7   8
ATOM      8  N   UNL     1       5.187   3.904  17.088  0.00  0.00    +0.000 N 
ATOM      9  O   UNL     1       4.929   3.620  15.907  0.00  0.00    +0.000 OA
ATOM     10  O   UNL     1       4.898   3.212  18.072  0.00  0.00    +0.000 OA
ENDBRANCH   7   8
BRANCH   6  11
ATOM     11  O   UNL     1       8.010   4.099  17.392  0.00  0.00    +0.000 OA
ATOM     12  H   UNL     1       7.342   3.388  17.408  0.00  0.00    +0.000 HD
ENDBRANCH   6  11
BRANCH   1  13
ATOM     13  O   UNL     1       3.767   6.389  17.100  0.00  0.00    +0.000 OA
BRANCH  13  14
ATOM     14  C   UNL     1       2.982   6.654  18.210  0.00  0.00    +0.000 C 
ATOM     15  O   UNL     1       2.720   7.766  18.646  0.00  0.00    +0.000 OA
BRANCH  14  21
ATOM     16  C   UNL     1       2.107   3.268  21.844  0.00  0.00    +0.000 C 
ATOM     17  C   UNL     1       1.956   3.718  20.421  0.00  0.00    +0.000 A 
ATOM     18  C   UNL     1       1.322   2.907  19.471  0.00  0.00    +0.000 A 
ATOM     19  C   UNL     1       1.204   3.330  18.147  0.00  0.00    +0.000 A 
ATOM     20  C   UNL     1       1.721   4.565  17.756  0.00  0.00    +0.000 A 
ATOM     21  C   UNL     1       2.351   5.391  18.696  0.00  0.00    +0.000 A 
ATOM     22  C   UNL     1       2.466   4.961  20.025  0.00  0.00    +0.000 A 
ENDBRANCH  14  21
ENDBRANCH  13  14
ENDBRANCH   1  13
TORSDOF 5
ENDMDL
MODEL 4
REMARK VINA RESULT:      -7.4      2.565      6.599
REMARK  Name = 
REMARK  7 active torsions:
REMARK  status: ('A' for Active; 'I' for Inactive)
REMARK    1  A    between atoms: C_1  and  C_2
REMARK    2  A    between atoms: C_6  and  C_7
REMARK    3  A    between atoms: C_7  and  O_9
REMARK    4  A    between atoms: O_9  and  C_10
REMARK    5  A    between atoms: C_12  and  C_13
REMARK    6  A    between atoms: C_15  and  O_16
REMARK    7  A    between atoms: C_17  and  N_18
REMARK                            x       y       z     vdW  Elec       q    Type
REMARK                         _______ _______ _______ _____ _____    ______ ____
ROOT
ATOM      1  C   UNL     1       5.535   6.112  16.931  0.00  0.00    +0.000 A 
ATOM      2  C   UNL     1       5.152   5.651  15.666  0.00  0.00    +0.000 A 
ATOM      3  C   UNL     1       5.910   4.662  15.053  0.00  0.00    +0.000 A 
ATOM      4  C   UNL     1       5.507   4.134  13.708  0.00  0.00    +0.000 C 
ATOM      5  N   UNL     1       7.003   4.115  15.639  0.00  0.00    +0.000 NA
ATOM      6  C   UNL     1       7.337   4.567  16.867  0.00  0.00    +0.000 A 
ATOM      7  C   UNL     1       6.641   5.542  17.545  0.00  0.00    +0.000 A 
ENDROOT
BRANCH   7   8
ATOM      8  N   UNL     1       7.025   5.895  18.881  0.00  0.00    +0.000 N 
ATOM      9  O   UNL     1       7.987   6.671  19.000  0.00  0.00    +0.000 OA
ATOM     10  O   UNL     1       6.394   5.384  19.815  0.00  0.00    +0.000 OA
ENDBRANCH   7   8
BRANCH   6  11
ATOM     11  O   UNL     1       8.399   3.904  17.381  0.00  0.00    +0.000 OA
ATOM     12  H   UNL     1       9.067   4.066  16.689  0.00  0.00    +0.000 HD
ENDBRANCH   6  11
BRANCH   1  13
ATOM     13  O   UNL     1       4.716   7.020  17.620  0.00  0.00    +0.000 OA
BRANCH  13  14
ATOM     14  C   UNL     1       3.500   6.502  18.035  0.00  0.00    +0.000 C 
ATOM     15  O   UNL     1       3.223   5.313  18.110  0.00  0.00    +0.000 OA
BRANCH  14  21
ATOM     16  C   UNL     1       0.692   8.569  21.678  0.00  0.00    +0.000 C 
ATOM     17  C   UNL     1       1.231   8.594  20.278  0.00  0.00    +0.000 A 
ATOM     18  C   UNL     1       0.839   9.586  19.371  0.00  0.00    +0.000 A 
ATOM     19  C   UNL     1       1.334   9.587  18.066  0.00  0.00    +0.000 A 
ATOM     20  C   UNL     1       2.224   8.595  17.654  0.00  0.00    +0.000 A 
ATOM     21  C   UNL     1       2.633   7.601  18.552  0.00  0.00    +0.000 A 
ATOM     22  C   UNL     1       2.132   7.605  19.861  0.00  0.00    +0.000 A 
ENDBRANCH  14  21
ENDBRANCH  13  14
ENDBRANCH   1  13
TORSDOF 5
ENDMDL
MODEL 5
REMARK VINA RESULT:      -7.4      2.546      6.522
REMARK  Name = 
REMARK  7 active torsions:
REMARK  status: ('A' for Active; 'I' for Inactive)
REMARK    1  A    between atoms: C_1  and  C_2
REMARK    2  A    between atoms: C_6  and  C_7
REMARK    3  A    between atoms: C_7  and  O_9
REMARK    4  A    between atoms: O_9  and  C_10
REMARK    5  A    between atoms: C_12  and  C_13
REMARK    6  A    between atoms: C_15  and  O_16
REMARK    7  A    between atoms: C_17  and  N_18
REMARK                            x       y       z     vdW  Elec       q    Type
REMARK                         _______ _______ _______ _____ _____    ______ ____
ROOT
ATOM      1  C   UNL     1       5.667   4.112  15.471  0.00  0.00    +0.000 A 
ATOM      2  C   UNL     1       5.099   3.531  14.331  0.00  0.00    +0.000 A 
ATOM      3  C   UNL     1       5.689   3.761  13.095  0.00  0.00    +0.000 A 
ATOM      4  C   UNL     1       5.115   3.131  11.861  0.00  0.00    +0.000 C 
ATOM      5  N   UNL     1       6.803   4.520  12.950  0.00  0.00    +0.000 NA
ATOM      6  C   UNL     1       7.338   5.051  14.069  0.00  0.00    +0.000 A 
ATOM      7  C   UNL     1       6.819   4.873  15.332  0.00  0.00    +0.000 A 
ENDROOT
BRANCH   7   8
ATOM      8  N   UNL     1       7.508   5.410  16.469  0.00  0.00    +0.000 N 
ATOM      9  O   UNL     1       7.971   4.592  17.281  0.00  0.00    +0.000 OA
ATOM     10  O   UNL     1       7.570   6.641  16.575  0.00  0.00    +0.000 OA
ENDBRANCH   7   8
BRANCH   6  11
ATOM     11  O   UNL     1       8.482   5.729  13.814  0.00  0.00    +0.000 OA
ATOM     12  H   UNL     1       8.153   6.647  13.811  0.00  0.00    +0.000 HD
ENDBRANCH   6  11
BRANCH   1  13
ATOM     13  O   UNL     1       5.163   3.794  16.741  0.00  0.00    +0.000 OA
BRANCH  13  14
ATOM     14  C   UNL     1       4.243   4.700  17.242  0.00  0.00    +0.000 C 
ATOM     15  O   UNL     1       4.171   5.882  16.935  0.00  0.00    +0.000 OA
BRANCH  14  21
ATOM     16  C   UNL     1       2.176   3.635  21.716  0.00  0.00    +0.000 C 
ATOM     17  C   UNL     1       2.253   3.419  20.234  0.00  0.00    +0.000 A 
ATOM     18  C   UNL     1       1.462   2.450  19.604  0.00  0.00    +0.000 A 
ATOM     19  C   UNL     1       1.556   2.247  18.227  0.00  0.00    +0.000 A 
ATOM     20  C   UNL     1       2.443   3.008  17.465  0.00  0.00    +0.000 A 
ATOM     21  C   UNL     1       3.234   3.987  18.079  0.00  0.00    +0.000 A 
ATOM     22  C   UNL     1       3.135   4.187  19.463  0.00  0.00    +0.000 A 
ENDBRANCH  14  21
ENDBRANCH  13  14
ENDBRANCH   1  13
TORSDOF 5
ENDMDL
MODEL 6
REMARK VINA RESULT:      -7.4      2.144      6.157
REMARK  Name = 
REMARK  7 active torsions:
REMARK  status: ('A' for Active; 'I' for Inactive)
REMARK    1  A    between atoms: C_1  and  C_2
REMARK    2  A    between atoms: C_6  and  C_7
REMARK    3  A    between atoms: C_7  and  O_9
REMARK    4  A    between atoms: O_9  and  C_10
REMARK    5  A    between atoms: C_12  and  C_13
REMARK    6  A    between atoms: C_15  and  O_16
REMARK    7  A    between atoms: C_17  and  N_18
REMARK                            x       y       z     vdW  Elec       q    Type
REMARK                         _______ _______ _______ _____ _____    ______ ____
ROOT
ATOM      1  C   UNL     1       5.108   5.048  16.578  0.00  0.00    +0.000 A 
ATOM      2  C   UNL     1       5.460   5.064  15.223  0.00  0.00    +0.000 A 
ATOM      3  C   UNL     1       6.775   4.795  14.867  0.00  0.00    +0.000 A 
ATOM      4  C   UNL     1       7.172   4.783  13.421  0.00  0.00    +0.000 C 
ATOM      5  N   UNL     1       7.731   4.504  15.783  0.00  0.00    +0.000 NA
ATOM      6  C   UNL     1       7.358   4.476  17.079  0.00  0.00    +0.000 A 
ATOM      7  C   UNL     1       6.078   4.730  17.519  0.00  0.00    +0.000 A 
ENDROOT
BRANCH   7   8
ATOM      8  N   UNL     1       5.761   4.595  18.911  0.00  0.00    +0.000 N 
ATOM      9  O   UNL     1       5.716   5.640  19.579  0.00  0.00    +0.000 OA
ATOM     10  O   UNL     1       5.582   3.452  19.351  0.00  0.00    +0.000 OA
ENDBRANCH   7   8
BRANCH   6  11
ATOM     11  O   UNL     1       8.375   4.109  17.894  0.00  0.00    +0.000 OA
ATOM     12  H   UNL     1       8.311   4.793  18.585  0.00  0.00    +0.000 HD
ENDBRANCH   6  11
BRANCH   1  13
ATOM     13  O   UNL     1       3.763   5.195  16.952  0.00  0.00    +0.000 OA
BRANCH  13  14
ATOM     14  C   UNL     1       3.093   4.005  17.181  0.00  0.00    +0.000 C 
ATOM     15  O   UNL     1       3.221   2.980  16.525  0.00  0.00    +0.000 OA
BRANCH  14  21
ATOM     16  C   UNL     1       1.397   6.630  21.138  0.00  0.00    +0.000 C 
ATOM     17  C   UNL     1       1.534   5.331  20.400  0.00  0.00    +0.000 A 
ATOM     18  C   UNL     1       1.047   4.137  20.946  0.00  0.00    +0.000 A 
ATOM     19  C   UNL     1       1.197   2.932  20.257  0.00  0.00    +0.000 A 
ATOM     20  C   UNL     1       1.837   2.908  19.018  0.00  0.00    +0.000 A 
ATOM     21  C   UNL     1       2.322   4.096  18.455  0.00  0.00    +0.000 A 
ATOM     22  C   UNL     1       2.169   5.303  19.152  0.00  0.00    +0.000 A 
ENDBRANCH  14  21
ENDBRANCH  13  14
ENDBRANCH   1  13
TORSDOF 5
ENDMDL
MODEL 7
REMARK VINA RESULT:      -7.4      2.078      5.889
REMARK  Name = 
REMARK  7 active torsions:
REMARK  status: ('A' for Active; 'I' for Inactive)
REMARK    1  A    between atoms: C_1  and  C_2
REMARK    2  A    between atoms: C_6  and  C_7
REMARK    3  A    between atoms: C_7  and  O_9
REMARK    4  A    between atoms: O_9  and  C_10
REMARK    5  A    between atoms: C_12  and  C_13
REMARK    6  A    between atoms: C_15  and  O_16
REMARK    7  A    between atoms: C_17  and  N_18
REMARK                            x       y       z     vdW  Elec       q    Type
REMARK                         _______ _______ _______ _____ _____    ______ ____
ROOT
ATOM      1  C   UNL     1       5.161   4.048  17.012  0.00  0.00    +0.000 A 
ATOM      2  C   UNL     1       5.068   3.712  15.656  0.00  0.00    +0.000 A 
ATOM      3  C   UNL     1       5.902   4.350  14.747  0.00  0.00    +0.000 A 
ATOM      4  C   UNL     1       5.840   3.991  13.292  0.00  0.00    +0.000 C 
ATOM      5  N   UNL     1       6.813   5.281  15.124  0.00  0.00    +0.000 NA
ATOM      6  C   UNL     1       6.892   5.570  16.440  0.00  0.00    +0.000 A 
ATOM      7  C   UNL     1       6.105   4.985  17.407  0.00  0.00    +0.000 A 
ENDROOT
BRANCH   7   8
ATOM      8  N   UNL     1       6.322   5.298  18.789  0.00  0.00    +0.000 N 
ATOM      9  O   UNL     1       7.376   4.884  19.299  0.00  0.00    +0.000 OA
ATOM     10  O   UNL     1       5.439   5.932  19.380  0.00  0.00    +0.000 OA
ENDBRANCH   7   8
BRANCH   6  11
ATOM     11  O   UNL     1       7.878   6.458  16.707  0.00  0.00    +0.000 OA
ATOM     12  H   UNL     1       8.571   5.863  17.048  0.00  0.00    +0.000 HD
ENDBRANCH   6  11
BRANCH   1  13
ATOM     13  O   UNL     1       4.418   3.330  17.961  0.00  0.00    +0.000 OA
BRANCH  13  14
ATOM     14  C   UNL     1       3.044   3.448  17.829  0.00  0.00    +0.000 C 
ATOM     15  O   UNL     1       2.303   2.609  17.333  0.00  0.00    +0.000 OA
BRANCH  14  21
ATOM     16  C   UNL     1       2.131   8.405  17.963  0.00  0.00    +0.000 C 
ATOM     17  C   UNL     1       2.169   7.070  18.646  0.00  0.00    +0.000 A 
ATOM     18  C   UNL     1       1.878   6.950  20.010  0.00  0.00    +0.000 A 
ATOM     19  C   UNL     1       1.935   5.704  20.638  0.00  0.00    +0.000 A 
ATOM     20  C   UNL     1       2.285   4.567  19.909  0.00  0.00    +0.000 A 
ATOM     21  C   UNL     1       2.570   4.671  18.542  0.00  0.00    +0.000 A 
ATOM     22  C   UNL     1       2.512   5.925  17.917  0.00  0.00    +0.000 A 
ENDBRANCH  14  21
ENDBRANCH  13  14
ENDBRANCH   1  13
TORSDOF 5
ENDMDL
MODEL 8
REMARK VINA RESULT:      -7.4      2.204      6.222
REMARK  Name = 
REMARK  7 active torsions:
REMARK  status: ('A' for Active; 'I' for Inactive)
REMARK    1  A    between atoms: C_1  and  C_2
REMARK    2  A    between atoms: C_6  and  C_7
REMARK    3  A    between atoms: C_7  and  O_9
REMARK    4  A    between atoms: O_9  and  C_10
REMARK    5  A    between atoms: C_12  and  C_13
REMARK    6  A    between atoms: C_15  and  O_16
REMARK    7  A    between atoms: C_17  and  N_18
REMARK                            x       y       z     vdW  Elec       q    Type
REMARK                         _______ _______ _______ _____ _____    ______ ____
ROOT
ATOM      1  C   UNL     1       5.254   3.843  16.472  0.00  0.00    +0.000 A 
ATOM      2  C   UNL     1       5.469   3.527  15.125  0.00  0.00    +0.000 A 
ATOM      3  C   UNL     1       6.375   4.284  14.394  0.00  0.00    +0.000 A 
ATOM      4  C   UNL     1       6.642   3.951  12.956  0.00  0.00    +0.000 C 
ATOM      5  N   UNL     1       7.070   5.313  14.939  0.00  0.00    +0.000 NA
ATOM      6  C   UNL     1       6.855   5.582  16.244  0.00  0.00    +0.000 A 
ATOM      7  C   UNL     1       5.977   4.882  17.040  0.00  0.00    +0.000 A 
ENDROOT
BRANCH   7   8
ATOM      8  N   UNL     1       5.880   5.190  18.438  0.00  0.00    +0.000 N 
ATOM      9  O   UNL     1       5.328   6.261  18.738  0.00  0.00    +0.000 OA
ATOM     10  O   UNL     1       6.374   4.387  19.239  0.00  0.00    +0.000 OA
ENDBRANCH   7   8
BRANCH   6  11
ATOM     11  O   UNL     1       7.650   6.580  16.695  0.00  0.00    +0.000 OA
ATOM     12  H   UNL     1       7.138   7.361  16.417  0.00  0.00    +0.000 HD
ENDBRANCH   6  11
BRANCH   1  13
ATOM     13  O   UNL     1       4.438   3.017  17.261  0.00  0.00    +0.000 OA
BRANCH  13  14
ATOM     14  C   UNL     1       3.103   3.383  17.291  0.00  0.00    +0.000 C 
ATOM     15  O   UNL     1       2.327   3.321  16.347  0.00  0.00    +0.000 OA
BRANCH  14  21
ATOM     16  C   UNL     1       1.497   6.629  20.800  0.00  0.00    +0.000 C 
ATOM     17  C   UNL     1       1.970   5.259  20.415  0.00  0.00    +0.000 A 
ATOM     18  C   UNL     1       2.162   4.263  21.380  0.00  0.00    +0.000 A 
ATOM     19  C   UNL     1       2.620   2.998  21.010  0.00  0.00    +0.000 A 
ATOM     20  C   UNL     1       2.892   2.715  19.672  0.00  0.00    +0.000 A 
ATOM     21  C   UNL     1       2.696   3.698  18.693  0.00  0.00    +0.000 A 
ATOM     22  C   UNL     1       2.237   4.967  19.071  0.00  0.00    +0.000 A 
ENDBRANCH  14  21
ENDBRANCH  13  14
ENDBRANCH   1  13
TORSDOF 5
ENDMDL
MODEL 9
REMARK VINA RESULT:      -7.3      2.155      6.126
REMARK  Name = 
REMARK  7 active torsions:
REMARK  status: ('A' for Active; 'I' for Inactive)
REMARK    1  A    between atoms: C_1  and  C_2
REMARK    2  A    between atoms: C_6  and  C_7
REMARK    3  A    between atoms: C_7  and  O_9
REMARK    4  A    between atoms: O_9  and  C_10
REMARK    5  A    between atoms: C_12  and  C_13
REMARK    6  A    between atoms: C_15  and  O_16
REMARK    7  A    between atoms: C_17  and  N_18
REMARK                            x       y       z     vdW  Elec       q    Type
REMARK                         _______ _______ _______ _____ _____    ______ ____
ROOT
ATOM      1  C   UNL     1       5.236   5.322  16.589  0.00  0.00    +0.000 A 
ATOM      2  C   UNL     1       5.543   5.313  15.223  0.00  0.00    +0.000 A 
ATOM      3  C   UNL     1       6.808   4.904  14.821  0.00  0.00    +0.000 A 
ATOM      4  C   UNL     1       7.154   4.863  13.362  0.00  0.00    +0.000 C 
ATOM      5  N   UNL     1       7.756   4.500  15.702  0.00  0.00    +0.000 NA
ATOM      6  C   UNL     1       7.425   4.501  17.010  0.00  0.00    +0.000 A 
ATOM      7  C   UNL     1       6.196   4.890  17.494  0.00  0.00    +0.000 A 
ENDROOT
BRANCH   7   8
ATOM      8  N   UNL     1       5.912   4.777  18.895  0.00  0.00    +0.000 N 
ATOM      9  O   UNL     1       5.917   5.829  19.554  0.00  0.00    +0.000 OA
ATOM     10  O   UNL     1       5.709   3.644  19.350  0.00  0.00    +0.000 OA
ENDBRANCH   7   8
BRANCH   6  11
ATOM     11  O   UNL     1       8.421   4.016  17.787  0.00  0.00    +0.000 OA
ATOM     12  H   UNL     1       7.972   3.971  18.652  0.00  0.00    +0.000 HD
ENDBRANCH   6  11
BRANCH   1  13
ATOM     13  O   UNL     1       3.929   5.613  17.008  0.00  0.00    +0.000 OA
BRANCH  13  14
ATOM     14  C   UNL     1       3.175   4.506  17.359  0.00  0.00    +0.000 C 
ATOM     15  O   UNL     1       3.071   3.479  16.702  0.00  0.00    +0.000 OA
BRANCH  14  21
ATOM     16  C   UNL     1       1.320   2.589  21.639  0.00  0.00    +0.000 C 
ATOM     17  C   UNL     1       1.702   3.774  20.802  0.00  0.00    +0.000 A 
ATOM     18  C   UNL     1       1.462   5.080  21.247  0.00  0.00    +0.000 A 
ATOM     19  C   UNL     1       1.805   6.173  20.451  0.00  0.00    +0.000 A 
ATOM     20  C   UNL     1       2.391   5.973  19.201  0.00  0.00    +0.000 A 
ATOM     21  C   UNL     1       2.647   4.673  18.745  0.00  0.00    +0.000 A 
ATOM     22  C   UNL     1       2.299   3.579  19.550  0.00  0.00    +0.000 A 
ENDBRANCH  14  21
ENDBRANCH  13  14
ENDBRANCH   1  13
TORSDOF 5
ENDMDL
