MODEL 1
REMARK VINA RESULT:      -7.2      0.000      0.000
REMARK  Name = 
REMARK  3 active torsions:
REMARK  status: ('A' for Active; 'I' for Inactive)
REMARK    1  A    between atoms: C_10  and  C_11
REMARK    2  A    between atoms: C_14  and  O_15
REMARK    3  A    between atoms: N_18  and  C_19
REMARK                            x       y       z     vdW  Elec       q    Type
REMARK                         _______ _______ _______ _____ _____    ______ ____
ROOT
ATOM      1  O   UNL     1       8.287   5.561  14.554  0.00  0.00    +0.000 OA
ATOM      2  C   UNL     1       7.184   5.059  14.772  0.00  0.00    +0.000 C 
ATOM      3  C   UNL     1       6.541   4.300  13.682  0.00  0.00    +0.000 A 
ATOM      4  C   UNL     1       7.196   4.149  12.451  0.00  0.00    +0.000 A 
ATOM      5  C   UNL     1       6.541   3.532  11.389  0.00  0.00    +0.000 A 
ATOM      6  C   UNL     1       5.235   3.079  11.558  0.00  0.00    +0.000 A 
ATOM      7  C   UNL     1       4.595   3.223  12.794  0.00  0.00    +0.000 A 
ATOM      8  C   UNL     1       5.255   3.803  13.882  0.00  0.00    +0.000 A 
ATOM      9  N   UNL     1       4.576   4.030  15.076  0.00  0.00    +0.000 N 
ATOM     10  C   UNL     1       5.389   4.238  16.272  0.00  0.00    +0.000 C 
ATOM     11  N   UNL     1       6.485   5.161  15.980  0.00  0.00    +0.000 N 
ATOM     12  H   UNL     1       3.800   3.397  15.234  0.00  0.00    +0.000 HD
ENDROOT
BRANCH  10  13
ATOM     13  C   UNL     1       4.396   4.699  17.346  0.00  0.00    +0.000 A 
ATOM     14  C   UNL     1       3.844   5.990  17.300  0.00  0.00    +0.000 A 
ATOM     15  C   UNL     1       2.990   6.446  18.313  0.00  0.00    +0.000 A 
ATOM     16  C   UNL     1       2.672   5.600  19.373  0.00  0.00    +0.000 A 
ATOM     17  C   UNL     1       3.206   4.324  19.445  0.00  0.00    +0.000 A 
ATOM     18  C   UNL     1       4.089   3.891  18.456  0.00  0.00    +0.000 A 
BRANCH  16  19
ATOM     19  O   UNL     1       1.836   5.994  20.378  0.00  0.00    +0.000 OA
ATOM     20  H   UNL     1       1.508   6.885  20.178  0.00  0.00    +0.000 HD
ENDBRANCH  16  19
ENDBRANCH  10  13
BRANCH  11  21
ATOM     21  C   UNL     1       7.140   5.866  17.031  0.00  0.00    +0.000 A 
ATOM     22  C   UNL     1       7.307   7.251  16.886  0.00  0.00    +0.000 A 
ATOM     23  C   UNL     1       7.900   8.004  17.896  0.00  0.00    +0.000 A 
ATOM     24  C   UNL     1       8.372   7.370  19.042  0.00  0.00    +0.000 A 
ATOM     25  C   UNL     1       8.229   5.989  19.186  0.00  0.00    +0.000 A 
ATOM     26  C   UNL     1       7.593   5.237  18.193  0.00  0.00    +0.000 A 
ENDBRANCH  11  21
TORSDOF 3
ENDMDL
MODEL 2
REMARK VINA RESULT:      -7.1      2.867      5.034
REMARK  Name = 
REMARK  3 active torsions:
REMARK  status: ('A' for Active; 'I' for Inactive)
REMARK    1  A    between atoms: C_10  and  C_11
REMARK    2  A    between atoms: C_14  and  O_15
REMARK    3  A    between atoms: N_18  and  C_19
REMARK                            x       y       z     vdW  Elec       q    Type
REMARK                         _______ _______ _______ _____ _____    ______ ____
ROOT
ATOM      1  O   UNL     1       4.353   2.551  17.800  0.00  0.00    +0.000 OA
ATOM      2  C   UNL     1       4.209   3.750  17.559  0.00  0.00    +0.000 C 
ATOM      3  C   UNL     1       5.017   4.341  16.475  0.00  0.00    +0.000 A 
ATOM      4  C   UNL     1       5.899   3.536  15.738  0.00  0.00    +0.000 A 
ATOM      5  C   UNL     1       6.741   4.115  14.793  0.00  0.00    +0.000 A 
ATOM      6  C   UNL     1       6.706   5.494  14.597  0.00  0.00    +0.000 A 
ATOM      7  C   UNL     1       5.815   6.287  15.328  0.00  0.00    +0.000 A 
ATOM      8  C   UNL     1       4.933   5.714  16.251  0.00  0.00    +0.000 A 
ATOM      9  N   UNL     1       4.121   6.521  17.041  0.00  0.00    +0.000 N 
ATOM     10  C   UNL     1       2.959   5.888  17.662  0.00  0.00    +0.000 C 
ATOM     11  N   UNL     1       3.339   4.604  18.247  0.00  0.00    +0.000 N 
ATOM     12  H   UNL     1       3.903   7.419  16.624  0.00  0.00    +0.000 HD
ENDROOT
BRANCH  10  13
ATOM     13  C   UNL     1       2.418   6.936  18.643  0.00  0.00    +0.000 A 
ATOM     14  C   UNL     1       2.241   6.618  20.000  0.00  0.00    +0.000 A 
ATOM     15  C   UNL     1       1.684   7.544  20.891  0.00  0.00    +0.000 A 
ATOM     16  C   UNL     1       1.315   8.805  20.427  0.00  0.00    +0.000 A 
ATOM     17  C   UNL     1       1.474   9.143  19.093  0.00  0.00    +0.000 A 
ATOM     18  C   UNL     1       1.990   8.202  18.202  0.00  0.00    +0.000 A 
BRANCH  16  19
ATOM     19  O   UNL     1       0.778   9.746  21.258  0.00  0.00    +0.000 OA
ATOM     20  H   UNL     1       1.443   9.987  21.922  0.00  0.00    +0.000 HD
ENDBRANCH  16  19
ENDBRANCH  10  13
BRANCH  11  21
ATOM     21  C   UNL     1       2.541   4.005  19.266  0.00  0.00    +0.000 A 
ATOM     22  C   UNL     1       3.125   3.816  20.527  0.00  0.00    +0.000 A 
ATOM     23  C   UNL     1       2.385   3.277  21.577  0.00  0.00    +0.000 A 
ATOM     24  C   UNL     1       1.069   2.880  21.360  0.00  0.00    +0.000 A 
ATOM     25  C   UNL     1       0.486   3.046  20.103  0.00  0.00    +0.000 A 
ATOM     26  C   UNL     1       1.212   3.629  19.059  0.00  0.00    +0.000 A 
ENDBRANCH  11  21
TORSDOF 3
ENDMDL
MODEL 3
REMARK VINA RESULT:      -7.1      2.914      4.954
REMARK  Name = 
REMARK  3 active torsions:
REMARK  status: ('A' for Active; 'I' for Inactive)
REMARK    1  A    between atoms: C_10  and  C_11
REMARK    2  A    between atoms: C_14  and  O_15
REMARK    3  A    between atoms: N_18  and  C_19
REMARK                            x       y       z     vdW  Elec       q    Type
REMARK                         _______ _______ _______ _____ _____    ______ ____
ROOT
ATOM      1  O   UNL     1       4.482   2.659  18.032  0.00  0.00    +0.000 OA
ATOM      2  C   UNL     1       4.274   3.830  17.711  0.00  0.00    +0.000 C 
ATOM      3  C   UNL     1       5.054   4.389  16.591  0.00  0.00    +0.000 A 
ATOM      4  C   UNL     1       5.982   3.587  15.911  0.00  0.00    +0.000 A 
ATOM      5  C   UNL     1       6.797   4.147  14.931  0.00  0.00    +0.000 A 
ATOM      6  C   UNL     1       6.688   5.505  14.643  0.00  0.00    +0.000 A 
ATOM      7  C   UNL     1       5.751   6.295  15.317  0.00  0.00    +0.000 A 
ATOM      8  C   UNL     1       4.896   5.738  16.275  0.00  0.00    +0.000 A 
ATOM      9  N   UNL     1       4.037   6.551  17.008  0.00  0.00    +0.000 N 
ATOM     10  C   UNL     1       2.908   5.898  17.667  0.00  0.00    +0.000 C 
ATOM     11  N   UNL     1       3.355   4.678  18.338  0.00  0.00    +0.000 N 
ATOM     12  H   UNL     1       3.773   7.405  16.531  0.00  0.00    +0.000 HD
ENDROOT
BRANCH  10  13
ATOM     13  C   UNL     1       2.306   6.978  18.575  0.00  0.00    +0.000 A 
ATOM     14  C   UNL     1       1.931   8.224  18.048  0.00  0.00    +0.000 A 
ATOM     15  C   UNL     1       1.445   9.242  18.880  0.00  0.00    +0.000 A 
ATOM     16  C   UNL     1       1.318   9.008  20.247  0.00  0.00    +0.000 A 
ATOM     17  C   UNL     1       1.686   7.789  20.793  0.00  0.00    +0.000 A 
ATOM     18  C   UNL     1       2.208   6.794  19.967  0.00  0.00    +0.000 A 
BRANCH  16  19
ATOM     19  O   UNL     1       0.839   9.963  21.096  0.00  0.00    +0.000 OA
ATOM     20  H   UNL     1       0.435   9.524  21.861  0.00  0.00    +0.000 HD
ENDBRANCH  16  19
ENDBRANCH  10  13
BRANCH  11  21
ATOM     21  C   UNL     1       2.586   4.106  19.393  0.00  0.00    +0.000 A 
ATOM     22  C   UNL     1       1.322   3.588  19.075  0.00  0.00    +0.000 A 
ATOM     23  C   UNL     1       0.539   2.977  20.051  0.00  0.00    +0.000 A 
ATOM     24  C   UNL     1       0.995   2.921  21.365  0.00  0.00    +0.000 A 
ATOM     25  C   UNL     1       2.243   3.452  21.696  0.00  0.00    +0.000 A 
ATOM     26  C   UNL     1       3.051   4.026  20.708  0.00  0.00    +0.000 A 
ENDBRANCH  11  21
TORSDOF 3
ENDMDL
MODEL 4
REMARK VINA RESULT:      -7.1      0.215      1.408
REMARK  Name = 
REMARK  3 active torsions:
REMARK  status: ('A' for Active; 'I' for Inactive)
REMARK    1  A    between atoms: C_10  and  C_11
REMARK    2  A    between atoms: C_14  and  O_15
REMARK    3  A    between atoms: N_18  and  C_19
REMARK                            x       y       z     vdW  Elec       q    Type
REMARK                         _______ _______ _______ _____ _____    ______ ____
ROOT
ATOM      1  O   UNL     1       8.237   5.719  14.547  0.00  0.00    +0.000 OA
ATOM      2  C   UNL     1       7.176   5.141  14.781  0.00  0.00    +0.000 C 
ATOM      3  C   UNL     1       6.561   4.356  13.693  0.00  0.00    +0.000 A 
ATOM      4  C   UNL     1       7.195   4.267  12.446  0.00  0.00    +0.000 A 
ATOM      5  C   UNL     1       6.560   3.622  11.389  0.00  0.00    +0.000 A 
ATOM      6  C   UNL     1       5.292   3.080  11.579  0.00  0.00    +0.000 A 
ATOM      7  C   UNL     1       4.671   3.163  12.830  0.00  0.00    +0.000 A 
ATOM      8  C   UNL     1       5.315   3.771  13.914  0.00  0.00    +0.000 A 
ATOM      9  N   UNL     1       4.650   3.934  15.125  0.00  0.00    +0.000 N 
ATOM     10  C   UNL     1       5.474   4.180  16.306  0.00  0.00    +0.000 C 
ATOM     11  N   UNL     1       6.499   5.178  16.005  0.00  0.00    +0.000 N 
ATOM     12  H   UNL     1       3.922   3.248  15.290  0.00  0.00    +0.000 HD
ENDROOT
BRANCH  10  13
ATOM     13  C   UNL     1       4.476   4.557  17.409  0.00  0.00    +0.000 A 
ATOM     14  C   UNL     1       4.184   3.656  18.445  0.00  0.00    +0.000 A 
ATOM     15  C   UNL     1       3.224   3.962  19.418  0.00  0.00    +0.000 A 
ATOM     16  C   UNL     1       2.561   5.186  19.365  0.00  0.00    +0.000 A 
ATOM     17  C   UNL     1       2.826   6.091  18.351  0.00  0.00    +0.000 A 
ATOM     18  C   UNL     1       3.753   5.763  17.361  0.00  0.00    +0.000 A 
BRANCH  16  19
ATOM     19  O   UNL     1       1.626   5.535  20.296  0.00  0.00    +0.000 OA
ATOM     20  H   UNL     1       1.095   4.753  20.512  0.00  0.00    +0.000 HD
ENDBRANCH  16  19
ENDBRANCH  10  13
BRANCH  11  21
ATOM     21  C   UNL     1       7.129   5.911  17.053  0.00  0.00    +0.000 A 
ATOM     22  C   UNL     1       7.571   5.196  18.176  0.00  0.00    +0.000 A 
ATOM     23  C   UNL     1       8.234   5.846  19.215  0.00  0.00    +0.000 A 
ATOM     24  C   UNL     1       8.417   7.225  19.159  0.00  0.00    +0.000 A 
ATOM     25  C   UNL     1       7.961   7.948  18.055  0.00  0.00    +0.000 A 
ATOM     26  C   UNL     1       7.337   7.291  16.990  0.00  0.00    +0.000 A 
ENDBRANCH  11  21
TORSDOF 3
ENDMDL
MODEL 5
REMARK VINA RESULT:      -6.9      2.761      7.271
REMARK  Name = 
REMARK  3 active torsions:
REMARK  status: ('A' for Active; 'I' for Inactive)
REMARK    1  A    between atoms: C_10  and  C_11
REMARK    2  A    between atoms: C_14  and  O_15
REMARK    3  A    between atoms: N_18  and  C_19
REMARK                            x       y       z     vdW  Elec       q    Type
REMARK                         _______ _______ _______ _____ _____    ______ ____
ROOT
ATOM      1  O   UNL     1       1.110   4.523  20.713  0.00  0.00    +0.000 OA
ATOM      2  C   UNL     1       1.831   5.367  20.181  0.00  0.00    +0.000 C 
ATOM      3  C   UNL     1       1.476   6.789  20.354  0.00  0.00    +0.000 A 
ATOM      4  C   UNL     1       0.359   7.145  21.124  0.00  0.00    +0.000 A 
ATOM      5  C   UNL     1      -0.039   8.477  21.193  0.00  0.00    +0.000 A 
ATOM      6  C   UNL     1       0.672   9.443  20.484  0.00  0.00    +0.000 A 
ATOM      7  C   UNL     1       1.792   9.080  19.729  0.00  0.00    +0.000 A 
ATOM      8  C   UNL     1       2.230   7.751  19.684  0.00  0.00    +0.000 A 
ATOM      9  N   UNL     1       3.284   7.387  18.853  0.00  0.00    +0.000 N 
ATOM     10  C   UNL     1       3.954   6.122  19.147  0.00  0.00    +0.000 C 
ATOM     11  N   UNL     1       2.964   5.079  19.413  0.00  0.00    +0.000 N 
ATOM     12  H   UNL     1       3.934   8.140  18.659  0.00  0.00    +0.000 HD
ENDROOT
BRANCH  10  13
ATOM     13  C   UNL     1       4.877   5.878  17.947  0.00  0.00    +0.000 A 
ATOM     14  C   UNL     1       6.187   5.410  18.138  0.00  0.00    +0.000 A 
ATOM     15  C   UNL     1       7.061   5.249  17.055  0.00  0.00    +0.000 A 
ATOM     16  C   UNL     1       6.618   5.544  15.768  0.00  0.00    +0.000 A 
ATOM     17  C   UNL     1       5.333   6.012  15.551  0.00  0.00    +0.000 A 
ATOM     18  C   UNL     1       4.481   6.209  16.638  0.00  0.00    +0.000 A 
BRANCH  16  19
ATOM     19  O   UNL     1       7.428   5.393  14.679  0.00  0.00    +0.000 OA
ATOM     20  H   UNL     1       8.301   5.095  14.980  0.00  0.00    +0.000 HD
ENDBRANCH  16  19
ENDBRANCH  10  13
BRANCH  11  21
ATOM     21  C   UNL     1       3.311   3.701  19.290  0.00  0.00    +0.000 A 
ATOM     22  C   UNL     1       2.791   2.991  18.197  0.00  0.00    +0.000 A 
ATOM     23  C   UNL     1       3.127   1.655  17.995  0.00  0.00    +0.000 A 
ATOM     24  C   UNL     1       3.948   1.005  18.912  0.00  0.00    +0.000 A 
ATOM     25  C   UNL     1       4.454   1.698  20.013  0.00  0.00    +0.000 A 
ATOM     26  C   UNL     1       4.155   3.053  20.194  0.00  0.00    +0.000 A 
ENDBRANCH  11  21
TORSDOF 3
ENDMDL
MODEL 6
REMARK VINA RESULT:      -6.9      2.533      6.757
REMARK  Name = 
REMARK  3 active torsions:
REMARK  status: ('A' for Active; 'I' for Inactive)
REMARK    1  A    between atoms: C_10  and  C_11
REMARK    2  A    between atoms: C_14  and  O_15
REMARK    3  A    between atoms: N_18  and  C_19
REMARK                            x       y       z     vdW  Elec       q    Type
REMARK                         _______ _______ _______ _____ _____    ______ ____
ROOT
ATOM      1  O   UNL     1       1.615   5.549  20.238  0.00  0.00    +0.000 OA
ATOM      2  C   UNL     1       2.305   6.104  19.384  0.00  0.00    +0.000 C 
ATOM      3  C   UNL     1       2.113   7.552  19.173  0.00  0.00    +0.000 A 
ATOM      4  C   UNL     1       1.183   8.258  19.950  0.00  0.00    +0.000 A 
ATOM      5  C   UNL     1       0.922   9.597  19.674  0.00  0.00    +0.000 A 
ATOM      6  C   UNL     1       1.582  10.220  18.618  0.00  0.00    +0.000 A 
ATOM      7  C   UNL     1       2.517   9.512  17.856  0.00  0.00    +0.000 A 
ATOM      8  C   UNL     1       2.821   8.178  18.148  0.00  0.00    +0.000 A 
ATOM      9  N   UNL     1       3.678   7.456  17.324  0.00  0.00    +0.000 N 
ATOM     10  C   UNL     1       4.275   6.245  17.885  0.00  0.00    +0.000 C 
ATOM     11  N   UNL     1       3.258   5.462  18.585  0.00  0.00    +0.000 N 
ATOM     12  H   UNL     1       4.349   8.029  16.825  0.00  0.00    +0.000 HD
ENDROOT
BRANCH  10  13
ATOM     13  C   UNL     1       4.950   5.552  16.695  0.00  0.00    +0.000 A 
ATOM     14  C   UNL     1       4.977   6.168  15.432  0.00  0.00    +0.000 A 
ATOM     15  C   UNL     1       5.529   5.514  14.323  0.00  0.00    +0.000 A 
ATOM     16  C   UNL     1       6.073   4.242  14.478  0.00  0.00    +0.000 A 
ATOM     17  C   UNL     1       6.055   3.610  15.711  0.00  0.00    +0.000 A 
ATOM     18  C   UNL     1       5.467   4.248  16.802  0.00  0.00    +0.000 A 
BRANCH  16  19
ATOM     19  O   UNL     1       6.633   3.569  13.430  0.00  0.00    +0.000 OA
ATOM     20  H   UNL     1       7.137   2.817  13.778  0.00  0.00    +0.000 HD
ENDBRANCH  16  19
ENDBRANCH  10  13
BRANCH  11  21
ATOM     21  C   UNL     1       3.454   4.072  18.830  0.00  0.00    +0.000 A 
ATOM     22  C   UNL     1       2.718   3.161  18.058  0.00  0.00    +0.000 A 
ATOM     23  C   UNL     1       2.896   1.789  18.218  0.00  0.00    +0.000 A 
ATOM     24  C   UNL     1       3.778   1.317  19.186  0.00  0.00    +0.000 A 
ATOM     25  C   UNL     1       4.500   2.216  19.973  0.00  0.00    +0.000 A 
ATOM     26  C   UNL     1       4.357   3.594  19.783  0.00  0.00    +0.000 A 
ENDBRANCH  11  21
TORSDOF 3
ENDMDL
MODEL 7
REMARK VINA RESULT:      -6.8      2.378      6.824
REMARK  Name = 
REMARK  3 active torsions:
REMARK  status: ('A' for Active; 'I' for Inactive)
REMARK    1  A    between atoms: C_10  and  C_11
REMARK    2  A    between atoms: C_14  and  O_15
REMARK    3  A    between atoms: N_18  and  C_19
REMARK                            x       y       z     vdW  Elec       q    Type
REMARK                         _______ _______ _______ _____ _____    ______ ____
ROOT
ATOM      1  O   UNL     1       1.584   5.472  20.147  0.00  0.00    +0.000 OA
ATOM      2  C   UNL     1       2.312   6.076  19.358  0.00  0.00    +0.000 C 
ATOM      3  C   UNL     1       2.092   7.525  19.185  0.00  0.00    +0.000 A 
ATOM      4  C   UNL     1       1.095   8.178  19.925  0.00  0.00    +0.000 A 
ATOM      5  C   UNL     1       0.814   9.518  19.679  0.00  0.00    +0.000 A 
ATOM      6  C   UNL     1       1.522  10.197  18.689  0.00  0.00    +0.000 A 
ATOM      7  C   UNL     1       2.524   9.541  17.965  0.00  0.00    +0.000 A 
ATOM      8  C   UNL     1       2.846   8.205  18.230  0.00  0.00    +0.000 A 
ATOM      9  N   UNL     1       3.774   7.536  17.439  0.00  0.00    +0.000 N 
ATOM     10  C   UNL     1       4.368   6.322  17.995  0.00  0.00    +0.000 C 
ATOM     11  N   UNL     1       3.331   5.488  18.601  0.00  0.00    +0.000 N 
ATOM     12  H   UNL     1       4.459   8.144  17.004  0.00  0.00    +0.000 HD
ENDROOT
BRANCH  10  13
ATOM     13  C   UNL     1       5.136   5.690  16.828  0.00  0.00    +0.000 A 
ATOM     14  C   UNL     1       6.274   4.902  17.067  0.00  0.00    +0.000 A 
ATOM     15  C   UNL     1       7.023   4.377  16.006  0.00  0.00    +0.000 A 
ATOM     16  C   UNL     1       6.626   4.629  14.695  0.00  0.00    +0.000 A 
ATOM     17  C   UNL     1       5.511   5.408  14.431  0.00  0.00    +0.000 A 
ATOM     18  C   UNL     1       4.792   5.962  15.491  0.00  0.00    +0.000 A 
BRANCH  16  19
ATOM     19  O   UNL     1       7.316   4.131  13.628  0.00  0.00    +0.000 OA
ATOM     20  H   UNL     1       7.047   4.615  12.831  0.00  0.00    +0.000 HD
ENDBRANCH  16  19
ENDBRANCH  10  13
BRANCH  11  21
ATOM     21  C   UNL     1       3.550   4.095  18.811  0.00  0.00    +0.000 A 
ATOM     22  C   UNL     1       2.951   3.196  17.916  0.00  0.00    +0.000 A 
ATOM     23  C   UNL     1       3.163   1.825  18.040  0.00  0.00    +0.000 A 
ATOM     24  C   UNL     1       3.938   1.339  19.089  0.00  0.00    +0.000 A 
ATOM     25  C   UNL     1       4.521   2.225  19.997  0.00  0.00    +0.000 A 
ATOM     26  C   UNL     1       4.348   3.605  19.848  0.00  0.00    +0.000 A 
ENDBRANCH  11  21
TORSDOF 3
ENDMDL
MODEL 8
REMARK VINA RESULT:      -6.7      2.187      6.723
REMARK  Name = 
REMARK  3 active torsions:
REMARK  status: ('A' for Active; 'I' for Inactive)
REMARK    1  A    between atoms: C_10  and  C_11
REMARK    2  A    between atoms: C_14  and  O_15
REMARK    3  A    between atoms: N_18  and  C_19
REMARK                            x       y       z     vdW  Elec       q    Type
REMARK                         _______ _______ _______ _____ _____    ______ ____
ROOT
ATOM      1  O   UNL     1       1.785   5.329  20.108  0.00  0.00    +0.000 OA
ATOM      2  C   UNL     1       2.484   5.893  19.265  0.00  0.00    +0.000 C 
ATOM      3  C   UNL     1       2.276   7.338  19.049  0.00  0.00    +0.000 A 
ATOM      4  C   UNL     1       1.322   8.032  19.808  0.00  0.00    +0.000 A 
ATOM      5  C   UNL     1       1.048   9.366  19.525  0.00  0.00    +0.000 A 
ATOM      6  C   UNL     1       1.719   9.998  18.480  0.00  0.00    +0.000 A 
ATOM      7  C   UNL     1       2.677   9.301  17.736  0.00  0.00    +0.000 A 
ATOM      8  C   UNL     1       2.994   7.972  18.036  0.00  0.00    +0.000 A 
ATOM      9  N   UNL     1       3.876   7.260  17.229  0.00  0.00    +0.000 N 
ATOM     10  C   UNL     1       4.479   6.059  17.803  0.00  0.00    +0.000 C 
ATOM     11  N   UNL     1       3.459   5.263  18.485  0.00  0.00    +0.000 N 
ATOM     12  H   UNL     1       4.548   7.842  16.742  0.00  0.00    +0.000 HD
ENDROOT
BRANCH  10  13
ATOM     13  C   UNL     1       5.185   5.373  16.627  0.00  0.00    +0.000 A 
ATOM     14  C   UNL     1       6.580   5.215  16.627  0.00  0.00    +0.000 A 
ATOM     15  C   UNL     1       7.243   4.654  15.528  0.00  0.00    +0.000 A 
ATOM     16  C   UNL     1       6.504   4.232  14.425  0.00  0.00    +0.000 A 
ATOM     17  C   UNL     1       5.127   4.381  14.396  0.00  0.00    +0.000 A 
ATOM     18  C   UNL     1       4.478   4.979  15.476  0.00  0.00    +0.000 A 
BRANCH  16  19
ATOM     19  O   UNL     1       7.102   3.669  13.334  0.00  0.00    +0.000 OA
ATOM     20  H   UNL     1       6.455   3.105  12.882  0.00  0.00    +0.000 HD
ENDBRANCH  16  19
ENDBRANCH  10  13
BRANCH  11  21
ATOM     21  C   UNL     1       3.670   3.875  18.737  0.00  0.00    +0.000 A 
ATOM     22  C   UNL     1       4.531   3.524  19.787  0.00  0.00    +0.000 A 
ATOM     23  C   UNL     1       4.744   2.187  20.112  0.00  0.00    +0.000 A 
ATOM     24  C   UNL     1       4.134   1.188  19.358  0.00  0.00    +0.000 A 
ATOM     25  C   UNL     1       3.292   1.528  18.298  0.00  0.00    +0.000 A 
ATOM     26  C   UNL     1       3.040   2.871  17.998  0.00  0.00    +0.000 A 
ENDBRANCH  11  21
TORSDOF 3
ENDMDL
MODEL 9
REMARK VINA RESULT:      -6.6      9.384     11.692
REMARK  Name = 
REMARK  3 active torsions:
REMARK  status: ('A' for Active; 'I' for Inactive)
REMARK    1  A    between atoms: C_10  and  C_11
REMARK    2  A    between atoms: C_14  and  O_15
REMARK    3  A    between atoms: N_18  and  C_19
REMARK                            x       y       z     vdW  Elec       q    Type
REMARK                         _______ _______ _______ _____ _____    ______ ____
ROOT
ATOM      1  O   UNL     1       2.165  12.859  21.234  0.00  0.00    +0.000 OA
ATOM      2  C   UNL     1       1.232  13.281  20.550  0.00  0.00    +0.000 C 
ATOM      3  C   UNL     1       1.439  14.529  19.791  0.00  0.00    +0.000 A 
ATOM      4  C   UNL     1       2.677  15.185  19.843  0.00  0.00    +0.000 A 
ATOM      5  C   UNL     1       2.835  16.419  19.218  0.00  0.00    +0.000 A 
ATOM      6  C   UNL     1       1.753  16.995  18.556  0.00  0.00    +0.000 A 
ATOM      7  C   UNL     1       0.525  16.327  18.499  0.00  0.00    +0.000 A 
ATOM      8  C   UNL     1       0.364  15.067  19.086  0.00  0.00    +0.000 A 
ATOM      9  N   UNL     1      -0.886  14.458  19.107  0.00  0.00    +0.000 N 
ATOM     10  C   UNL     1      -0.917  13.016  19.344  0.00  0.00    +0.000 C 
ATOM     11  N   UNL     1      -0.021  12.668  20.446  0.00  0.00    +0.000 N 
ATOM     12  H   UNL     1      -1.497  14.745  18.351  0.00  0.00    +0.000 HD
ENDROOT
BRANCH  10  13
ATOM     13  C   UNL     1      -2.400  12.684  19.557  0.00  0.00    +0.000 A 
ATOM     14  C   UNL     1      -3.078  11.843  18.661  0.00  0.00    +0.000 A 
ATOM     15  C   UNL     1      -4.448  11.589  18.807  0.00  0.00    +0.000 A 
ATOM     16  C   UNL     1      -5.144  12.168  19.865  0.00  0.00    +0.000 A 
ATOM     17  C   UNL     1      -4.500  13.006  20.761  0.00  0.00    +0.000 A 
ATOM     18  C   UNL     1      -3.145  13.288  20.586  0.00  0.00    +0.000 A 
BRANCH  16  19
ATOM     19  O   UNL     1      -6.476  11.942  20.056  0.00  0.00    +0.000 OA
ATOM     20  H   UNL     1      -6.979  12.590  19.538  0.00  0.00    +0.000 HD
ENDBRANCH  16  19
ENDBRANCH  10  13
BRANCH  11  21
ATOM     21  C   UNL     1      -0.188  11.444  21.157  0.00  0.00    +0.000 A 
ATOM     22  C   UNL     1       0.144  10.252  20.496  0.00  0.00    +0.000 A 
ATOM     23  C   UNL     1       0.046   9.027  21.150  0.00  0.00    +0.000 A 
ATOM     24  C   UNL     1      -0.429   8.979  22.457  0.00  0.00    +0.000 A 
ATOM     25  C   UNL     1      -0.781  10.158  23.117  0.00  0.00    +0.000 A 
ATOM     26  C   UNL     1      -0.641  11.395  22.477  0.00  0.00    +0.000 A 
ENDBRANCH  11  21
TORSDOF 3
ENDMDL
