MODEL 1
REMARK VINA RESULT:      -6.9      0.000      0.000
REMARK  Name = 
REMARK  7 active torsions:
REMARK  status: ('A' for Active; 'I' for Inactive)
REMARK    1  A    between atoms: C_1  and  O_2
REMARK    2  A    between atoms: O_2  and  C_3
REMARK    3  A    between atoms: C_11  and  C_12
REMARK    4  A    between atoms: N_14  and  C_15
REMARK    5  A    between atoms: C_15  and  C_16
REMARK    6  A    between atoms: C_16  and  C_17
REMARK    7  A    between atoms: C_17  and  C_18
REMARK                            x       y       z     vdW  Elec       q    Type
REMARK                         _______ _______ _______ _____ _____    ______ ____
ROOT
ATOM      1  C   UNL     1       0.963   9.281  19.697  0.00  0.00    +0.000 A 
ATOM      2  C   UNL     1       1.488   9.760  18.503  0.00  0.00    +0.000 A 
ATOM      3  C   UNL     1       2.431   9.014  17.795  0.00  0.00    +0.000 A 
ATOM      4  C   UNL     1       2.845   7.755  18.287  0.00  0.00    +0.000 A 
ATOM      5  C   UNL     1       3.742   6.773  17.789  0.00  0.00    +0.000 A 
ATOM      6  C   UNL     1       4.530   6.750  16.631  0.00  0.00    +0.000 A 
ATOM      7  C   UNL     1       5.282   5.625  16.406  0.00  0.00    +0.000 A 
ATOM      8  N   UNL     1       5.286   4.561  17.220  0.00  0.00    +0.000 NA
ATOM      9  C   UNL     1       4.520   4.530  18.353  0.00  0.00    +0.000 A 
ATOM     10  C   UNL     1       4.657   3.247  19.115  0.00  0.00    +0.000 C 
ATOM     11  C   UNL     1       3.739   5.668  18.660  0.00  0.00    +0.000 A 
ATOM     12  N   UNL     1       2.864   6.011  19.698  0.00  0.00    +0.000 N 
ATOM     13  C   UNL     1       2.303   7.271  19.473  0.00  0.00    +0.000 A 
ATOM     14  C   UNL     1       1.344   8.024  20.191  0.00  0.00    +0.000 A 
ENDROOT
BRANCH   1  16
ATOM     15  C   UNL     1       0.558  11.207  21.001  0.00  0.00    +0.000 C 
ATOM     16  O   UNL     1       0.032  10.098  20.282  0.00  0.00    +0.000 OA
ENDBRANCH   1  16
BRANCH  12  17
ATOM     17  C   UNL     1       2.438   5.158  20.799  0.00  0.00    +0.000 C 
BRANCH  17  18
ATOM     18  C   UNL     1       1.160   4.330  20.618  0.00  0.00    +0.000 C 
BRANCH  18  19
ATOM     19  C   UNL     1       1.325   2.831  20.376  0.00  0.00    +0.000 C 
BRANCH  19  20
ATOM     20  C   UNL     1       0.878   2.392  18.989  0.00  0.00    +0.000 C 
ATOM     21 CL   UNL     1       1.108   3.709  17.817  0.00  0.00    +0.000 Cl
ENDBRANCH  19  20
ENDBRANCH  18  19
ENDBRANCH  17  18
ENDBRANCH  12  17
TORSDOF 5
ENDMDL
MODEL 2
REMARK VINA RESULT:      -6.7      2.393      4.914
REMARK  Name = 
REMARK  7 active torsions:
REMARK  status: ('A' for Active; 'I' for Inactive)
REMARK    1  A    between atoms: C_1  and  O_2
REMARK    2  A    between atoms: O_2  and  C_3
REMARK    3  A    between atoms: C_11  and  C_12
REMARK    4  A    between atoms: N_14  and  C_15
REMARK    5  A    between atoms: C_15  and  C_16
REMARK    6  A    between atoms: C_16  and  C_17
REMARK    7  A    between atoms: C_17  and  C_18
REMARK                            x       y       z     vdW  Elec       q    Type
REMARK                         _______ _______ _______ _____ _____    ______ ____
ROOT
ATOM      1  C   UNL     1       5.032   5.030  17.180  0.00  0.00    +0.000 A 
ATOM      2  C   UNL     1       5.086   6.147  16.356  0.00  0.00    +0.000 A 
ATOM      3  C   UNL     1       4.286   7.259  16.618  0.00  0.00    +0.000 A 
ATOM      4  C   UNL     1       3.424   7.257  17.740  0.00  0.00    +0.000 A 
ATOM      5  C   UNL     1       2.535   8.227  18.273  0.00  0.00    +0.000 A 
ATOM      6  C   UNL     1       2.211   9.518  17.835  0.00  0.00    +0.000 A 
ATOM      7  C   UNL     1       1.323  10.234  18.596  0.00  0.00    +0.000 A 
ATOM      8  N   UNL     1       0.772   9.770  19.727  0.00  0.00    +0.000 NA
ATOM      9  C   UNL     1       1.071   8.524  20.203  0.00  0.00    +0.000 A 
ATOM     10  C   UNL     1       0.363   8.203  21.484  0.00  0.00    +0.000 C 
ATOM     11  C   UNL     1       1.961   7.720  19.453  0.00  0.00    +0.000 A 
ATOM     12  N   UNL     1       2.485   6.429  19.601  0.00  0.00    +0.000 N 
ATOM     13  C   UNL     1       3.388   6.144  18.574  0.00  0.00    +0.000 A 
ATOM     14  C   UNL     1       4.201   5.017  18.311  0.00  0.00    +0.000 A 
ENDROOT
BRANCH   1  16
ATOM     15  C   UNL     1       6.898   4.367  15.894  0.00  0.00    +0.000 C 
ATOM     16  O   UNL     1       5.882   4.015  16.826  0.00  0.00    +0.000 OA
ENDBRANCH   1  16
BRANCH  12  17
ATOM     17  C   UNL     1       2.279   5.527  20.725  0.00  0.00    +0.000 C 
BRANCH  17  18
ATOM     18  C   UNL     1       1.160   4.485  20.619  0.00  0.00    +0.000 C 
BRANCH  18  19
ATOM     19  C   UNL     1       1.558   3.066  20.218  0.00  0.00    +0.000 C 
BRANCH  19  20
ATOM     20  C   UNL     1       0.996   2.642  18.869  0.00  0.00    +0.000 C 
ATOM     21 CL   UNL     1       2.306   2.117  17.787  0.00  0.00    +0.000 Cl
ENDBRANCH  19  20
ENDBRANCH  18  19
ENDBRANCH  17  18
ENDBRANCH  12  17
TORSDOF 5
ENDMDL
MODEL 3
REMARK VINA RESULT:      -6.6      2.945      5.406
REMARK  Name = 
REMARK  7 active torsions:
REMARK  status: ('A' for Active; 'I' for Inactive)
REMARK    1  A    between atoms: C_1  and  O_2
REMARK    2  A    between atoms: O_2  and  C_3
REMARK    3  A    between atoms: C_11  and  C_12
REMARK    4  A    between atoms: N_14  and  C_15
REMARK    5  A    between atoms: C_15  and  C_16
REMARK    6  A    between atoms: C_16  and  C_17
REMARK    7  A    between atoms: C_17  and  C_18
REMARK                            x       y       z     vdW  Elec       q    Type
REMARK                         _______ _______ _______ _____ _____    ______ ____
ROOT
ATOM      1  C   UNL     1       6.746   6.232  16.961  0.00  0.00    +0.000 A 
ATOM      2  C   UNL     1       6.785   5.039  16.250  0.00  0.00    +0.000 A 
ATOM      3  C   UNL     1       5.843   4.039  16.491  0.00  0.00    +0.000 A 
ATOM      4  C   UNL     1       4.830   4.246  17.456  0.00  0.00    +0.000 A 
ATOM      5  C   UNL     1       3.737   3.450  17.891  0.00  0.00    +0.000 A 
ATOM      6  C   UNL     1       3.319   2.170  17.504  0.00  0.00    +0.000 A 
ATOM      7  C   UNL     1       2.186   1.674  18.096  0.00  0.00    +0.000 A 
ATOM      8  N   UNL     1       1.466   2.350  19.003  0.00  0.00    +0.000 NA
ATOM      9  C   UNL     1       1.825   3.608  19.400  0.00  0.00    +0.000 A 
ATOM     10  C   UNL     1       0.883   4.194  20.407  0.00  0.00    +0.000 C 
ATOM     11  C   UNL     1       2.999   4.172  18.847  0.00  0.00    +0.000 A 
ATOM     12  N   UNL     1       3.677   5.387  19.006  0.00  0.00    +0.000 N 
ATOM     13  C   UNL     1       4.782   5.449  18.153  0.00  0.00    +0.000 A 
ATOM     14  C   UNL     1       5.735   6.465  17.907  0.00  0.00    +0.000 A 
ENDROOT
BRANCH   1  16
ATOM     15  C   UNL     1       7.894   8.216  17.526  0.00  0.00    +0.000 C 
ATOM     16  O   UNL     1       7.713   7.138  16.615  0.00  0.00    +0.000 OA
ENDBRANCH   1  16
BRANCH  12  17
ATOM     17  C   UNL     1       3.254   6.525  19.809  0.00  0.00    +0.000 C 
BRANCH  17  18
ATOM     18  C   UNL     1       2.167   7.446  19.243  0.00  0.00    +0.000 C 
BRANCH  18  19
ATOM     19  C   UNL     1       2.465   8.149  17.920  0.00  0.00    +0.000 C 
BRANCH  19  20
ATOM     20  C   UNL     1       1.899   9.560  17.847  0.00  0.00    +0.000 C 
ATOM     21 CL   UNL     1       0.536   9.741  18.974  0.00  0.00    +0.000 Cl
ENDBRANCH  19  20
ENDBRANCH  18  19
ENDBRANCH  17  18
ENDBRANCH  12  17
TORSDOF 5
ENDMDL
MODEL 4
REMARK VINA RESULT:      -6.5      2.285      4.329
REMARK  Name = 
REMARK  7 active torsions:
REMARK  status: ('A' for Active; 'I' for Inactive)
REMARK    1  A    between atoms: C_1  and  O_2
REMARK    2  A    between atoms: O_2  and  C_3
REMARK    3  A    between atoms: C_11  and  C_12
REMARK    4  A    between atoms: N_14  and  C_15
REMARK    5  A    between atoms: C_15  and  C_16
REMARK    6  A    between atoms: C_16  and  C_17
REMARK    7  A    between atoms: C_17  and  C_18
REMARK                            x       y       z     vdW  Elec       q    Type
REMARK                         _______ _______ _______ _____ _____    ______ ____
ROOT
ATOM      1  C   UNL     1       2.302   8.462  18.199  0.00  0.00    +0.000 A 
ATOM      2  C   UNL     1       1.855   8.470  19.514  0.00  0.00    +0.000 A 
ATOM      3  C   UNL     1       1.819   7.289  20.257  0.00  0.00    +0.000 A 
ATOM      4  C   UNL     1       2.254   6.077  19.672  0.00  0.00    +0.000 A 
ATOM      5  C   UNL     1       2.365   4.752  20.170  0.00  0.00    +0.000 A 
ATOM      6  C   UNL     1       2.053   4.212  21.425  0.00  0.00    +0.000 A 
ATOM      7  C   UNL     1       2.305   2.877  21.613  0.00  0.00    +0.000 A 
ATOM      8  N   UNL     1       2.840   2.083  20.674  0.00  0.00    +0.000 NA
ATOM      9  C   UNL     1       3.175   2.568  19.441  0.00  0.00    +0.000 A 
ATOM     10  C   UNL     1       3.770   1.525  18.545  0.00  0.00    +0.000 C 
ATOM     11  C   UNL     1       2.918   3.933  19.169  0.00  0.00    +0.000 A 
ATOM     12  N   UNL     1       3.105   4.768  18.060  0.00  0.00    +0.000 N 
ATOM     13  C   UNL     1       2.719   6.077  18.360  0.00  0.00    +0.000 A 
ATOM     14  C   UNL     1       2.759   7.274  17.608  0.00  0.00    +0.000 A 
ENDROOT
BRANCH   1  16
ATOM     15  C   UNL     1       1.647  10.728  18.301  0.00  0.00    +0.000 C 
ATOM     16  O   UNL     1       2.308   9.689  17.589  0.00  0.00    +0.000 OA
ENDBRANCH   1  16
BRANCH  12  17
ATOM     17  C   UNL     1       3.748   4.419  16.802  0.00  0.00    +0.000 C 
BRANCH  17  18
ATOM     18  C   UNL     1       5.259   4.642  16.677  0.00  0.00    +0.000 C 
BRANCH  18  19
ATOM     19  C   UNL     1       5.750   5.468  15.490  0.00  0.00    +0.000 C 
BRANCH  19  20
ATOM     20  C   UNL     1       6.803   4.755  14.654  0.00  0.00    +0.000 C 
ATOM     21 CL   UNL     1       6.030   3.751  13.406  0.00  0.00    +0.000 Cl
ENDBRANCH  19  20
ENDBRANCH  18  19
ENDBRANCH  17  18
ENDBRANCH  12  17
TORSDOF 5
ENDMDL
MODEL 5
REMARK VINA RESULT:      -6.5      2.742      5.102
REMARK  Name = 
REMARK  7 active torsions:
REMARK  status: ('A' for Active; 'I' for Inactive)
REMARK    1  A    between atoms: C_1  and  O_2
REMARK    2  A    between atoms: O_2  and  C_3
REMARK    3  A    between atoms: C_11  and  C_12
REMARK    4  A    between atoms: N_14  and  C_15
REMARK    5  A    between atoms: C_15  and  C_16
REMARK    6  A    between atoms: C_16  and  C_17
REMARK    7  A    between atoms: C_17  and  C_18
REMARK                            x       y       z     vdW  Elec       q    Type
REMARK                         _______ _______ _______ _____ _____    ______ ____
ROOT
ATOM      1  C   UNL     1       6.035   5.232  15.799  0.00  0.00    +0.000 A 
ATOM      2  C   UNL     1       5.524   6.521  15.721  0.00  0.00    +0.000 A 
ATOM      3  C   UNL     1       4.578   6.964  16.646  0.00  0.00    +0.000 A 
ATOM      4  C   UNL     1       4.148   6.102  17.681  0.00  0.00    +0.000 A 
ATOM      5  C   UNL     1       3.245   6.272  18.764  0.00  0.00    +0.000 A 
ATOM      6  C   UNL     1       2.464   7.370  19.147  0.00  0.00    +0.000 A 
ATOM      7  C   UNL     1       1.703   7.234  20.280  0.00  0.00    +0.000 A 
ATOM      8  N   UNL     1       1.683   6.124  21.031  0.00  0.00    +0.000 NA
ATOM      9  C   UNL     1       2.440   5.033  20.706  0.00  0.00    +0.000 A 
ATOM     10  C   UNL     1       2.286   3.905  21.680  0.00  0.00    +0.000 C 
ATOM     11  C   UNL     1       3.231   5.096  19.535  0.00  0.00    +0.000 A 
ATOM     12  N   UNL     1       4.102   4.211  18.887  0.00  0.00    +0.000 N 
ATOM     13  C   UNL     1       4.677   4.818  17.767  0.00  0.00    +0.000 A 
ATOM     14  C   UNL     1       5.638   4.368  16.832  0.00  0.00    +0.000 A 
ENDROOT
BRANCH   1  16
ATOM     15  C   UNL     1       6.531   4.047  13.818  0.00  0.00    +0.000 C 
ATOM     16  O   UNL     1       6.971   4.927  14.846  0.00  0.00    +0.000 OA
ENDBRANCH   1  16
BRANCH  12  17
ATOM     17  C   UNL     1       4.512   2.893  19.350  0.00  0.00    +0.000 C 
BRANCH  17  18
ATOM     18  C   UNL     1       3.639   1.691  18.973  0.00  0.00    +0.000 C 
BRANCH  18  19
ATOM     19  C   UNL     1       2.619   1.889  17.854  0.00  0.00    +0.000 C 
BRANCH  19  20
ATOM     20  C   UNL     1       1.276   2.408  18.349  0.00  0.00    +0.000 C 
ATOM     21 CL   UNL     1       0.877   3.951  17.562  0.00  0.00    +0.000 Cl
ENDBRANCH  19  20
ENDBRANCH  18  19
ENDBRANCH  17  18
ENDBRANCH  12  17
TORSDOF 5
ENDMDL
MODEL 6
REMARK VINA RESULT:      -6.5      2.407      4.219
REMARK  Name = 
REMARK  7 active torsions:
REMARK  status: ('A' for Active; 'I' for Inactive)
REMARK    1  A    between atoms: C_1  and  O_2
REMARK    2  A    between atoms: O_2  and  C_3
REMARK    3  A    between atoms: C_11  and  C_12
REMARK    4  A    between atoms: N_14  and  C_15
REMARK    5  A    between atoms: C_15  and  C_16
REMARK    6  A    between atoms: C_16  and  C_17
REMARK    7  A    between atoms: C_17  and  C_18
REMARK                            x       y       z     vdW  Elec       q    Type
REMARK                         _______ _______ _______ _____ _____    ______ ____
ROOT
ATOM      1  C   UNL     1       2.301   8.517  18.164  0.00  0.00    +0.000 A 
ATOM      2  C   UNL     1       1.827   8.532  19.470  0.00  0.00    +0.000 A 
ATOM      3  C   UNL     1       1.793   7.359  20.224  0.00  0.00    +0.000 A 
ATOM      4  C   UNL     1       2.256   6.147  19.662  0.00  0.00    +0.000 A 
ATOM      5  C   UNL     1       2.375   4.829  20.176  0.00  0.00    +0.000 A 
ATOM      6  C   UNL     1       2.046   4.298  21.431  0.00  0.00    +0.000 A 
ATOM      7  C   UNL     1       2.313   2.969  21.639  0.00  0.00    +0.000 A 
ATOM      8  N   UNL     1       2.877   2.173  20.719  0.00  0.00    +0.000 NA
ATOM      9  C   UNL     1       3.230   2.649  19.487  0.00  0.00    +0.000 A 
ATOM     10  C   UNL     1       3.857   1.605  18.615  0.00  0.00    +0.000 C 
ATOM     11  C   UNL     1       2.960   4.007  19.196  0.00  0.00    +0.000 A 
ATOM     12  N   UNL     1       3.157   4.833  18.082  0.00  0.00    +0.000 N 
ATOM     13  C   UNL     1       2.747   6.140  18.360  0.00  0.00    +0.000 A 
ATOM     14  C   UNL     1       2.786   7.329  17.595  0.00  0.00    +0.000 A 
ENDROOT
BRANCH   1  16
ATOM     15  C   UNL     1       1.843  10.827  18.332  0.00  0.00    +0.000 C 
ATOM     16  O   UNL     1       2.302   9.737  17.541  0.00  0.00    +0.000 OA
ENDBRANCH   1  16
BRANCH  12  17
ATOM     17  C   UNL     1       3.830   4.479  16.841  0.00  0.00    +0.000 C 
BRANCH  17  18
ATOM     18  C   UNL     1       5.362   4.522  16.812  0.00  0.00    +0.000 C 
BRANCH  18  19
ATOM     19  C   UNL     1       6.084   4.656  18.151  0.00  0.00    +0.000 C 
BRANCH  19  20
ATOM     20  C   UNL     1       7.548   5.050  18.009  0.00  0.00    +0.000 C 
ATOM     21 CL   UNL     1       7.742   6.804  18.222  0.00  0.00    +0.000 Cl
ENDBRANCH  19  20
ENDBRANCH  18  19
ENDBRANCH  17  18
ENDBRANCH  12  17
TORSDOF 5
ENDMDL
MODEL 7
REMARK VINA RESULT:      -6.4      2.567      4.976
REMARK  Name = 
REMARK  7 active torsions:
REMARK  status: ('A' for Active; 'I' for Inactive)
REMARK    1  A    between atoms: C_1  and  O_2
REMARK    2  A    between atoms: O_2  and  C_3
REMARK    3  A    between atoms: C_11  and  C_12
REMARK    4  A    between atoms: N_14  and  C_15
REMARK    5  A    between atoms: C_15  and  C_16
REMARK    6  A    between atoms: C_16  and  C_17
REMARK    7  A    between atoms: C_17  and  C_18
REMARK                            x       y       z     vdW  Elec       q    Type
REMARK                         _______ _______ _______ _____ _____    ______ ____
ROOT
ATOM      1  C   UNL     1       5.066   5.239  17.107  0.00  0.00    +0.000 A 
ATOM      2  C   UNL     1       5.095   6.357  16.283  0.00  0.00    +0.000 A 
ATOM      3  C   UNL     1       4.274   7.454  16.551  0.00  0.00    +0.000 A 
ATOM      4  C   UNL     1       3.419   7.434  17.676  0.00  0.00    +0.000 A 
ATOM      5  C   UNL     1       2.513   8.386  18.215  0.00  0.00    +0.000 A 
ATOM      6  C   UNL     1       2.163   9.671  17.780  0.00  0.00    +0.000 A 
ATOM      7  C   UNL     1       1.265  10.370  18.546  0.00  0.00    +0.000 A 
ATOM      8  N   UNL     1       0.728   9.894  19.679  0.00  0.00    +0.000 NA
ATOM      9  C   UNL     1       1.053   8.653  20.152  0.00  0.00    +0.000 A 
ATOM     10  C   UNL     1       0.357   8.317  21.436  0.00  0.00    +0.000 C 
ATOM     11  C   UNL     1       1.955   7.867  19.397  0.00  0.00    +0.000 A 
ATOM     12  N   UNL     1       2.504   6.587  19.541  0.00  0.00    +0.000 N 
ATOM     13  C   UNL     1       3.407   6.320  18.509  0.00  0.00    +0.000 A 
ATOM     14  C   UNL     1       4.241   5.209  18.241  0.00  0.00    +0.000 A 
ENDROOT
BRANCH   1  16
ATOM     15  C   UNL     1       7.305   4.490  17.037  0.00  0.00    +0.000 C 
ATOM     16  O   UNL     1       5.934   4.241  16.748  0.00  0.00    +0.000 OA
ENDBRANCH   1  16
BRANCH  12  17
ATOM     17  C   UNL     1       2.321   5.679  20.665  0.00  0.00    +0.000 C 
BRANCH  17  18
ATOM     18  C   UNL     1       1.129   4.716  20.629  0.00  0.00    +0.000 C 
BRANCH  18  19
ATOM     19  C   UNL     1       1.135   3.633  19.553  0.00  0.00    +0.000 C 
BRANCH  19  20
ATOM     20  C   UNL     1       1.612   2.280  20.062  0.00  0.00    +0.000 C 
ATOM     21 CL   UNL     1       1.876   2.336  21.819  0.00  0.00    +0.000 Cl
ENDBRANCH  19  20
ENDBRANCH  18  19
ENDBRANCH  17  18
ENDBRANCH  12  17
TORSDOF 5
ENDMDL
MODEL 8
REMARK VINA RESULT:      -6.4      1.053      1.071
REMARK  Name = 
REMARK  7 active torsions:
REMARK  status: ('A' for Active; 'I' for Inactive)
REMARK    1  A    between atoms: C_1  and  O_2
REMARK    2  A    between atoms: O_2  and  C_3
REMARK    3  A    between atoms: C_11  and  C_12
REMARK    4  A    between atoms: N_14  and  C_15
REMARK    5  A    between atoms: C_15  and  C_16
REMARK    6  A    between atoms: C_16  and  C_17
REMARK    7  A    between atoms: C_17  and  C_18
REMARK                            x       y       z     vdW  Elec       q    Type
REMARK                         _______ _______ _______ _____ _____    ______ ____
ROOT
ATOM      1  C   UNL     1       0.881   9.511  19.621  0.00  0.00    +0.000 A 
ATOM      2  C   UNL     1       1.361   9.999  18.412  0.00  0.00    +0.000 A 
ATOM      3  C   UNL     1       2.305   9.275  17.682  0.00  0.00    +0.000 A 
ATOM      4  C   UNL     1       2.764   8.028  18.166  0.00  0.00    +0.000 A 
ATOM      5  C   UNL     1       3.673   7.068  17.647  0.00  0.00    +0.000 A 
ATOM      6  C   UNL     1       4.431   7.062  16.469  0.00  0.00    +0.000 A 
ATOM      7  C   UNL     1       5.206   5.956  16.227  0.00  0.00    +0.000 A 
ATOM      8  N   UNL     1       5.259   4.895  17.045  0.00  0.00    +0.000 NA
ATOM      9  C   UNL     1       4.524   4.848  18.197  0.00  0.00    +0.000 A 
ATOM     10  C   UNL     1       4.714   3.572  18.959  0.00  0.00    +0.000 C 
ATOM     11  C   UNL     1       3.721   5.967  18.521  0.00  0.00    +0.000 A 
ATOM     12  N   UNL     1       2.866   6.290  19.581  0.00  0.00    +0.000 N 
ATOM     13  C   UNL     1       2.266   7.535  19.368  0.00  0.00    +0.000 A 
ATOM     14  C   UNL     1       1.308   8.266  20.108  0.00  0.00    +0.000 A 
ENDROOT
BRANCH   1  16
ATOM     15  C   UNL     1       0.143  11.707  20.077  0.00  0.00    +0.000 C 
ATOM     16  O   UNL     1      -0.056  10.305  20.227  0.00  0.00    +0.000 OA
ENDBRANCH   1  16
BRANCH  12  17
ATOM     17  C   UNL     1       2.491   5.431  20.695  0.00  0.00    +0.000 C 
BRANCH  17  18
ATOM     18  C   UNL     1       1.164   4.669  20.605  0.00  0.00    +0.000 C 
BRANCH  18  19
ATOM     19  C   UNL     1       1.048   3.586  19.535  0.00  0.00    +0.000 C 
BRANCH  19  20
ATOM     20  C   UNL     1       1.495   2.213  20.018  0.00  0.00    +0.000 C 
ATOM     21 CL   UNL     1       1.809   2.242  21.767  0.00  0.00    +0.000 Cl
ENDBRANCH  19  20
ENDBRANCH  18  19
ENDBRANCH  17  18
ENDBRANCH  12  17
TORSDOF 5
ENDMDL
MODEL 9
REMARK VINA RESULT:      -6.3      2.075      3.976
REMARK  Name = 
REMARK  7 active torsions:
REMARK  status: ('A' for Active; 'I' for Inactive)
REMARK    1  A    between atoms: C_1  and  O_2
REMARK    2  A    between atoms: O_2  and  C_3
REMARK    3  A    between atoms: C_11  and  C_12
REMARK    4  A    between atoms: N_14  and  C_15
REMARK    5  A    between atoms: C_15  and  C_16
REMARK    6  A    between atoms: C_16  and  C_17
REMARK    7  A    between atoms: C_17  and  C_18
REMARK                            x       y       z     vdW  Elec       q    Type
REMARK                         _______ _______ _______ _____ _____    ______ ____
ROOT
ATOM      1  C   UNL     1       1.647   8.960  19.284  0.00  0.00    +0.000 A 
ATOM      2  C   UNL     1       1.120   8.583  20.513  0.00  0.00    +0.000 A 
ATOM      3  C   UNL     1       1.269   7.275  20.975  0.00  0.00    +0.000 A 
ATOM      4  C   UNL     1       1.975   6.329  20.195  0.00  0.00    +0.000 A 
ATOM      5  C   UNL     1       2.313   4.966  20.407  0.00  0.00    +0.000 A 
ATOM      6  C   UNL     1       2.032   4.103  21.474  0.00  0.00    +0.000 A 
ATOM      7  C   UNL     1       2.531   2.828  21.398  0.00  0.00    +0.000 A 
ATOM      8  N   UNL     1       3.274   2.382  20.375  0.00  0.00    +0.000 NA
ATOM      9  C   UNL     1       3.589   3.192  19.320  0.00  0.00    +0.000 A 
ATOM     10  C   UNL     1       4.437   2.508  18.292  0.00  0.00    +0.000 C 
ATOM     11  C   UNL     1       3.084   4.514  19.321  0.00  0.00    +0.000 A 
ATOM     12  N   UNL     1       3.175   5.603  18.444  0.00  0.00    +0.000 N 
ATOM     13  C   UNL     1       2.518   6.717  18.974  0.00  0.00    +0.000 A 
ATOM     14  C   UNL     1       2.370   8.043  18.505  0.00  0.00    +0.000 A 
ENDROOT
BRANCH   1  16
ATOM     15  C   UNL     1       0.090  10.681  18.848  0.00  0.00    +0.000 C 
ATOM     16  O   UNL     1       1.450  10.276  18.956  0.00  0.00    +0.000 OA
ENDBRANCH   1  16
BRANCH  12  17
ATOM     17  C   UNL     1       3.958   5.676  17.219  0.00  0.00    +0.000 C 
BRANCH  17  18
ATOM     18  C   UNL     1       5.371   6.263  17.299  0.00  0.00    +0.000 C 
BRANCH  18  19
ATOM     19  C   UNL     1       6.316   5.677  18.346  0.00  0.00    +0.000 C 
BRANCH  19  20
ATOM     20  C   UNL     1       7.382   4.766  17.753  0.00  0.00    +0.000 C 
ATOM     21 CL   UNL     1       7.109   4.544  16.010  0.00  0.00    +0.000 Cl
ENDBRANCH  19  20
ENDBRANCH  18  19
ENDBRANCH  17  18
ENDBRANCH  12  17
TORSDOF 5
ENDMDL
