MODEL 1
REMARK VINA RESULT:      -7.5      0.000      0.000
REMARK  Name = 
REMARK  7 active torsions:
REMARK  status: ('A' for Active; 'I' for Inactive)
REMARK    1  A    between atoms: C_1  and  C_2
REMARK    2  A    between atoms: C_4  and  C_5
REMARK    3  A    between atoms: N_8  and  C_9
REMARK    4  A    between atoms: C_9  and  C_10
REMARK    5  A    between atoms: C_9  and  C_11
REMARK    6  A    between atoms: N_13  and  C_14
REMARK    7  A    between atoms: C_14  and  C_15
REMARK                            x       y       z     vdW  Elec       q    Type
REMARK                         _______ _______ _______ _____ _____    ______ ____
ROOT
ATOM      1  C   UNL     1       6.528   4.039  13.445  0.00  0.00    +0.000 C 
ATOM      2  C   UNL     1       6.149   4.455  14.811  0.00  0.00    +0.000 A 
ATOM      3  N   UNL     1       5.400   3.677  15.657  0.00  0.00    +0.000 NA
ATOM      4  C   UNL     1       5.212   4.449  16.705  0.00  0.00    +0.000 A 
ATOM      5  N   UNL     1       5.954   5.594  16.543  0.00  0.00    +0.000 N 
ATOM      6  N   UNL     1       6.509   5.642  15.316  0.00  0.00    +0.000 NA
ENDROOT
BRANCH   4   7
ATOM      7  C   UNL     1       4.370   4.102  17.876  0.00  0.00    +0.000 A 
ATOM      8  C   UNL     1       4.782   3.564  19.105  0.00  0.00    +0.000 A 
ATOM      9  N   UNL     1       3.752   3.358  19.933  0.00  0.00    +0.000 NA
ATOM     10  N   UNL     1       2.673   3.696  19.198  0.00  0.00    +0.000 N 
ATOM     11  C   UNL     1       3.001   4.195  17.966  0.00  0.00    +0.000 A 
BRANCH  10  12
ATOM     12  C   UNL     1       1.324   3.438  19.694  0.00  0.00    +0.000 C 
ATOM     13  C   UNL     1       0.615   2.388  18.839  0.00  0.00    +0.000 C 
ATOM     14  C   UNL     1       1.321   3.050  21.171  0.00  0.00    +0.000 C 
ENDBRANCH  10  12
ENDBRANCH   4   7
BRANCH   5  15
ATOM     15  C   UNL     1       6.327   6.572  17.525  0.00  0.00    +0.000 C 
BRANCH  15  16
ATOM     16  C   UNL     1       7.434   6.089  18.435  0.00  0.00    +0.000 C 
ATOM     17  F   UNL     1       7.034   5.783  19.684  0.00  0.00    +0.000 F 
ATOM     18  F   UNL     1       8.022   4.984  17.920  0.00  0.00    +0.000 F 
ATOM     19  F   UNL     1       8.401   7.033  18.540  0.00  0.00    +0.000 F 
ENDBRANCH  15  16
ENDBRANCH   5  15
TORSDOF 4
ENDMDL
MODEL 2
REMARK VINA RESULT:      -7.4      0.935      1.606
REMARK  Name = 
REMARK  7 active torsions:
REMARK  status: ('A' for Active; 'I' for Inactive)
REMARK    1  A    between atoms: C_1  and  C_2
REMARK    2  A    between atoms: C_4  and  C_5
REMARK    3  A    between atoms: N_8  and  C_9
REMARK    4  A    between atoms: C_9  and  C_10
REMARK    5  A    between atoms: C_9  and  C_11
REMARK    6  A    between atoms: N_13  and  C_14
REMARK    7  A    between atoms: C_14  and  C_15
REMARK                            x       y       z     vdW  Elec       q    Type
REMARK                         _______ _______ _______ _____ _____    ______ ____
ROOT
ATOM      1  C   UNL     1       6.936   4.137  13.119  0.00  0.00    +0.000 C 
ATOM      2  C   UNL     1       6.509   4.623  14.448  0.00  0.00    +0.000 A 
ATOM      3  N   UNL     1       5.414   4.133  15.115  0.00  0.00    +0.000 NA
ATOM      4  C   UNL     1       5.336   4.893  16.185  0.00  0.00    +0.000 A 
ATOM      5  N   UNL     1       6.440   5.710  16.222  0.00  0.00    +0.000 N 
ATOM      6  N   UNL     1       7.166   5.594  15.093  0.00  0.00    +0.000 NA
ENDROOT
BRANCH   4   7
ATOM      7  C   UNL     1       4.250   4.830  17.194  0.00  0.00    +0.000 A 
ATOM      8  C   UNL     1       3.550   5.899  17.775  0.00  0.00    +0.000 A 
ATOM      9  N   UNL     1       2.643   5.481  18.664  0.00  0.00    +0.000 NA
ATOM     10  N   UNL     1       2.820   4.145  18.703  0.00  0.00    +0.000 N 
ATOM     11  C   UNL     1       3.748   3.702  17.798  0.00  0.00    +0.000 A 
BRANCH  10  12
ATOM     12  C   UNL     1       2.130   3.332  19.701  0.00  0.00    +0.000 C 
ATOM     13  C   UNL     1       0.992   4.113  20.356  0.00  0.00    +0.000 C 
ATOM     14  C   UNL     1       1.638   2.008  19.119  0.00  0.00    +0.000 C 
ENDBRANCH  10  12
ENDBRANCH   4   7
BRANCH   5  15
ATOM     15  C   UNL     1       6.962   6.470  17.323  0.00  0.00    +0.000 C 
BRANCH  15  16
ATOM     16  C   UNL     1       7.539   5.593  18.411  0.00  0.00    +0.000 C 
ATOM     17  F   UNL     1       8.075   4.438  17.970  0.00  0.00    +0.000 F 
ATOM     18  F   UNL     1       8.509   6.252  19.087  0.00  0.00    +0.000 F 
ATOM     19  F   UNL     1       6.581   5.273  19.315  0.00  0.00    +0.000 F 
ENDBRANCH  15  16
ENDBRANCH   5  15
TORSDOF 4
ENDMDL
MODEL 3
REMARK VINA RESULT:      -7.4      1.303      1.629
REMARK  Name = 
REMARK  7 active torsions:
REMARK  status: ('A' for Active; 'I' for Inactive)
REMARK    1  A    between atoms: C_1  and  C_2
REMARK    2  A    between atoms: C_4  and  C_5
REMARK    3  A    between atoms: N_8  and  C_9
REMARK    4  A    between atoms: C_9  and  C_10
REMARK    5  A    between atoms: C_9  and  C_11
REMARK    6  A    between atoms: N_13  and  C_14
REMARK    7  A    between atoms: C_14  and  C_15
REMARK                            x       y       z     vdW  Elec       q    Type
REMARK                         _______ _______ _______ _____ _____    ______ ____
ROOT
ATOM      1  C   UNL     1       7.125   4.629  13.026  0.00  0.00    +0.000 C 
ATOM      2  C   UNL     1       6.674   4.639  14.433  0.00  0.00    +0.000 A 
ATOM      3  N   UNL     1       5.357   4.539  14.805  0.00  0.00    +0.000 NA
ATOM      4  C   UNL     1       5.389   4.689  16.110  0.00  0.00    +0.000 A 
ATOM      5  N   UNL     1       6.702   4.729  16.513  0.00  0.00    +0.000 N 
ATOM      6  N   UNL     1       7.533   4.759  15.452  0.00  0.00    +0.000 NA
ENDROOT
BRANCH   4   7
ATOM      7  C   UNL     1       4.195   4.758  16.987  0.00  0.00    +0.000 A 
ATOM      8  C   UNL     1       3.702   5.870  17.687  0.00  0.00    +0.000 A 
ATOM      9  N   UNL     1       2.610   5.571  18.399  0.00  0.00    +0.000 NA
ATOM     10  N   UNL     1       2.452   4.246  18.209  0.00  0.00    +0.000 N 
ATOM     11  C   UNL     1       3.358   3.721  17.327  0.00  0.00    +0.000 A 
BRANCH  10  12
ATOM     12  C   UNL     1       1.458   3.498  18.974  0.00  0.00    +0.000 C 
ATOM     13  C   UNL     1       1.868   2.034  19.125  0.00  0.00    +0.000 C 
ATOM     14  C   UNL     1       1.174   4.143  20.329  0.00  0.00    +0.000 C 
ENDBRANCH  10  12
ENDBRANCH   4   7
BRANCH   5  15
ATOM     15  C   UNL     1       7.246   4.563  17.831  0.00  0.00    +0.000 C 
BRANCH  15  16
ATOM     16  C   UNL     1       7.237   5.847  18.629  0.00  0.00    +0.000 C 
ATOM     17  F   UNL     1       8.416   6.154  19.204  0.00  0.00    +0.000 F 
ATOM     18  F   UNL     1       6.892   6.893  17.840  0.00  0.00    +0.000 F 
ATOM     19  F   UNL     1       6.311   5.781  19.617  0.00  0.00    +0.000 F 
ENDBRANCH  15  16
ENDBRANCH   5  15
TORSDOF 4
ENDMDL
MODEL 4
REMARK VINA RESULT:      -7.3      1.189      1.580
REMARK  Name = 
REMARK  7 active torsions:
REMARK  status: ('A' for Active; 'I' for Inactive)
REMARK    1  A    between atoms: C_1  and  C_2
REMARK    2  A    between atoms: C_4  and  C_5
REMARK    3  A    between atoms: N_8  and  C_9
REMARK    4  A    between atoms: C_9  and  C_10
REMARK    5  A    between atoms: C_9  and  C_11
REMARK    6  A    between atoms: N_13  and  C_14
REMARK    7  A    between atoms: C_14  and  C_15
REMARK                            x       y       z     vdW  Elec       q    Type
REMARK                         _______ _______ _______ _____ _____    ______ ____
ROOT
ATOM      1  C   UNL     1       7.017   4.513  13.073  0.00  0.00    +0.000 C 
ATOM      2  C   UNL     1       6.669   4.534  14.508  0.00  0.00    +0.000 A 
ATOM      3  N   UNL     1       5.397   4.328  14.981  0.00  0.00    +0.000 NA
ATOM      4  C   UNL     1       5.509   4.528  16.275  0.00  0.00    +0.000 A 
ATOM      5  N   UNL     1       6.838   4.701  16.577  0.00  0.00    +0.000 N 
ATOM      6  N   UNL     1       7.584   4.767  15.457  0.00  0.00    +0.000 NA
ENDROOT
BRANCH   4   7
ATOM      7  C   UNL     1       4.379   4.521  17.237  0.00  0.00    +0.000 A 
ATOM      8  C   UNL     1       3.613   5.612  17.676  0.00  0.00    +0.000 A 
ATOM      9  N   UNL     1       2.681   5.246  18.562  0.00  0.00    +0.000 NA
ATOM     10  N   UNL     1       2.906   3.930  18.744  0.00  0.00    +0.000 N 
ATOM     11  C   UNL     1       3.891   3.438  17.929  0.00  0.00    +0.000 A 
BRANCH  10  12
ATOM     12  C   UNL     1       2.200   3.191  19.787  0.00  0.00    +0.000 C 
ATOM     13  C   UNL     1       3.165   2.705  20.867  0.00  0.00    +0.000 C 
ATOM     14  C   UNL     1       1.052   4.001  20.386  0.00  0.00    +0.000 C 
ENDBRANCH  10  12
ENDBRANCH   4   7
BRANCH   5  15
ATOM     15  C   UNL     1       7.488   4.633  17.856  0.00  0.00    +0.000 C 
BRANCH  15  16
ATOM     16  C   UNL     1       7.285   5.885  18.678  0.00  0.00    +0.000 C 
ATOM     17  F   UNL     1       6.412   5.749  19.694  0.00  0.00    +0.000 F 
ATOM     18  F   UNL     1       8.460   6.298  19.211  0.00  0.00    +0.000 F 
ATOM     19  F   UNL     1       6.837   6.895  17.892  0.00  0.00    +0.000 F 
ENDBRANCH  15  16
ENDBRANCH   5  15
TORSDOF 4
ENDMDL
MODEL 5
REMARK VINA RESULT:      -7.3      1.246      1.460
REMARK  Name = 
REMARK  7 active torsions:
REMARK  status: ('A' for Active; 'I' for Inactive)
REMARK    1  A    between atoms: C_1  and  C_2
REMARK    2  A    between atoms: C_4  and  C_5
REMARK    3  A    between atoms: N_8  and  C_9
REMARK    4  A    between atoms: C_9  and  C_10
REMARK    5  A    between atoms: C_9  and  C_11
REMARK    6  A    between atoms: N_13  and  C_14
REMARK    7  A    between atoms: C_14  and  C_15
REMARK                            x       y       z     vdW  Elec       q    Type
REMARK                         _______ _______ _______ _____ _____    ______ ____
ROOT
ATOM      1  C   UNL     1       6.819   4.149  13.369  0.00  0.00    +0.000 C 
ATOM      2  C   UNL     1       6.430   4.742  14.665  0.00  0.00    +0.000 A 
ATOM      3  N   UNL     1       5.228   4.495  15.279  0.00  0.00    +0.000 NA
ATOM      4  C   UNL     1       5.248   5.282  16.331  0.00  0.00    +0.000 A 
ATOM      5  N   UNL     1       6.488   5.868  16.416  0.00  0.00    +0.000 N 
ATOM      6  N   UNL     1       7.233   5.582  15.330  0.00  0.00    +0.000 NA
ENDROOT
BRANCH   4   7
ATOM      7  C   UNL     1       4.121   5.460  17.280  0.00  0.00    +0.000 A 
ATOM      8  C   UNL     1       3.642   6.658  17.834  0.00  0.00    +0.000 A 
ATOM      9  N   UNL     1       2.618   6.449  18.669  0.00  0.00    +0.000 NA
ATOM     10  N   UNL     1       2.496   5.107  18.703  0.00  0.00    +0.000 N 
ATOM     11  C   UNL     1       3.352   4.471  17.844  0.00  0.00    +0.000 A 
BRANCH  10  12
ATOM     12  C   UNL     1       1.591   4.466  19.653  0.00  0.00    +0.000 C 
ATOM     13  C   UNL     1       1.167   3.082  19.162  0.00  0.00    +0.000 C 
ATOM     14  C   UNL     1       2.186   4.403  21.058  0.00  0.00    +0.000 C 
ENDBRANCH  10  12
ENDBRANCH   4   7
BRANCH   5  15
ATOM     15  C   UNL     1       7.093   6.538  17.532  0.00  0.00    +0.000 C 
BRANCH  15  16
ATOM     16  C   UNL     1       7.503   5.582  18.630  0.00  0.00    +0.000 C 
ATOM     17  F   UNL     1       6.512   5.257  19.484  0.00  0.00    +0.000 F 
ATOM     18  F   UNL     1       7.973   4.427  18.102  0.00  0.00    +0.000 F 
ATOM     19  F   UNL     1       8.510   6.114  19.365  0.00  0.00    +0.000 F 
ENDBRANCH  15  16
ENDBRANCH   5  15
TORSDOF 4
ENDMDL
MODEL 6
REMARK VINA RESULT:      -7.3      1.265      1.666
REMARK  Name = 
REMARK  7 active torsions:
REMARK  status: ('A' for Active; 'I' for Inactive)
REMARK    1  A    between atoms: C_1  and  C_2
REMARK    2  A    between atoms: C_4  and  C_5
REMARK    3  A    between atoms: N_8  and  C_9
REMARK    4  A    between atoms: C_9  and  C_10
REMARK    5  A    between atoms: C_9  and  C_11
REMARK    6  A    between atoms: N_13  and  C_14
REMARK    7  A    between atoms: C_14  and  C_15
REMARK                            x       y       z     vdW  Elec       q    Type
REMARK                         _______ _______ _______ _____ _____    ______ ____
ROOT
ATOM      1  C   UNL     1       6.824   4.416  13.108  0.00  0.00    +0.000 C 
ATOM      2  C   UNL     1       6.570   4.370  14.563  0.00  0.00    +0.000 A 
ATOM      3  N   UNL     1       5.400   3.907  15.111  0.00  0.00    +0.000 NA
ATOM      4  C   UNL     1       5.548   4.131  16.397  0.00  0.00    +0.000 A 
ATOM      5  N   UNL     1       6.829   4.579  16.618  0.00  0.00    +0.000 N 
ATOM      6  N   UNL     1       7.473   4.794  15.455  0.00  0.00    +0.000 NA
ENDROOT
BRANCH   4   7
ATOM      7  C   UNL     1       4.507   3.893  17.427  0.00  0.00    +0.000 A 
ATOM      8  C   UNL     1       3.891   2.678  17.765  0.00  0.00    +0.000 A 
ATOM      9  N   UNL     1       2.980   2.830  18.732  0.00  0.00    +0.000 NA
ATOM     10  N   UNL     1       2.964   4.159  18.956  0.00  0.00    +0.000 N 
ATOM     11  C   UNL     1       3.903   4.836  18.224  0.00  0.00    +0.000 A 
BRANCH  10  12
ATOM     12  C   UNL     1       1.956   4.754  19.830  0.00  0.00    +0.000 C 
ATOM     13  C   UNL     1       1.911   4.043  21.182  0.00  0.00    +0.000 C 
ATOM     14  C   UNL     1       2.158   6.259  19.995  0.00  0.00    +0.000 C 
ENDBRANCH  10  12
ENDBRANCH   4   7
BRANCH   5  15
ATOM     15  C   UNL     1       7.556   4.653  17.854  0.00  0.00    +0.000 C 
BRANCH  15  16
ATOM     16  C   UNL     1       7.315   5.950  18.592  0.00  0.00    +0.000 C 
ATOM     17  F   UNL     1       6.580   6.850  17.912  0.00  0.00    +0.000 F 
ATOM     18  F   UNL     1       6.679   5.717  19.765  0.00  0.00    +0.000 F 
ATOM     19  F   UNL     1       8.495   6.542  18.900  0.00  0.00    +0.000 F 
ENDBRANCH  15  16
ENDBRANCH   5  15
TORSDOF 4
ENDMDL
MODEL 7
REMARK VINA RESULT:      -7.1      0.886      1.360
REMARK  Name = 
REMARK  7 active torsions:
REMARK  status: ('A' for Active; 'I' for Inactive)
REMARK    1  A    between atoms: C_1  and  C_2
REMARK    2  A    between atoms: C_4  and  C_5
REMARK    3  A    between atoms: N_8  and  C_9
REMARK    4  A    between atoms: C_9  and  C_10
REMARK    5  A    between atoms: C_9  and  C_11
REMARK    6  A    between atoms: N_13  and  C_14
REMARK    7  A    between atoms: C_14  and  C_15
REMARK                            x       y       z     vdW  Elec       q    Type
REMARK                         _______ _______ _______ _____ _____    ______ ____
ROOT
ATOM      1  C   UNL     1       6.771   4.077  13.159  0.00  0.00    +0.000 C 
ATOM      2  C   UNL     1       6.366   4.484  14.521  0.00  0.00    +0.000 A 
ATOM      3  N   UNL     1       5.508   3.753  15.303  0.00  0.00    +0.000 NA
ATOM      4  C   UNL     1       5.341   4.504  16.368  0.00  0.00    +0.000 A 
ATOM      5  N   UNL     1       6.191   5.580  16.282  0.00  0.00    +0.000 N 
ATOM      6  N   UNL     1       6.808   5.615  15.084  0.00  0.00    +0.000 NA
ENDROOT
BRANCH   4   7
ATOM      7  C   UNL     1       4.414   4.200  17.486  0.00  0.00    +0.000 A 
ATOM      8  C   UNL     1       4.288   2.997  18.198  0.00  0.00    +0.000 A 
ATOM      9  N   UNL     1       3.336   3.066  19.136  0.00  0.00    +0.000 NA
ATOM     10  N   UNL     1       2.806   4.294  18.968  0.00  0.00    +0.000 N 
ATOM     11  C   UNL     1       3.456   5.032  18.015  0.00  0.00    +0.000 A 
BRANCH  10  12
ATOM     12  C   UNL     1       1.603   4.690  19.695  0.00  0.00    +0.000 C 
ATOM     13  C   UNL     1       1.056   3.531  20.528  0.00  0.00    +0.000 C 
ATOM     14  C   UNL     1       1.834   5.934  20.551  0.00  0.00    +0.000 C 
ENDBRANCH  10  12
ENDBRANCH   4   7
BRANCH   5  15
ATOM     15  C   UNL     1       6.604   6.488  17.316  0.00  0.00    +0.000 C 
BRANCH  15  16
ATOM     16  C   UNL     1       7.440   5.814  18.380  0.00  0.00    +0.000 C 
ATOM     17  F   UNL     1       8.088   4.709  17.963  0.00  0.00    +0.000 F 
ATOM     18  F   UNL     1       8.374   6.669  18.861  0.00  0.00    +0.000 F 
ATOM     19  F   UNL     1       6.663   5.454  19.430  0.00  0.00    +0.000 F 
ENDBRANCH  15  16
ENDBRANCH   5  15
TORSDOF 4
ENDMDL
MODEL 8
REMARK VINA RESULT:      -7.1      2.279      3.451
REMARK  Name = 
REMARK  7 active torsions:
REMARK  status: ('A' for Active; 'I' for Inactive)
REMARK    1  A    between atoms: C_1  and  C_2
REMARK    2  A    between atoms: C_4  and  C_5
REMARK    3  A    between atoms: N_8  and  C_9
REMARK    4  A    between atoms: C_9  and  C_10
REMARK    5  A    between atoms: C_9  and  C_11
REMARK    6  A    between atoms: N_13  and  C_14
REMARK    7  A    between atoms: C_14  and  C_15
REMARK                            x       y       z     vdW  Elec       q    Type
REMARK                         _______ _______ _______ _____ _____    ______ ____
ROOT
ATOM      1  C   UNL     1       8.073   7.451  18.216  0.00  0.00    +0.000 C 
ATOM      2  C   UNL     1       7.227   6.328  17.763  0.00  0.00    +0.000 A 
ATOM      3  N   UNL     1       6.035   5.993  18.355  0.00  0.00    +0.000 NA
ATOM      4  C   UNL     1       5.669   4.901  17.723  0.00  0.00    +0.000 A 
ATOM      5  N   UNL     1       6.546   4.680  16.688  0.00  0.00    +0.000 N 
ATOM      6  N   UNL     1       7.578   5.545  16.736  0.00  0.00    +0.000 NA
ENDROOT
BRANCH   4   7
ATOM      7  C   UNL     1       4.479   4.082  18.061  0.00  0.00    +0.000 A 
ATOM      8  C   UNL     1       3.560   3.492  17.179  0.00  0.00    +0.000 A 
ATOM      9  N   UNL     1       2.593   2.834  17.829  0.00  0.00    +0.000 NA
ATOM     10  N   UNL     1       2.858   3.070  19.129  0.00  0.00    +0.000 N 
ATOM     11  C   UNL     1       4.014   3.780  19.319  0.00  0.00    +0.000 A 
BRANCH  10  12
ATOM     12  C   UNL     1       1.914   2.664  20.167  0.00  0.00    +0.000 C 
ATOM     13  C   UNL     1       2.594   2.596  21.534  0.00  0.00    +0.000 C 
ATOM     14  C   UNL     1       0.678   3.560  20.200  0.00  0.00    +0.000 C 
ENDBRANCH  10  12
ENDBRANCH   4   7
BRANCH   5  15
ATOM     15  C   UNL     1       6.394   3.822  15.547  0.00  0.00    +0.000 C 
BRANCH  15  16
ATOM     16  C   UNL     1       5.948   4.572  14.312  0.00  0.00    +0.000 C 
ATOM     17  F   UNL     1       5.205   5.668  14.565  0.00  0.00    +0.000 F 
ATOM     18  F   UNL     1       7.019   4.973  13.587  0.00  0.00    +0.000 F 
ATOM     19  F   UNL     1       5.214   3.763  13.510  0.00  0.00    +0.000 F 
ENDBRANCH  15  16
ENDBRANCH   5  15
TORSDOF 4
ENDMDL
MODEL 9
REMARK VINA RESULT:      -7.1      0.963      1.367
REMARK  Name = 
REMARK  7 active torsions:
REMARK  status: ('A' for Active; 'I' for Inactive)
REMARK    1  A    between atoms: C_1  and  C_2
REMARK    2  A    between atoms: C_4  and  C_5
REMARK    3  A    between atoms: N_8  and  C_9
REMARK    4  A    between atoms: C_9  and  C_10
REMARK    5  A    between atoms: C_9  and  C_11
REMARK    6  A    between atoms: N_13  and  C_14
REMARK    7  A    between atoms: C_14  and  C_15
REMARK                            x       y       z     vdW  Elec       q    Type
REMARK                         _______ _______ _______ _____ _____    ______ ____
ROOT
ATOM      1  C   UNL     1       6.626   4.131  13.485  0.00  0.00    +0.000 C 
ATOM      2  C   UNL     1       6.206   4.408  14.874  0.00  0.00    +0.000 A 
ATOM      3  N   UNL     1       5.488   3.522  15.637  0.00  0.00    +0.000 NA
ATOM      4  C   UNL     1       5.245   4.189  16.743  0.00  0.00    +0.000 A 
ATOM      5  N   UNL     1       5.925   5.382  16.693  0.00  0.00    +0.000 N 
ATOM      6  N   UNL     1       6.494   5.564  15.485  0.00  0.00    +0.000 NA
ENDROOT
BRANCH   4   7
ATOM      7  C   UNL     1       4.406   3.699  17.864  0.00  0.00    +0.000 A 
ATOM      8  C   UNL     1       3.808   2.437  18.006  0.00  0.00    +0.000 A 
ATOM      9  N   UNL     1       3.104   2.340  19.139  0.00  0.00    +0.000 NA
ATOM     10  N   UNL     1       3.194   3.570  19.682  0.00  0.00    +0.000 N 
ATOM     11  C   UNL     1       4.009   4.410  18.971  0.00  0.00    +0.000 A 
BRANCH  10  12
ATOM     12  C   UNL     1       2.399   3.925  20.855  0.00  0.00    +0.000 C 
ATOM     13  C   UNL     1       1.234   4.839  20.474  0.00  0.00    +0.000 C 
ATOM     14  C   UNL     1       1.916   2.692  21.615  0.00  0.00    +0.000 C 
ENDBRANCH  10  12
ENDBRANCH   4   7
BRANCH   5  15
ATOM     15  C   UNL     1       6.230   6.291  17.762  0.00  0.00    +0.000 C 
BRANCH  15  16
ATOM     16  C   UNL     1       7.405   5.833  18.595  0.00  0.00    +0.000 C 
ATOM     17  F   UNL     1       8.374   6.757  18.748  0.00  0.00    +0.000 F 
ATOM     18  F   UNL     1       6.996   5.473  19.835  0.00  0.00    +0.000 F 
ATOM     19  F   UNL     1       7.977   4.737  18.039  0.00  0.00    +0.000 F 
ENDBRANCH  15  16
ENDBRANCH   5  15
TORSDOF 4
ENDMDL
