MODEL 1
REMARK VINA RESULT:      -7.6      0.000      0.000
REMARK  Name = 
REMARK  7 active torsions:
REMARK  status: ('A' for Active; 'I' for Inactive)
REMARK    1  A    between atoms: C_2  and  O_3
REMARK    2  A    between atoms: C_2  and  C_13
REMARK    3  A    between atoms: O_3  and  C_4
REMARK    4  A    between atoms: C_4  and  C_5
REMARK    5  A    between atoms: C_9  and  O_10
REMARK    6  A    between atoms: C_16  and  O_17
REMARK    7  A    between atoms: C_19  and  O_20
REMARK                            x       y       z     vdW  Elec       q    Type
REMARK                         _______ _______ _______ _____ _____    ______ ____
ROOT
ATOM      1  O   UNL     1       3.308   5.923  17.433  0.00  0.00    +0.000 OA
ATOM      2  C   UNL     1       3.546   4.759  17.720  0.00  0.00    +0.000 C 
ENDROOT
BRANCH   2   3
ATOM      3  C   UNL     1       3.027   4.124  18.971  0.00  0.00    +0.000 A 
ATOM      4  C   UNL     1       1.753   4.542  19.399  0.00  0.00    +0.000 A 
ATOM      5  C   UNL     1       1.156   3.996  20.540  0.00  0.00    +0.000 A 
ATOM      6  C   UNL     1       1.835   3.022  21.258  0.00  0.00    +0.000 A 
ATOM      7  C   UNL     1       3.105   2.605  20.870  0.00  0.00    +0.000 A 
ATOM      8  C   UNL     1       3.706   3.162  19.735  0.00  0.00    +0.000 A 
BRANCH   6   9
ATOM      9  O   UNL     1       1.291   2.444  22.366  0.00  0.00    +0.000 OA
ATOM     10  H   UNL     1       1.321   1.477  22.266  0.00  0.00    +0.000 HD
ENDBRANCH   6   9
BRANCH   8  11
ATOM     11  O   UNL     1       4.972   2.754  19.414  0.00  0.00    +0.000 OA
ATOM     12  H   UNL     1       5.476   3.505  19.059  0.00  0.00    +0.000 HD
ENDBRANCH   8  11
ENDBRANCH   2   3
BRANCH   2  13
ATOM     13  O   UNL     1       4.259   3.899  16.963  0.00  0.00    +0.000 OA
BRANCH  13  14
ATOM     14  C   UNL     1       5.344   4.438  16.192  0.00  0.00    +0.000 C 
BRANCH  14  15
ATOM     15  C   UNL     1       6.270   5.262  17.053  0.00  0.00    +0.000 A 
ATOM     16  C   UNL     1       6.902   4.796  18.143  0.00  0.00    +0.000 A 
ATOM     17  C   UNL     1       7.800   5.689  18.895  0.00  0.00    +0.000 A 
ATOM     18  O   UNL     1       8.405   5.326  19.897  0.00  0.00    +0.000 OA
ATOM     19  C   UNL     1       7.955   7.071  18.384  0.00  0.00    +0.000 A 
ATOM     20  C   UNL     1       7.269   7.413  17.292  0.00  0.00    +0.000 A 
ATOM     21  O   UNL     1       6.426   6.572  16.603  0.00  0.00    +0.000 OA
BRANCH  19  22
ATOM     22  O   UNL     1       8.798   7.939  19.046  0.00  0.00    +0.000 OA
ATOM     23  H   UNL     1       9.655   7.467  19.095  0.00  0.00    +0.000 HD
ENDBRANCH  19  22
ENDBRANCH  14  15
ENDBRANCH  13  14
ENDBRANCH   2  13
TORSDOF 7
ENDMDL
MODEL 2
REMARK VINA RESULT:      -7.5      1.185      1.760
REMARK  Name = 
REMARK  7 active torsions:
REMARK  status: ('A' for Active; 'I' for Inactive)
REMARK    1  A    between atoms: C_2  and  O_3
REMARK    2  A    between atoms: C_2  and  C_13
REMARK    3  A    between atoms: O_3  and  C_4
REMARK    4  A    between atoms: C_4  and  C_5
REMARK    5  A    between atoms: C_9  and  O_10
REMARK    6  A    between atoms: C_16  and  O_17
REMARK    7  A    between atoms: C_19  and  O_20
REMARK                            x       y       z     vdW  Elec       q    Type
REMARK                         _______ _______ _______ _____ _____    ______ ____
ROOT
ATOM      1  O   UNL     1       2.171   3.220  16.398  0.00  0.00    +0.000 OA
ATOM      2  C   UNL     1       2.991   3.172  17.303  0.00  0.00    +0.000 C 
ENDROOT
BRANCH   2   3
ATOM      3  C   UNL     1       2.591   3.018  18.735  0.00  0.00    +0.000 A 
ATOM      4  C   UNL     1       1.239   3.274  19.035  0.00  0.00    +0.000 A 
ATOM      5  C   UNL     1       0.747   3.133  20.337  0.00  0.00    +0.000 A 
ATOM      6  C   UNL     1       1.609   2.732  21.347  0.00  0.00    +0.000 A 
ATOM      7  C   UNL     1       2.954   2.492  21.083  0.00  0.00    +0.000 A 
ATOM      8  C   UNL     1       3.449   2.646  19.782  0.00  0.00    +0.000 A 
BRANCH   6   9
ATOM      9  O   UNL     1       1.176   2.561  22.628  0.00  0.00    +0.000 OA
ATOM     10  H   UNL     1       1.793   3.009  23.232  0.00  0.00    +0.000 HD
ENDBRANCH   6   9
BRANCH   8  11
ATOM     11  O   UNL     1       4.785   2.441  19.576  0.00  0.00    +0.000 OA
ATOM     12  H   UNL     1       5.140   3.148  19.011  0.00  0.00    +0.000 HD
ENDBRANCH   8  11
ENDBRANCH   2   3
BRANCH   2  13
ATOM     13  O   UNL     1       4.331   3.218  17.143  0.00  0.00    +0.000 OA
BRANCH  13  14
ATOM     14  C   UNL     1       4.856   4.202  16.239  0.00  0.00    +0.000 C 
BRANCH  14  15
ATOM     15  C   UNL     1       5.860   5.096  16.924  0.00  0.00    +0.000 A 
ATOM     16  C   UNL     1       6.170   6.337  16.514  0.00  0.00    +0.000 A 
ATOM     17  C   UNL     1       7.152   7.126  17.276  0.00  0.00    +0.000 A 
ATOM     18  O   UNL     1       7.480   8.262  16.955  0.00  0.00    +0.000 OA
ATOM     19  C   UNL     1       7.742   6.487  18.476  0.00  0.00    +0.000 A 
ATOM     20  C   UNL     1       7.353   5.246  18.776  0.00  0.00    +0.000 A 
ATOM     21  O   UNL     1       6.440   4.515  18.051  0.00  0.00    +0.000 OA
BRANCH  19  22
ATOM     22  O   UNL     1       8.655   7.192  19.231  0.00  0.00    +0.000 OA
ATOM     23  H   UNL     1       8.113   7.815  19.761  0.00  0.00    +0.000 HD
ENDBRANCH  19  22
ENDBRANCH  14  15
ENDBRANCH  13  14
ENDBRANCH   2  13
TORSDOF 7
ENDMDL
MODEL 3
REMARK VINA RESULT:      -7.3      2.588      5.723
REMARK  Name = 
REMARK  7 active torsions:
REMARK  status: ('A' for Active; 'I' for Inactive)
REMARK    1  A    between atoms: C_2  and  O_3
REMARK    2  A    between atoms: C_2  and  C_13
REMARK    3  A    between atoms: O_3  and  C_4
REMARK    4  A    between atoms: C_4  and  C_5
REMARK    5  A    between atoms: C_9  and  O_10
REMARK    6  A    between atoms: C_16  and  O_17
REMARK    7  A    between atoms: C_19  and  O_20
REMARK                            x       y       z     vdW  Elec       q    Type
REMARK                         _______ _______ _______ _____ _____    ______ ____
ROOT
ATOM      1  O   UNL     1       4.797   2.818  19.917  0.00  0.00    +0.000 OA
ATOM      2  C   UNL     1       4.447   3.656  19.100  0.00  0.00    +0.000 C 
ENDROOT
BRANCH   2   3
ATOM      3  C   UNL     1       5.344   4.120  17.998  0.00  0.00    +0.000 A 
ATOM      4  C   UNL     1       4.897   3.875  16.685  0.00  0.00    +0.000 A 
ATOM      5  C   UNL     1       5.642   4.291  15.576  0.00  0.00    +0.000 A 
ATOM      6  C   UNL     1       6.841   4.959  15.778  0.00  0.00    +0.000 A 
ATOM      7  C   UNL     1       7.317   5.196  17.064  0.00  0.00    +0.000 A 
ATOM      8  C   UNL     1       6.577   4.768  18.173  0.00  0.00    +0.000 A 
BRANCH   6   9
ATOM      9  O   UNL     1       7.595   5.402  14.733  0.00  0.00    +0.000 OA
ATOM     10  H   UNL     1       7.375   6.332  14.556  0.00  0.00    +0.000 HD
ENDBRANCH   6   9
BRANCH   8  11
ATOM     11  O   UNL     1       7.102   4.985  19.417  0.00  0.00    +0.000 OA
ATOM     12  H   UNL     1       6.399   5.274  20.023  0.00  0.00    +0.000 HD
ENDBRANCH   8  11
ENDBRANCH   2   3
BRANCH   2  13
ATOM     13  O   UNL     1       3.230   4.240  19.055  0.00  0.00    +0.000 OA
BRANCH  13  14
ATOM     14  C   UNL     1       2.914   5.189  20.086  0.00  0.00    +0.000 C 
BRANCH  14  15
ATOM     15  C   UNL     1       2.545   6.530  19.501  0.00  0.00    +0.000 A 
ATOM     16  C   UNL     1       1.872   7.484  20.165  0.00  0.00    +0.000 A 
ATOM     17  C   UNL     1       1.585   8.765  19.498  0.00  0.00    +0.000 A 
ATOM     18  O   UNL     1       0.975   9.675  20.047  0.00  0.00    +0.000 OA
ATOM     19  C   UNL     1       2.074   8.922  18.108  0.00  0.00    +0.000 A 
ATOM     20  C   UNL     1       2.728   7.897  17.557  0.00  0.00    +0.000 A 
ATOM     21  O   UNL     1       2.982   6.701  18.189  0.00  0.00    +0.000 OA
BRANCH  19  22
ATOM     22  O   UNL     1       1.843  10.109  17.446  0.00  0.00    +0.000 OA
ATOM     23  H   UNL     1       2.334  10.783  17.962  0.00  0.00    +0.000 HD
ENDBRANCH  19  22
ENDBRANCH  14  15
ENDBRANCH  13  14
ENDBRANCH   2  13
TORSDOF 7
ENDMDL
MODEL 4
REMARK VINA RESULT:      -7.3      1.557      2.118
REMARK  Name = 
REMARK  7 active torsions:
REMARK  status: ('A' for Active; 'I' for Inactive)
REMARK    1  A    between atoms: C_2  and  O_3
REMARK    2  A    between atoms: C_2  and  C_13
REMARK    3  A    between atoms: O_3  and  C_4
REMARK    4  A    between atoms: C_4  and  C_5
REMARK    5  A    between atoms: C_9  and  O_10
REMARK    6  A    between atoms: C_16  and  O_17
REMARK    7  A    between atoms: C_19  and  O_20
REMARK                            x       y       z     vdW  Elec       q    Type
REMARK                         _______ _______ _______ _____ _____    ______ ____
ROOT
ATOM      1  O   UNL     1       3.414   2.372  17.628  0.00  0.00    +0.000 OA
ATOM      2  C   UNL     1       3.480   3.584  17.491  0.00  0.00    +0.000 C 
ENDROOT
BRANCH   2   3
ATOM      3  C   UNL     1       2.960   4.534  18.522  0.00  0.00    +0.000 A 
ATOM      4  C   UNL     1       2.970   5.898  18.175  0.00  0.00    +0.000 A 
ATOM      5  C   UNL     1       2.482   6.873  19.051  0.00  0.00    +0.000 A 
ATOM      6  C   UNL     1       1.977   6.483  20.283  0.00  0.00    +0.000 A 
ATOM      7  C   UNL     1       1.974   5.145  20.661  0.00  0.00    +0.000 A 
ATOM      8  C   UNL     1       2.475   4.171  19.789  0.00  0.00    +0.000 A 
BRANCH   6   9
ATOM      9  O   UNL     1       1.472   7.391  21.166  0.00  0.00    +0.000 OA
ATOM     10  H   UNL     1       2.088   8.140  21.236  0.00  0.00    +0.000 HD
ENDBRANCH   6   9
BRANCH   8  11
ATOM     11  O   UNL     1       2.492   2.872  20.218  0.00  0.00    +0.000 OA
ATOM     12  H   UNL     1       3.409   2.596  20.386  0.00  0.00    +0.000 HD
ENDBRANCH   8  11
ENDBRANCH   2   3
BRANCH   2  13
ATOM     13  O   UNL     1       4.039   4.220  16.439  0.00  0.00    +0.000 OA
BRANCH  13  14
ATOM     14  C   UNL     1       5.442   4.016  16.213  0.00  0.00    +0.000 C 
BRANCH  14  15
ATOM     15  C   UNL     1       6.274   4.937  17.072  0.00  0.00    +0.000 A 
ATOM     16  C   UNL     1       6.619   4.677  18.344  0.00  0.00    +0.000 A 
ATOM     17  C   UNL     1       7.454   5.642  19.078  0.00  0.00    +0.000 A 
ATOM     18  O   UNL     1       7.802   5.466  20.240  0.00  0.00    +0.000 OA
ATOM     19  C   UNL     1       7.873   6.861  18.347  0.00  0.00    +0.000 A 
ATOM     20  C   UNL     1       7.462   7.004  17.086  0.00  0.00    +0.000 A 
ATOM     21  O   UNL     1       6.674   6.098  16.412  0.00  0.00    +0.000 OA
BRANCH  19  22
ATOM     22  O   UNL     1       8.669   7.787  18.988  0.00  0.00    +0.000 OA
ATOM     23  H   UNL     1       8.979   8.385  18.276  0.00  0.00    +0.000 HD
ENDBRANCH  19  22
ENDBRANCH  14  15
ENDBRANCH  13  14
ENDBRANCH   2  13
TORSDOF 7
ENDMDL
MODEL 5
REMARK VINA RESULT:      -7.3      1.275      1.873
REMARK  Name = 
REMARK  7 active torsions:
REMARK  status: ('A' for Active; 'I' for Inactive)
REMARK    1  A    between atoms: C_2  and  O_3
REMARK    2  A    between atoms: C_2  and  C_13
REMARK    3  A    between atoms: O_3  and  C_4
REMARK    4  A    between atoms: C_4  and  C_5
REMARK    5  A    between atoms: C_9  and  O_10
REMARK    6  A    between atoms: C_16  and  O_17
REMARK    7  A    between atoms: C_19  and  O_20
REMARK                            x       y       z     vdW  Elec       q    Type
REMARK                         _______ _______ _______ _____ _____    ______ ____
ROOT
ATOM      1  O   UNL     1       3.095   6.049  17.679  0.00  0.00    +0.000 OA
ATOM      2  C   UNL     1       3.149   4.832  17.774  0.00  0.00    +0.000 C 
ENDROOT
BRANCH   2   3
ATOM      3  C   UNL     1       2.619   4.100  18.966  0.00  0.00    +0.000 A 
ATOM      4  C   UNL     1       2.851   4.699  20.219  0.00  0.00    +0.000 A 
ATOM      5  C   UNL     1       2.376   4.117  21.399  0.00  0.00    +0.000 A 
ATOM      6  C   UNL     1       1.660   2.931  21.328  0.00  0.00    +0.000 A 
ATOM      7  C   UNL     1       1.434   2.307  20.106  0.00  0.00    +0.000 A 
ATOM      8  C   UNL     1       1.921   2.882  18.926  0.00  0.00    +0.000 A 
BRANCH   6   9
ATOM      9  O   UNL     1       1.159   2.333  22.446  0.00  0.00    +0.000 OA
ATOM     10  H   UNL     1       0.420   2.866  22.785  0.00  0.00    +0.000 HD
ENDBRANCH   6   9
BRANCH   8  11
ATOM     11  O   UNL     1       1.712   2.214  17.752  0.00  0.00    +0.000 OA
ATOM     12  H   UNL     1       1.268   2.801  17.117  0.00  0.00    +0.000 HD
ENDBRANCH   8  11
ENDBRANCH   2   3
BRANCH   2  13
ATOM     13  O   UNL     1       3.649   3.999  16.837  0.00  0.00    +0.000 OA
BRANCH  13  14
ATOM     14  C   UNL     1       4.944   3.430  17.081  0.00  0.00    +0.000 C 
BRANCH  14  15
ATOM     15  C   UNL     1       5.935   4.486  17.507  0.00  0.00    +0.000 A 
ATOM     16  C   UNL     1       6.465   5.402  16.680  0.00  0.00    +0.000 A 
ATOM     17  C   UNL     1       7.408   6.399  17.213  0.00  0.00    +0.000 A 
ATOM     18  O   UNL     1       7.927   7.259  16.512  0.00  0.00    +0.000 OA
ATOM     19  C   UNL     1       7.712   6.328  18.662  0.00  0.00    +0.000 A 
ATOM     20  C   UNL     1       7.122   5.368  19.376  0.00  0.00    +0.000 A 
ATOM     21  O   UNL     1       6.248   4.436  18.864  0.00  0.00    +0.000 OA
BRANCH  19  22
ATOM     22  O   UNL     1       8.577   7.250  19.211  0.00  0.00    +0.000 OA
ATOM     23  H   UNL     1       9.135   6.732  19.829  0.00  0.00    +0.000 HD
ENDBRANCH  19  22
ENDBRANCH  14  15
ENDBRANCH  13  14
ENDBRANCH   2  13
TORSDOF 7
ENDMDL
MODEL 6
REMARK VINA RESULT:      -7.2      2.037      6.335
REMARK  Name = 
REMARK  7 active torsions:
REMARK  status: ('A' for Active; 'I' for Inactive)
REMARK    1  A    between atoms: C_2  and  O_3
REMARK    2  A    between atoms: C_2  and  C_13
REMARK    3  A    between atoms: O_3  and  C_4
REMARK    4  A    between atoms: C_4  and  C_5
REMARK    5  A    between atoms: C_9  and  O_10
REMARK    6  A    between atoms: C_16  and  O_17
REMARK    7  A    between atoms: C_19  and  O_20
REMARK                            x       y       z     vdW  Elec       q    Type
REMARK                         _______ _______ _______ _____ _____    ______ ____
ROOT
ATOM      1  O   UNL     1       6.163   4.622  19.266  0.00  0.00    +0.000 OA
ATOM      2  C   UNL     1       5.773   5.270  18.306  0.00  0.00    +0.000 C 
ENDROOT
BRANCH   2   3
ATOM      3  C   UNL     1       6.022   4.836  16.897  0.00  0.00    +0.000 A 
ATOM      4  C   UNL     1       5.348   3.674  16.474  0.00  0.00    +0.000 A 
ATOM      5  C   UNL     1       5.485   3.192  15.168  0.00  0.00    +0.000 A 
ATOM      6  C   UNL     1       6.297   3.875  14.276  0.00  0.00    +0.000 A 
ATOM      7  C   UNL     1       6.991   5.014  14.672  0.00  0.00    +0.000 A 
ATOM      8  C   UNL     1       6.865   5.489  15.983  0.00  0.00    +0.000 A 
BRANCH   6   9
ATOM      9  O   UNL     1       6.449   3.459  12.987  0.00  0.00    +0.000 OA
ATOM     10  H   UNL     1       7.389   3.272  12.824  0.00  0.00    +0.000 HD
ENDBRANCH   6   9
BRANCH   8  11
ATOM     11  O   UNL     1       7.597   6.587  16.342  0.00  0.00    +0.000 OA
ATOM     12  H   UNL     1       8.545   6.373  16.306  0.00  0.00    +0.000 HD
ENDBRANCH   8  11
ENDBRANCH   2   3
BRANCH   2  13
ATOM     13  O   UNL     1       5.060   6.414  18.375  0.00  0.00    +0.000 OA
BRANCH  13  14
ATOM     14  C   UNL     1       3.717   6.388  17.867  0.00  0.00    +0.000 C 
BRANCH  14  15
ATOM     15  C   UNL     1       2.867   5.392  18.617  0.00  0.00    +0.000 A 
ATOM     16  C   UNL     1       2.100   4.459  18.030  0.00  0.00    +0.000 A 
ATOM     17  C   UNL     1       1.327   3.525  18.866  0.00  0.00    +0.000 A 
ATOM     18  O   UNL     1       0.608   2.653  18.393  0.00  0.00    +0.000 OA
ATOM     19  C   UNL     1       1.457   3.675  20.335  0.00  0.00    +0.000 A 
ATOM     20  C   UNL     1       2.250   4.644  20.795  0.00  0.00    +0.000 A 
ATOM     21  O   UNL     1       2.960   5.517  20.003  0.00  0.00    +0.000 OA
BRANCH  19  22
ATOM     22  O   UNL     1       0.765   2.814  21.160  0.00  0.00    +0.000 OA
ATOM     23  H   UNL     1      -0.180   3.037  21.019  0.00  0.00    +0.000 HD
ENDBRANCH  19  22
ENDBRANCH  14  15
ENDBRANCH  13  14
ENDBRANCH   2  13
TORSDOF 7
ENDMDL
MODEL 7
REMARK VINA RESULT:      -7.2      2.774      4.104
REMARK  Name = 
REMARK  7 active torsions:
REMARK  status: ('A' for Active; 'I' for Inactive)
REMARK    1  A    between atoms: C_2  and  O_3
REMARK    2  A    between atoms: C_2  and  C_13
REMARK    3  A    between atoms: O_3  and  C_4
REMARK    4  A    between atoms: C_4  and  C_5
REMARK    5  A    between atoms: C_9  and  O_10
REMARK    6  A    between atoms: C_16  and  O_17
REMARK    7  A    between atoms: C_19  and  O_20
REMARK                            x       y       z     vdW  Elec       q    Type
REMARK                         _______ _______ _______ _____ _____    ______ ____
ROOT
ATOM      1  O   UNL     1       6.099   4.991  19.616  0.00  0.00    +0.000 OA
ATOM      2  C   UNL     1       5.468   4.758  18.595  0.00  0.00    +0.000 C 
ENDROOT
BRANCH   2   3
ATOM      3  C   UNL     1       4.160   4.034  18.613  0.00  0.00    +0.000 A 
ATOM      4  C   UNL     1       3.077   4.688  17.993  0.00  0.00    +0.000 A 
ATOM      5  C   UNL     1       1.814   4.092  17.926  0.00  0.00    +0.000 A 
ATOM      6  C   UNL     1       1.629   2.833  18.477  0.00  0.00    +0.000 A 
ATOM      7  C   UNL     1       2.675   2.172  19.113  0.00  0.00    +0.000 A 
ATOM      8  C   UNL     1       3.936   2.775  19.192  0.00  0.00    +0.000 A 
BRANCH   6   9
ATOM      9  O   UNL     1       0.423   2.200  18.422  0.00  0.00    +0.000 OA
ATOM     10  H   UNL     1      -0.001   2.250  19.295  0.00  0.00    +0.000 HD
ENDBRANCH   6   9
BRANCH   8  11
ATOM     11  O   UNL     1       4.925   2.109  19.863  0.00  0.00    +0.000 OA
ATOM     12  H   UNL     1       5.465   1.605  19.232  0.00  0.00    +0.000 HD
ENDBRANCH   8  11
ENDBRANCH   2   3
BRANCH   2  13
ATOM     13  O   UNL     1       5.832   5.135  17.351  0.00  0.00    +0.000 OA
BRANCH  13  14
ATOM     14  C   UNL     1       7.039   4.571  16.815  0.00  0.00    +0.000 C 
BRANCH  14  15
ATOM     15  C   UNL     1       6.995   4.515  15.308  0.00  0.00    +0.000 A 
ATOM     16  C   UNL     1       6.151   3.742  14.605  0.00  0.00    +0.000 A 
ATOM     17  C   UNL     1       6.185   3.785  13.133  0.00  0.00    +0.000 A 
ATOM     18  O   UNL     1       5.444   3.105  12.434  0.00  0.00    +0.000 OA
ATOM     19  C   UNL     1       7.166   4.706  12.511  0.00  0.00    +0.000 A 
ATOM     20  C   UNL     1       7.952   5.419  13.320  0.00  0.00    +0.000 A 
ATOM     21  O   UNL     1       7.916   5.363  14.695  0.00  0.00    +0.000 OA
BRANCH  19  22
ATOM     22  O   UNL     1       7.225   4.793  11.137  0.00  0.00    +0.000 OA
ATOM     23  H   UNL     1       6.290   4.859  10.850  0.00  0.00    +0.000 HD
ENDBRANCH  19  22
ENDBRANCH  14  15
ENDBRANCH  13  14
ENDBRANCH   2  13
TORSDOF 7
ENDMDL
MODEL 8
REMARK VINA RESULT:      -7.2      1.334      5.866
REMARK  Name = 
REMARK  7 active torsions:
REMARK  status: ('A' for Active; 'I' for Inactive)
REMARK    1  A    between atoms: C_2  and  O_3
REMARK    2  A    between atoms: C_2  and  C_13
REMARK    3  A    between atoms: O_3  and  C_4
REMARK    4  A    between atoms: C_4  and  C_5
REMARK    5  A    between atoms: C_9  and  O_10
REMARK    6  A    between atoms: C_16  and  O_17
REMARK    7  A    between atoms: C_19  and  O_20
REMARK                            x       y       z     vdW  Elec       q    Type
REMARK                         _______ _______ _______ _____ _____    ______ ____
ROOT
ATOM      1  O   UNL     1       5.469   4.272  14.391  0.00  0.00    +0.000 OA
ATOM      2  C   UNL     1       5.407   4.210  15.610  0.00  0.00    +0.000 C 
ENDROOT
BRANCH   2   3
ATOM      3  C   UNL     1       6.184   5.130  16.497  0.00  0.00    +0.000 A 
ATOM      4  C   UNL     1       7.052   4.518  17.422  0.00  0.00    +0.000 A 
ATOM      5  C   UNL     1       7.848   5.282  18.282  0.00  0.00    +0.000 A 
ATOM      6  C   UNL     1       7.780   6.666  18.217  0.00  0.00    +0.000 A 
ATOM      7  C   UNL     1       6.916   7.296  17.327  0.00  0.00    +0.000 A 
ATOM      8  C   UNL     1       6.110   6.532  16.476  0.00  0.00    +0.000 A 
BRANCH   6   9
ATOM      9  O   UNL     1       8.548   7.455  19.020  0.00  0.00    +0.000 OA
ATOM     10  H   UNL     1       8.092   8.303  19.159  0.00  0.00    +0.000 HD
ENDBRANCH   6   9
BRANCH   8  11
ATOM     11  O   UNL     1       5.245   7.191  15.647  0.00  0.00    +0.000 OA
ATOM     12  H   UNL     1       5.065   6.647  14.863  0.00  0.00    +0.000 HD
ENDBRANCH   8  11
ENDBRANCH   2   3
BRANCH   2  13
ATOM     13  O   UNL     1       4.633   3.352  16.308  0.00  0.00    +0.000 OA
BRANCH  13  14
ATOM     14  C   UNL     1       3.442   3.877  16.912  0.00  0.00    +0.000 C 
BRANCH  14  15
ATOM     15  C   UNL     1       3.307   3.422  18.344  0.00  0.00    +0.000 A 
ATOM     16  C   UNL     1       4.282   2.811  19.038  0.00  0.00    +0.000 A 
ATOM     17  C   UNL     1       4.042   2.429  20.439  0.00  0.00    +0.000 A 
ATOM     18  O   UNL     1       4.889   1.869  21.126  0.00  0.00    +0.000 OA
ATOM     19  C   UNL     1       2.714   2.758  21.008  0.00  0.00    +0.000 A 
ATOM     20  C   UNL     1       1.829   3.365  20.214  0.00  0.00    +0.000 A 
ATOM     21  O   UNL     1       2.062   3.708  18.902  0.00  0.00    +0.000 OA
BRANCH  19  22
ATOM     22  O   UNL     1       2.448   2.434  22.321  0.00  0.00    +0.000 OA
ATOM     23  H   UNL     1       2.761   1.510  22.419  0.00  0.00    +0.000 HD
ENDBRANCH  19  22
ENDBRANCH  14  15
ENDBRANCH  13  14
ENDBRANCH   2  13
TORSDOF 7
ENDMDL
MODEL 9
REMARK VINA RESULT:      -7.2      0.948      1.360
REMARK  Name = 
REMARK  7 active torsions:
REMARK  status: ('A' for Active; 'I' for Inactive)
REMARK    1  A    between atoms: C_2  and  O_3
REMARK    2  A    between atoms: C_2  and  C_13
REMARK    3  A    between atoms: O_3  and  C_4
REMARK    4  A    between atoms: C_4  and  C_5
REMARK    5  A    between atoms: C_9  and  O_10
REMARK    6  A    between atoms: C_16  and  O_17
REMARK    7  A    between atoms: C_19  and  O_20
REMARK                            x       y       z     vdW  Elec       q    Type
REMARK                         _______ _______ _______ _____ _____    ______ ____
ROOT
ATOM      1  O   UNL     1       3.500   6.059  17.256  0.00  0.00    +0.000 OA
ATOM      2  C   UNL     1       3.536   4.872  17.546  0.00  0.00    +0.000 C 
ENDROOT
BRANCH   2   3
ATOM      3  C   UNL     1       2.947   4.343  18.814  0.00  0.00    +0.000 A 
ATOM      4  C   UNL     1       2.632   2.970  18.829  0.00  0.00    +0.000 A 
ATOM      5  C   UNL     1       2.102   2.361  19.972  0.00  0.00    +0.000 A 
ATOM      6  C   UNL     1       1.888   3.126  21.109  0.00  0.00    +0.000 A 
ATOM      7  C   UNL     1       2.170   4.489  21.115  0.00  0.00    +0.000 A 
ATOM      8  C   UNL     1       2.687   5.100  19.967  0.00  0.00    +0.000 A 
BRANCH   6   9
ATOM      9  O   UNL     1       1.391   2.578  22.254  0.00  0.00    +0.000 OA
ATOM     10  H   UNL     1       2.092   2.565  22.927  0.00  0.00    +0.000 HD
ENDBRANCH   6   9
BRANCH   8  11
ATOM     11  O   UNL     1       2.911   6.449  20.004  0.00  0.00    +0.000 OA
ATOM     12  H   UNL     1       3.622   6.679  19.383  0.00  0.00    +0.000 HD
ENDBRANCH   8  11
ENDBRANCH   2   3
BRANCH   2  13
ATOM     13  O   UNL     1       4.065   3.897  16.776  0.00  0.00    +0.000 OA
BRANCH  13  14
ATOM     14  C   UNL     1       5.345   4.150  16.176  0.00  0.00    +0.000 C 
BRANCH  14  15
ATOM     15  C   UNL     1       6.208   5.007  17.068  0.00  0.00    +0.000 A 
ATOM     16  C   UNL     1       6.553   4.682  18.325  0.00  0.00    +0.000 A 
ATOM     17  C   UNL     1       7.419   5.590  19.096  0.00  0.00    +0.000 A 
ATOM     18  O   UNL     1       7.769   5.353  20.246  0.00  0.00    +0.000 OA
ATOM     19  C   UNL     1       7.869   6.827  18.415  0.00  0.00    +0.000 A 
ATOM     20  C   UNL     1       7.454   7.037  17.164  0.00  0.00    +0.000 A 
ATOM     21  O   UNL     1       6.637   6.185  16.458  0.00  0.00    +0.000 OA
BRANCH  19  22
ATOM     22  O   UNL     1       8.694   7.701  19.091  0.00  0.00    +0.000 OA
ATOM     23  H   UNL     1       9.387   7.944  18.440  0.00  0.00    +0.000 HD
ENDBRANCH  19  22
ENDBRANCH  14  15
ENDBRANCH  13  14
ENDBRANCH   2  13
TORSDOF 7
ENDMDL
