MODEL 1
REMARK VINA RESULT:      -8.6      0.000      0.000
REMARK  Name = 
REMARK  7 active torsions:
REMARK  status: ('A' for Active; 'I' for Inactive)
REMARK    1  A    between atoms: C_1  and  C_2
REMARK    2  A    between atoms: C_2  and  C_3
REMARK    3  A    between atoms: N_9  and  C_10
REMARK    4  A    between atoms: C_10  and  C_11
REMARK    5  A    between atoms: N_13  and  C_14
REMARK    6  A    between atoms: C_17  and  O_18
REMARK    7  A    between atoms: O_18  and  C_19
REMARK                            x       y       z     vdW  Elec       q    Type
REMARK                         _______ _______ _______ _____ _____    ______ ____
ROOT
ATOM      1  C   UNL     1       3.254   3.692  20.221  0.00  0.00    +0.000 A 
ATOM      2  N   UNL     1       4.039   2.638  20.361  0.00  0.00    +0.000 NA
ATOM      3  N   UNL     1       5.168   2.828  19.618  0.00  0.00    +0.000 NA
ATOM      4  C   UNL     1       5.059   3.997  19.030  0.00  0.00    +0.000 A 
ATOM      5  C   UNL     1       6.040   4.585  18.160  0.00  0.00    +0.000 A 
ATOM      6  O   UNL     1       7.116   4.052  17.890  0.00  0.00    +0.000 OA
ATOM      7  N   UNL     1       5.705   5.829  17.607  0.00  0.00    +0.000 N 
ATOM      8  C   UNL     1       4.438   6.452  17.917  0.00  0.00    +0.000 A 
ATOM      9  C   UNL     1       4.054   7.655  17.305  0.00  0.00    +0.000 A 
ATOM     10  C   UNL     1       2.875   8.310  17.672  0.00  0.00    +0.000 A 
ATOM     11  C   UNL     1       2.055   7.776  18.658  0.00  0.00    +0.000 A 
ATOM     12  C   UNL     1       2.386   6.557  19.250  0.00  0.00    +0.000 A 
ATOM     13  C   UNL     1       3.545   5.875  18.859  0.00  0.00    +0.000 A 
ATOM     14  N   UNL     1       3.881   4.603  19.380  0.00  0.00    +0.000 N 
ENDROOT
BRANCH   1  16
ATOM     15  C   UNL     1       0.819   3.210  19.988  0.00  0.00    +0.000 C 
ATOM     16  C   UNL     1       1.918   3.766  20.881  0.00  0.00    +0.000 C 
ENDBRANCH   1  16
BRANCH   7  17
ATOM     17  C   UNL     1       6.823   6.610  17.033  0.00  0.00    +0.000 C 
BRANCH  17  18
ATOM     18  C   UNL     1       7.638   7.606  17.893  0.00  0.00    +0.000 C 
ATOM     19  O   UNL     1       8.338   7.186  18.816  0.00  0.00    +0.000 OA
ATOM     20  N   UNL     1       7.613   8.928  17.489  0.00  0.00    +0.000 N 
ATOM     21  H   UNL     1       6.843   9.209  16.883  0.00  0.00    +0.000 HD
BRANCH  20  22
ATOM     22  C   UNL     1       8.363   9.956  18.102  0.00  0.00    +0.000 A 
ATOM     23  C   UNL     1       9.060   9.649  19.268  0.00  0.00    +0.000 A 
ATOM     24  C   UNL     1       9.841  10.617  19.917  0.00  0.00    +0.000 A 
ATOM     25  C   UNL     1       9.871  11.935  19.458  0.00  0.00    +0.000 A 
ATOM     26  C   UNL     1       9.127  12.250  18.306  0.00  0.00    +0.000 A 
ATOM     27 CL   UNL     1       9.051  13.880  17.718  0.00  0.00    +0.000 Cl
ATOM     28  C   UNL     1       8.401  11.265  17.614  0.00  0.00    +0.000 A 
BRANCH  25  29
ATOM     29  O   UNL     1      10.579  12.952  20.060  0.00  0.00    +0.000 OA
ATOM     30  C   UNL     1      10.178  13.345  21.363  0.00  0.00    +0.000 C 
ENDBRANCH  25  29
ENDBRANCH  20  22
ENDBRANCH  17  18
ENDBRANCH   7  17
TORSDOF 5
ENDMDL
MODEL 2
REMARK VINA RESULT:      -8.1      6.258      9.260
REMARK  Name = 
REMARK  7 active torsions:
REMARK  status: ('A' for Active; 'I' for Inactive)
REMARK    1  A    between atoms: C_1  and  C_2
REMARK    2  A    between atoms: C_2  and  C_3
REMARK    3  A    between atoms: N_9  and  C_10
REMARK    4  A    between atoms: C_10  and  C_11
REMARK    5  A    between atoms: N_13  and  C_14
REMARK    6  A    between atoms: C_17  and  O_18
REMARK    7  A    between atoms: O_18  and  C_19
REMARK                            x       y       z     vdW  Elec       q    Type
REMARK                         _______ _______ _______ _____ _____    ______ ____
ROOT
ATOM      1  C   UNL     1      -2.519  12.522  22.048  0.00  0.00    +0.000 A 
ATOM      2  N   UNL     1      -1.759  12.588  23.128  0.00  0.00    +0.000 NA
ATOM      3  N   UNL     1      -0.548  12.024  22.849  0.00  0.00    +0.000 NA
ATOM      4  C   UNL     1      -0.582  11.617  21.601  0.00  0.00    +0.000 A 
ATOM      5  C   UNL     1       0.498  10.972  20.907  0.00  0.00    +0.000 A 
ATOM      6  O   UNL     1       1.598  10.752  21.416  0.00  0.00    +0.000 OA
ATOM      7  N   UNL     1       0.237  10.584  19.586  0.00  0.00    +0.000 N 
ATOM      8  C   UNL     1      -1.056  10.835  18.991  0.00  0.00    +0.000 A 
ATOM      9  C   UNL     1      -1.360  10.377  17.700  0.00  0.00    +0.000 A 
ATOM     10  C   UNL     1      -2.573  10.698  17.085  0.00  0.00    +0.000 A 
ATOM     11  C   UNL     1      -3.508  11.484  17.747  0.00  0.00    +0.000 A 
ATOM     12  C   UNL     1      -3.255  11.914  19.049  0.00  0.00    +0.000 A 
ATOM     13  C   UNL     1      -2.059  11.563  19.688  0.00  0.00    +0.000 A 
ATOM     14  N   UNL     1      -1.792  11.914  21.031  0.00  0.00    +0.000 N 
ENDROOT
BRANCH   1  16
ATOM     15  C   UNL     1      -4.434  13.264  23.462  0.00  0.00    +0.000 C 
ATOM     16  C   UNL     1      -3.924  13.022  22.048  0.00  0.00    +0.000 C 
ENDBRANCH   1  16
BRANCH   7  17
ATOM     17  C   UNL     1       1.418  10.277  18.750  0.00  0.00    +0.000 C 
BRANCH  17  18
ATOM     18  C   UNL     1       1.877   8.820  18.504  0.00  0.00    +0.000 C 
ATOM     19  O   UNL     1       2.276   8.484  17.387  0.00  0.00    +0.000 OA
ATOM     20  N   UNL     1       1.915   7.994  19.612  0.00  0.00    +0.000 N 
ATOM     21  H   UNL     1       1.358   8.279  20.417  0.00  0.00    +0.000 HD
BRANCH  20  22
ATOM     22  C   UNL     1       2.387   6.663  19.590  0.00  0.00    +0.000 A 
ATOM     23  C   UNL     1       3.183   6.271  18.517  0.00  0.00    +0.000 A 
ATOM     24  C   UNL     1       3.703   4.969  18.443  0.00  0.00    +0.000 A 
ATOM     25  C   UNL     1       3.364   4.010  19.398  0.00  0.00    +0.000 A 
ATOM     26  C   UNL     1       2.521   4.400  20.455  0.00  0.00    +0.000 A 
ATOM     27 CL   UNL     1       1.993   3.248  21.639  0.00  0.00    +0.000 Cl
ATOM     28  C   UNL     1       2.058   5.722  20.569  0.00  0.00    +0.000 A 
BRANCH  25  29
ATOM     29  O   UNL     1       3.799   2.703  19.376  0.00  0.00    +0.000 OA
ATOM     30  C   UNL     1       3.211   1.836  18.419  0.00  0.00    +0.000 C 
ENDBRANCH  25  29
ENDBRANCH  20  22
ENDBRANCH  17  18
ENDBRANCH   7  17
TORSDOF 5
ENDMDL
MODEL 3
REMARK VINA RESULT:      -8.1      6.124      9.133
REMARK  Name = 
REMARK  7 active torsions:
REMARK  status: ('A' for Active; 'I' for Inactive)
REMARK    1  A    between atoms: C_1  and  C_2
REMARK    2  A    between atoms: C_2  and  C_3
REMARK    3  A    between atoms: N_9  and  C_10
REMARK    4  A    between atoms: C_10  and  C_11
REMARK    5  A    between atoms: N_13  and  C_14
REMARK    6  A    between atoms: C_17  and  O_18
REMARK    7  A    between atoms: O_18  and  C_19
REMARK                            x       y       z     vdW  Elec       q    Type
REMARK                         _______ _______ _______ _____ _____    ______ ____
ROOT
ATOM      1  C   UNL     1      -2.788  13.127  21.064  0.00  0.00    +0.000 A 
ATOM      2  N   UNL     1      -2.121  13.493  22.145  0.00  0.00    +0.000 NA
ATOM      3  N   UNL     1      -0.893  12.899  22.127  0.00  0.00    +0.000 NA
ATOM      4  C   UNL     1      -0.823  12.172  21.035  0.00  0.00    +0.000 A 
ATOM      5  C   UNL     1       0.309  11.387  20.629  0.00  0.00    +0.000 A 
ATOM      6  O   UNL     1       1.362  11.332  21.266  0.00  0.00    +0.000 OA
ATOM      7  N   UNL     1       0.157  10.656  19.443  0.00  0.00    +0.000 N 
ATOM      8  C   UNL     1      -1.081  10.714  18.700  0.00  0.00    +0.000 A 
ATOM      9  C   UNL     1      -1.277   9.922  17.558  0.00  0.00    +0.000 A 
ATOM     10  C   UNL     1      -2.434  10.044  16.782  0.00  0.00    +0.000 A 
ATOM     11  C   UNL     1      -3.418  10.960  17.132  0.00  0.00    +0.000 A 
ATOM     12  C   UNL     1      -3.273  11.726  18.287  0.00  0.00    +0.000 A 
ATOM     13  C   UNL     1      -2.135  11.581  19.092  0.00  0.00    +0.000 A 
ATOM     14  N   UNL     1      -1.981  12.284  20.310  0.00  0.00    +0.000 N 
ENDROOT
BRANCH   1  16
ATOM     15  C   UNL     1      -5.204  12.620  21.413  0.00  0.00    +0.000 C 
ATOM     16  C   UNL     1      -4.187  13.582  20.817  0.00  0.00    +0.000 C 
ENDBRANCH   1  16
BRANCH   7  17
ATOM     17  C   UNL     1       1.403  10.159  18.819  0.00  0.00    +0.000 C 
BRANCH  17  18
ATOM     18  C   UNL     1       1.880   8.700  19.016  0.00  0.00    +0.000 C 
ATOM     19  O   UNL     1       1.584   8.093  20.046  0.00  0.00    +0.000 OA
ATOM     20  N   UNL     1       2.535   8.119  17.945  0.00  0.00    +0.000 N 
ATOM     21  H   UNL     1       2.933   8.751  17.252  0.00  0.00    +0.000 HD
BRANCH  20  22
ATOM     22  C   UNL     1       2.964   6.774  17.916  0.00  0.00    +0.000 A 
ATOM     23  C   UNL     1       1.998   5.778  18.041  0.00  0.00    +0.000 A 
ATOM     24  C   UNL     1       2.353   4.421  18.000  0.00  0.00    +0.000 A 
ATOM     25  C   UNL     1       3.692   4.035  17.920  0.00  0.00    +0.000 A 
ATOM     26  C   UNL     1       4.667   5.047  17.841  0.00  0.00    +0.000 A 
ATOM     27 CL   UNL     1       6.355   4.651  17.815  0.00  0.00    +0.000 Cl
ATOM     28  C   UNL     1       4.307   6.406  17.809  0.00  0.00    +0.000 A 
BRANCH  25  29
ATOM     29  O   UNL     1       4.125   2.728  17.914  0.00  0.00    +0.000 OA
ATOM     30  C   UNL     1       3.292   1.761  18.535  0.00  0.00    +0.000 C 
ENDBRANCH  25  29
ENDBRANCH  20  22
ENDBRANCH  17  18
ENDBRANCH   7  17
TORSDOF 5
ENDMDL
MODEL 4
REMARK VINA RESULT:      -8.1      5.352      7.996
REMARK  Name = 
REMARK  7 active torsions:
REMARK  status: ('A' for Active; 'I' for Inactive)
REMARK    1  A    between atoms: C_1  and  C_2
REMARK    2  A    between atoms: C_2  and  C_3
REMARK    3  A    between atoms: N_9  and  C_10
REMARK    4  A    between atoms: C_10  and  C_11
REMARK    5  A    between atoms: N_13  and  C_14
REMARK    6  A    between atoms: C_17  and  O_18
REMARK    7  A    between atoms: O_18  and  C_19
REMARK                            x       y       z     vdW  Elec       q    Type
REMARK                         _______ _______ _______ _____ _____    ______ ____
ROOT
ATOM      1  C   UNL     1       2.025   2.961  19.100  0.00  0.00    +0.000 A 
ATOM      2  N   UNL     1       1.193   2.834  20.119  0.00  0.00    +0.000 NA
ATOM      3  N   UNL     1       0.983   4.064  20.671  0.00  0.00    +0.000 NA
ATOM      4  C   UNL     1       1.692   4.930  19.984  0.00  0.00    +0.000 A 
ATOM      5  C   UNL     1       1.747   6.344  20.233  0.00  0.00    +0.000 A 
ATOM      6  O   UNL     1       1.103   6.904  21.121  0.00  0.00    +0.000 OA
ATOM      7  N   UNL     1       2.598   7.083  19.400  0.00  0.00    +0.000 N 
ATOM      8  C   UNL     1       3.360   6.425  18.362  0.00  0.00    +0.000 A 
ATOM      9  C   UNL     1       4.280   7.138  17.577  0.00  0.00    +0.000 A 
ATOM     10  C   UNL     1       4.949   6.528  16.512  0.00  0.00    +0.000 A 
ATOM     11  C   UNL     1       4.712   5.193  16.209  0.00  0.00    +0.000 A 
ATOM     12  C   UNL     1       3.840   4.446  17.000  0.00  0.00    +0.000 A 
ATOM     13  C   UNL     1       3.197   5.040  18.094  0.00  0.00    +0.000 A 
ATOM     14  N   UNL     1       2.362   4.302  18.967  0.00  0.00    +0.000 N 
ENDROOT
BRANCH   1  16
ATOM     15  C   UNL     1       3.851   1.294  18.775  0.00  0.00    +0.000 C 
ATOM     16  C   UNL     1       2.484   1.779  18.313  0.00  0.00    +0.000 C 
ENDBRANCH   1  16
BRANCH   7  17
ATOM     17  C   UNL     1       2.387   8.547  19.383  0.00  0.00    +0.000 C 
BRANCH  17  18
ATOM     18  C   UNL     1       1.295   9.196  18.500  0.00  0.00    +0.000 C 
ATOM     19  O   UNL     1       1.407   9.174  17.273  0.00  0.00    +0.000 OA
ATOM     20  N   UNL     1       0.179   9.677  19.159  0.00  0.00    +0.000 N 
ATOM     21  H   UNL     1       0.279   9.864  20.156  0.00  0.00    +0.000 HD
BRANCH  20  22
ATOM     22  C   UNL     1      -0.950  10.223  18.508  0.00  0.00    +0.000 A 
ATOM     23  C   UNL     1      -1.666  11.218  19.169  0.00  0.00    +0.000 A 
ATOM     24  C   UNL     1      -2.785  11.818  18.571  0.00  0.00    +0.000 A 
ATOM     25  C   UNL     1      -3.260  11.372  17.337  0.00  0.00    +0.000 A 
ATOM     26  C   UNL     1      -2.559  10.334  16.696  0.00  0.00    +0.000 A 
ATOM     27 CL   UNL     1      -3.130   9.673  15.198  0.00  0.00    +0.000 Cl
ATOM     28  C   UNL     1      -1.397   9.781  17.261  0.00  0.00    +0.000 A 
BRANCH  25  29
ATOM     29  O   UNL     1      -4.372  11.880  16.703  0.00  0.00    +0.000 OA
ATOM     30  C   UNL     1      -5.556  12.020  17.473  0.00  0.00    +0.000 C 
ENDBRANCH  25  29
ENDBRANCH  20  22
ENDBRANCH  17  18
ENDBRANCH   7  17
TORSDOF 5
ENDMDL
MODEL 5
REMARK VINA RESULT:      -8.0      6.463      9.417
REMARK  Name = 
REMARK  7 active torsions:
REMARK  status: ('A' for Active; 'I' for Inactive)
REMARK    1  A    between atoms: C_1  and  C_2
REMARK    2  A    between atoms: C_2  and  C_3
REMARK    3  A    between atoms: N_9  and  C_10
REMARK    4  A    between atoms: C_10  and  C_11
REMARK    5  A    between atoms: N_13  and  C_14
REMARK    6  A    between atoms: C_17  and  O_18
REMARK    7  A    between atoms: O_18  and  C_19
REMARK                            x       y       z     vdW  Elec       q    Type
REMARK                         _______ _______ _______ _____ _____    ______ ____
ROOT
ATOM      1  C   UNL     1      -2.959  13.151  20.877  0.00  0.00    +0.000 A 
ATOM      2  N   UNL     1      -2.297  13.551  21.949  0.00  0.00    +0.000 NA
ATOM      3  N   UNL     1      -1.070  12.955  21.957  0.00  0.00    +0.000 NA
ATOM      4  C   UNL     1      -0.996  12.193  20.890  0.00  0.00    +0.000 A 
ATOM      5  C   UNL     1       0.138  11.393  20.516  0.00  0.00    +0.000 A 
ATOM      6  O   UNL     1       1.187  11.357  21.161  0.00  0.00    +0.000 OA
ATOM      7  N   UNL     1      -0.009  10.624  19.354  0.00  0.00    +0.000 N 
ATOM      8  C   UNL     1      -1.242  10.660  18.601  0.00  0.00    +0.000 A 
ATOM      9  C   UNL     1      -1.433   9.832  17.484  0.00  0.00    +0.000 A 
ATOM     10  C   UNL     1      -2.585   9.930  16.699  0.00  0.00    +0.000 A 
ATOM     11  C   UNL     1      -3.570  10.859  17.013  0.00  0.00    +0.000 A 
ATOM     12  C   UNL     1      -3.430  11.662  18.144  0.00  0.00    +0.000 A 
ATOM     13  C   UNL     1      -2.298  11.541  18.960  0.00  0.00    +0.000 A 
ATOM     14  N   UNL     1      -2.149  12.283  20.155  0.00  0.00    +0.000 N 
ENDROOT
BRANCH   1  16
ATOM     15  C   UNL     1      -4.536  15.082  20.901  0.00  0.00    +0.000 C 
ATOM     16  C   UNL     1      -4.355  13.600  20.606  0.00  0.00    +0.000 C 
ENDBRANCH   1  16
BRANCH   7  17
ATOM     17  C   UNL     1       1.240  10.105  18.753  0.00  0.00    +0.000 C 
BRANCH  17  18
ATOM     18  C   UNL     1       1.770   8.690  19.085  0.00  0.00    +0.000 C 
ATOM     19  O   UNL     1       1.661   8.249  20.230  0.00  0.00    +0.000 OA
ATOM     20  N   UNL     1       2.247   7.949  18.019  0.00  0.00    +0.000 N 
ATOM     21  H   UNL     1       2.513   8.465  17.182  0.00  0.00    +0.000 HD
BRANCH  20  22
ATOM     22  C   UNL     1       2.690   6.611  18.122  0.00  0.00    +0.000 A 
ATOM     23  C   UNL     1       4.059   6.369  18.043  0.00  0.00    +0.000 A 
ATOM     24  C   UNL     1       4.569   5.067  18.158  0.00  0.00    +0.000 A 
ATOM     25  C   UNL     1       3.711   3.972  18.269  0.00  0.00    +0.000 A 
ATOM     26  C   UNL     1       2.326   4.219  18.302  0.00  0.00    +0.000 A 
ATOM     27 CL   UNL     1       1.193   2.908  18.361  0.00  0.00    +0.000 Cl
ATOM     28  C   UNL     1       1.817   5.529  18.258  0.00  0.00    +0.000 A 
BRANCH  25  29
ATOM     29  O   UNL     1       4.128   2.662  18.347  0.00  0.00    +0.000 OA
ATOM     30  C   UNL     1       4.323   2.115  19.642  0.00  0.00    +0.000 C 
ENDBRANCH  25  29
ENDBRANCH  20  22
ENDBRANCH  17  18
ENDBRANCH   7  17
TORSDOF 5
ENDMDL
MODEL 6
REMARK VINA RESULT:      -8.0      6.961      9.598
REMARK  Name = 
REMARK  7 active torsions:
REMARK  status: ('A' for Active; 'I' for Inactive)
REMARK    1  A    between atoms: C_1  and  C_2
REMARK    2  A    between atoms: C_2  and  C_3
REMARK    3  A    between atoms: N_9  and  C_10
REMARK    4  A    between atoms: C_10  and  C_11
REMARK    5  A    between atoms: N_13  and  C_14
REMARK    6  A    between atoms: C_17  and  O_18
REMARK    7  A    between atoms: O_18  and  C_19
REMARK                            x       y       z     vdW  Elec       q    Type
REMARK                         _______ _______ _______ _____ _____    ______ ____
ROOT
ATOM      1  C   UNL     1      -4.751  12.751  20.048  0.00  0.00    +0.000 A 
ATOM      2  N   UNL     1      -4.435  13.232  21.238  0.00  0.00    +0.000 NA
ATOM      3  N   UNL     1      -3.122  12.959  21.489  0.00  0.00    +0.000 NA
ATOM      4  C   UNL     1      -2.649  12.310  20.450  0.00  0.00    +0.000 A 
ATOM      5  C   UNL     1      -1.299  11.842  20.305  0.00  0.00    +0.000 A 
ATOM      6  O   UNL     1      -0.422  12.025  21.149  0.00  0.00    +0.000 OA
ATOM      7  N   UNL     1      -1.015  11.137  19.127  0.00  0.00    +0.000 N 
ATOM      8  C   UNL     1      -2.047  10.915  18.139  0.00  0.00    +0.000 A 
ATOM      9  C   UNL     1      -1.799  10.139  16.996  0.00  0.00    +0.000 A 
ATOM     10  C   UNL     1      -2.763  10.000  15.993  0.00  0.00    +0.000 A 
ATOM     11  C   UNL     1      -3.993  10.633  16.111  0.00  0.00    +0.000 A 
ATOM     12  C   UNL     1      -4.286  11.371  17.258  0.00  0.00    +0.000 A 
ATOM     13  C   UNL     1      -3.341  11.482  18.286  0.00  0.00    +0.000 A 
ATOM     14  N   UNL     1      -3.622  12.159  19.496  0.00  0.00    +0.000 N 
ENDROOT
BRANCH   1  16
ATOM     15  C   UNL     1      -6.985  11.655  19.892  0.00  0.00    +0.000 C 
ATOM     16  C   UNL     1      -6.136  12.857  19.504  0.00  0.00    +0.000 C 
ENDBRANCH   1  16
BRANCH   7  17
ATOM     17  C   UNL     1       0.417  10.984  18.787  0.00  0.00    +0.000 C 
BRANCH  17  18
ATOM     18  C   UNL     1       1.158   9.641  18.995  0.00  0.00    +0.000 C 
ATOM     19  O   UNL     1       1.076   9.059  20.077  0.00  0.00    +0.000 OA
ATOM     20  N   UNL     1       1.792   9.113  17.885  0.00  0.00    +0.000 N 
ATOM     21  H   UNL     1       2.002   9.759  17.125  0.00  0.00    +0.000 HD
BRANCH  20  22
ATOM     22  C   UNL     1       2.443   7.860  17.869  0.00  0.00    +0.000 A 
ATOM     23  C   UNL     1       3.793   7.830  17.527  0.00  0.00    +0.000 A 
ATOM     24  C   UNL     1       4.506   6.622  17.511  0.00  0.00    +0.000 A 
ATOM     25  C   UNL     1       3.860   5.409  17.753  0.00  0.00    +0.000 A 
ATOM     26  C   UNL     1       2.485   5.441  18.052  0.00  0.00    +0.000 A 
ATOM     27 CL   UNL     1       1.596   3.971  18.290  0.00  0.00    +0.000 Cl
ATOM     28  C   UNL     1       1.786   6.657  18.139  0.00  0.00    +0.000 A 
BRANCH  25  29
ATOM     29  O   UNL     1       4.478   4.178  17.718  0.00  0.00    +0.000 OA
ATOM     30  C   UNL     1       5.008   3.749  16.473  0.00  0.00    +0.000 C 
ENDBRANCH  25  29
ENDBRANCH  20  22
ENDBRANCH  17  18
ENDBRANCH   7  17
TORSDOF 5
ENDMDL
MODEL 7
REMARK VINA RESULT:      -7.9      6.112      9.086
REMARK  Name = 
REMARK  7 active torsions:
REMARK  status: ('A' for Active; 'I' for Inactive)
REMARK    1  A    between atoms: C_1  and  C_2
REMARK    2  A    between atoms: C_2  and  C_3
REMARK    3  A    between atoms: N_9  and  C_10
REMARK    4  A    between atoms: C_10  and  C_11
REMARK    5  A    between atoms: N_13  and  C_14
REMARK    6  A    between atoms: C_17  and  O_18
REMARK    7  A    between atoms: O_18  and  C_19
REMARK                            x       y       z     vdW  Elec       q    Type
REMARK                         _______ _______ _______ _____ _____    ______ ____
ROOT
ATOM      1  C   UNL     1      -2.626  12.464  22.136  0.00  0.00    +0.000 A 
ATOM      2  N   UNL     1      -1.877  12.480  23.225  0.00  0.00    +0.000 NA
ATOM      3  N   UNL     1      -0.648  11.970  22.923  0.00  0.00    +0.000 NA
ATOM      4  C   UNL     1      -0.660  11.645  21.651  0.00  0.00    +0.000 A 
ATOM      5  C   UNL     1       0.444  11.078  20.927  0.00  0.00    +0.000 A 
ATOM      6  O   UNL     1       1.546  10.856  21.431  0.00  0.00    +0.000 OA
ATOM      7  N   UNL     1       0.205  10.771  19.580  0.00  0.00    +0.000 N 
ATOM      8  C   UNL     1      -1.090  11.024  18.990  0.00  0.00    +0.000 A 
ATOM      9  C   UNL     1      -1.370  10.644  17.668  0.00  0.00    +0.000 A 
ATOM     10  C   UNL     1      -2.587  10.971  17.063  0.00  0.00    +0.000 A 
ATOM     11  C   UNL     1      -3.549  11.685  17.766  0.00  0.00    +0.000 A 
ATOM     12  C   UNL     1      -3.319  12.035  19.096  0.00  0.00    +0.000 A 
ATOM     13  C   UNL     1      -2.118  11.676  19.722  0.00  0.00    +0.000 A 
ATOM     14  N   UNL     1      -1.873  11.945  21.089  0.00  0.00    +0.000 N 
ENDROOT
BRANCH   1  16
ATOM     15  C   UNL     1      -4.155  14.418  21.890  0.00  0.00    +0.000 C 
ATOM     16  C   UNL     1      -4.045  12.923  22.155  0.00  0.00    +0.000 C 
ENDBRANCH   1  16
BRANCH   7  17
ATOM     17  C   UNL     1       1.401  10.553  18.737  0.00  0.00    +0.000 C 
BRANCH  17  18
ATOM     18  C   UNL     1       1.886   9.129  18.375  0.00  0.00    +0.000 C 
ATOM     19  O   UNL     1       2.363   8.910  17.260  0.00  0.00    +0.000 OA
ATOM     20  N   UNL     1       1.851   8.192  19.391  0.00  0.00    +0.000 N 
ATOM     21  H   UNL     1       1.238   8.392  20.180  0.00  0.00    +0.000 HD
BRANCH  20  22
ATOM     22  C   UNL     1       2.332   6.870  19.265  0.00  0.00    +0.000 A 
ATOM     23  C   UNL     1       2.128   5.996  20.330  0.00  0.00    +0.000 A 
ATOM     24  C   UNL     1       2.561   4.663  20.262  0.00  0.00    +0.000 A 
ATOM     25  C   UNL     1       3.285   4.203  19.161  0.00  0.00    +0.000 A 
ATOM     26  C   UNL     1       3.529   5.104  18.108  0.00  0.00    +0.000 A 
ATOM     27 CL   UNL     1       4.485   4.631  16.741  0.00  0.00    +0.000 Cl
ATOM     28  C   UNL     1       3.033   6.419  18.143  0.00  0.00    +0.000 A 
BRANCH  25  29
ATOM     29  O   UNL     1       3.779   2.924  19.035  0.00  0.00    +0.000 OA
ATOM     30  C   UNL     1       4.215   2.273  20.219  0.00  0.00    +0.000 C 
ENDBRANCH  25  29
ENDBRANCH  20  22
ENDBRANCH  17  18
ENDBRANCH   7  17
TORSDOF 5
ENDMDL
MODEL 8
REMARK VINA RESULT:      -7.8      5.409      8.224
REMARK  Name = 
REMARK  7 active torsions:
REMARK  status: ('A' for Active; 'I' for Inactive)
REMARK    1  A    between atoms: C_1  and  C_2
REMARK    2  A    between atoms: C_2  and  C_3
REMARK    3  A    between atoms: N_9  and  C_10
REMARK    4  A    between atoms: C_10  and  C_11
REMARK    5  A    between atoms: N_13  and  C_14
REMARK    6  A    between atoms: C_17  and  O_18
REMARK    7  A    between atoms: O_18  and  C_19
REMARK                            x       y       z     vdW  Elec       q    Type
REMARK                         _______ _______ _______ _____ _____    ______ ____
ROOT
ATOM      1  C   UNL     1       4.427   5.070  16.911  0.00  0.00    +0.000 A 
ATOM      2  N   UNL     1       4.706   6.181  16.251  0.00  0.00    +0.000 NA
ATOM      3  N   UNL     1       4.111   7.231  16.887  0.00  0.00    +0.000 NA
ATOM      4  C   UNL     1       3.471   6.751  17.928  0.00  0.00    +0.000 A 
ATOM      5  C   UNL     1       2.716   7.527  18.872  0.00  0.00    +0.000 A 
ATOM      6  O   UNL     1       2.609   8.753  18.813  0.00  0.00    +0.000 OA
ATOM      7  N   UNL     1       2.080   6.807  19.892  0.00  0.00    +0.000 N 
ATOM      8  C   UNL     1       2.199   5.368  19.957  0.00  0.00    +0.000 A 
ATOM      9  C   UNL     1       1.499   4.626  20.922  0.00  0.00    +0.000 A 
ATOM     10  C   UNL     1       1.684   3.247  21.049  0.00  0.00    +0.000 A 
ATOM     11  C   UNL     1       2.573   2.580  20.216  0.00  0.00    +0.000 A 
ATOM     12  C   UNL     1       3.247   3.281  19.217  0.00  0.00    +0.000 A 
ATOM     13  C   UNL     1       3.037   4.657  19.056  0.00  0.00    +0.000 A 
ATOM     14  N   UNL     1       3.642   5.393  18.012  0.00  0.00    +0.000 N 
ENDROOT
BRANCH   1  16
ATOM     15  C   UNL     1       5.961   3.873  15.352  0.00  0.00    +0.000 C 
ATOM     16  C   UNL     1       4.903   3.738  16.438  0.00  0.00    +0.000 C 
ENDBRANCH   1  16
BRANCH   7  17
ATOM     17  C   UNL     1       1.629   7.592  21.063  0.00  0.00    +0.000 C 
BRANCH  17  18
ATOM     18  C   UNL     1       0.334   8.437  21.019  0.00  0.00    +0.000 C 
ATOM     19  O   UNL     1      -0.712   7.978  21.479  0.00  0.00    +0.000 OA
ATOM     20  N   UNL     1       0.464   9.732  20.552  0.00  0.00    +0.000 N 
ATOM     21  H   UNL     1       1.287   9.938  19.988  0.00  0.00    +0.000 HD
BRANCH  20  22
ATOM     22  C   UNL     1      -0.592  10.671  20.521  0.00  0.00    +0.000 A 
ATOM     23  C   UNL     1      -1.243  10.881  19.309  0.00  0.00    +0.000 A 
ATOM     24  C   UNL     1      -2.314  11.784  19.212  0.00  0.00    +0.000 A 
ATOM     25  C   UNL     1      -2.696  12.557  20.309  0.00  0.00    +0.000 A 
ATOM     26  C   UNL     1      -2.003  12.373  21.520  0.00  0.00    +0.000 A 
ATOM     27 CL   UNL     1      -2.367  13.349  22.907  0.00  0.00    +0.000 Cl
ATOM     28  C   UNL     1      -0.978  11.418  21.637  0.00  0.00    +0.000 A 
BRANCH  25  29
ATOM     29  O   UNL     1      -3.708  13.491  20.287  0.00  0.00    +0.000 OA
ATOM     30  C   UNL     1      -5.042  13.009  20.318  0.00  0.00    +0.000 C 
ENDBRANCH  25  29
ENDBRANCH  20  22
ENDBRANCH  17  18
ENDBRANCH   7  17
TORSDOF 5
ENDMDL
MODEL 9
REMARK VINA RESULT:      -7.7      6.539      9.598
REMARK  Name = 
REMARK  7 active torsions:
REMARK  status: ('A' for Active; 'I' for Inactive)
REMARK    1  A    between atoms: C_1  and  C_2
REMARK    2  A    between atoms: C_2  and  C_3
REMARK    3  A    between atoms: N_9  and  C_10
REMARK    4  A    between atoms: C_10  and  C_11
REMARK    5  A    between atoms: N_13  and  C_14
REMARK    6  A    between atoms: C_17  and  O_18
REMARK    7  A    between atoms: O_18  and  C_19
REMARK                            x       y       z     vdW  Elec       q    Type
REMARK                         _______ _______ _______ _____ _____    ______ ____
ROOT
ATOM      1  C   UNL     1      -3.855  11.452  17.651  0.00  0.00    +0.000 A 
ATOM      2  N   UNL     1      -3.520  10.807  16.547  0.00  0.00    +0.000 NA
ATOM      3  N   UNL     1      -2.250  10.328  16.685  0.00  0.00    +0.000 NA
ATOM      4  C   UNL     1      -1.820  10.688  17.872  0.00  0.00    +0.000 A 
ATOM      5  C   UNL     1      -0.528  10.377  18.419  0.00  0.00    +0.000 A 
ATOM      6  O   UNL     1       0.318   9.708  17.826  0.00  0.00    +0.000 OA
ATOM      7  N   UNL     1      -0.260  10.892  19.694  0.00  0.00    +0.000 N 
ATOM      8  C   UNL     1      -1.250  11.685  20.388  0.00  0.00    +0.000 A 
ATOM      9  C   UNL     1      -0.964  12.277  21.628  0.00  0.00    +0.000 A 
ATOM     10  C   UNL     1      -1.947  12.964  22.346  0.00  0.00    +0.000 A 
ATOM     11  C   UNL     1      -3.236  13.073  21.840  0.00  0.00    +0.000 A 
ATOM     12  C   UNL     1      -3.538  12.537  20.589  0.00  0.00    +0.000 A 
ATOM     13  C   UNL     1      -2.548  11.882  19.845  0.00  0.00    +0.000 A 
ATOM     14  N   UNL     1      -2.790  11.387  18.542  0.00  0.00    +0.000 N 
ENDROOT
BRANCH   1  16
ATOM     15  C   UNL     1      -6.279  11.139  18.142  0.00  0.00    +0.000 C 
ATOM     16  C   UNL     1      -5.177  12.128  17.792  0.00  0.00    +0.000 C 
ENDBRANCH   1  16
BRANCH   7  17
ATOM     17  C   UNL     1       0.878  10.283  20.418  0.00  0.00    +0.000 C 
BRANCH  17  18
ATOM     18  C   UNL     1       1.042   8.748  20.523  0.00  0.00    +0.000 C 
ATOM     19  O   UNL     1       0.321   8.107  21.289  0.00  0.00    +0.000 OA
ATOM     20  N   UNL     1       1.937   8.167  19.644  0.00  0.00    +0.000 N 
ATOM     21  H   UNL     1       2.638   8.779  19.230  0.00  0.00    +0.000 HD
BRANCH  20  22
ATOM     22  C   UNL     1       2.151   6.774  19.541  0.00  0.00    +0.000 A 
ATOM     23  C   UNL     1       2.443   6.250  18.284  0.00  0.00    +0.000 A 
ATOM     24  C   UNL     1       2.687   4.879  18.113  0.00  0.00    +0.000 A 
ATOM     25  C   UNL     1       2.558   3.993  19.184  0.00  0.00    +0.000 A 
ATOM     26  C   UNL     1       2.217   4.522  20.442  0.00  0.00    +0.000 A 
ATOM     27 CL   UNL     1       1.963   3.478  21.803  0.00  0.00    +0.000 Cl
ATOM     28  C   UNL     1       2.042   5.904  20.629  0.00  0.00    +0.000 A 
BRANCH  25  29
ATOM     29  O   UNL     1       2.742   2.631  19.091  0.00  0.00    +0.000 OA
ATOM     30  C   UNL     1       4.061   2.137  19.261  0.00  0.00    +0.000 C 
ENDBRANCH  25  29
ENDBRANCH  20  22
ENDBRANCH  17  18
ENDBRANCH   7  17
TORSDOF 5
ENDMDL
