MODEL 1
REMARK VINA RESULT:      -8.2      0.000      0.000
REMARK  Name = 
REMARK  9 active torsions:
REMARK  status: ('A' for Active; 'I' for Inactive)
REMARK    1  A    between atoms: C_1  and  O_2
REMARK    2  A    between atoms: O_2  and  C_3
REMARK    3  A    between atoms: C_15  and  N_16
REMARK    4  A    between atoms: N_16  and  C_17
REMARK    5  A    between atoms: C_17  and  C_18
REMARK    6  A    between atoms: C_18  and  C_19
REMARK    7  A    between atoms: C_19  and  N_20
REMARK    8  A    between atoms: C_25  and  C_26
REMARK    9  A    between atoms: C_29  and  C_30
REMARK                            x       y       z     vdW  Elec       q    Type
REMARK                         _______ _______ _______ _____ _____    ______ ____
ROOT
ATOM      1  N   UNL     1       1.499  10.290  17.780  0.00  0.00    +0.000 N 
ATOM      2  H   UNL     1       2.283  10.816  17.404  0.00  0.00    +0.000 HD
ENDROOT
BRANCH   1  15
ATOM      3  C   UNL     1       2.714  13.992  19.510  0.00  0.00    +0.000 A 
ATOM      4  C   UNL     1       1.740  14.864  19.967  0.00  0.00    +0.000 A 
ATOM      5  C   UNL     1       0.394  14.513  19.852  0.00  0.00    +0.000 A 
ATOM      6  C   UNL     1      -0.013  13.307  19.296  0.00  0.00    +0.000 A 
ATOM      7  N   UNL     1      -1.324  13.089  19.207  0.00  0.00    +0.000 NA
ATOM      8  C   UNL     1      -1.780  11.959  18.660  0.00  0.00    +0.000 A 
ATOM      9  C   UNL     1      -3.164  11.846  18.597  0.00  0.00    +0.000 A 
ATOM     10  C   UNL     1      -3.789  10.726  18.067  0.00  0.00    +0.000 A 
ATOM     11 CL   UNL     1      -5.503  10.626  18.004  0.00  0.00    +0.000 Cl
ATOM     12  C   UNL     1      -3.025   9.684  17.597  0.00  0.00    +0.000 A 
ATOM     13  C   UNL     1      -1.636   9.787  17.657  0.00  0.00    +0.000 A 
ATOM     14  C   UNL     1      -0.943  10.929  18.171  0.00  0.00    +0.000 A 
ATOM     15  C   UNL     1       0.486  11.155  18.277  0.00  0.00    +0.000 A 
ATOM     16  C   UNL     1       0.951  12.394  18.839  0.00  0.00    +0.000 A 
ATOM     17  C   UNL     1       2.316  12.775  18.951  0.00  0.00    +0.000 A 
BRANCH   3  19
ATOM     18  C   UNL     1       4.660  14.777  18.395  0.00  0.00    +0.000 C 
ATOM     19  O   UNL     1       4.065  14.199  19.551  0.00  0.00    +0.000 OA
ENDBRANCH   3  19
ENDBRANCH   1  15
BRANCH   1  20
ATOM     20  C   UNL     1       1.893   9.073  18.457  0.00  0.00    +0.000 C 
BRANCH  20  21
ATOM     21  C   UNL     1       2.561   8.058  17.542  0.00  0.00    +0.000 C 
BRANCH  21  22
ATOM     22  C   UNL     1       3.622   7.262  18.324  0.00  0.00    +0.000 C 
BRANCH  22  23
ATOM     23  N   UNL     1       4.317   6.244  17.528  0.00  0.00    +0.000 N 
ATOM     24  C   UNL     1       5.436   6.552  16.764  0.00  0.00    +0.000 C 
ATOM     25  O   UNL     1       5.970   7.656  16.736  0.00  0.00    +0.000 OA
ATOM     26  C   UNL     1       5.947   5.376  15.962  0.00  0.00    +0.000 C 
ATOM     27  S   UNL     1       4.935   3.955  16.407  0.00  0.00    +0.000 S 
ATOM     28  C   UNL     1       3.695   4.969  17.243  0.00  0.00    +0.000 C 
BRANCH  28  29
ATOM     29  C   UNL     1       3.082   4.291  18.445  0.00  0.00    +0.000 A 
ATOM     30  C   UNL     1       3.862   3.635  19.410  0.00  0.00    +0.000 A 
ATOM     31  C   UNL     1       3.271   3.065  20.539  0.00  0.00    +0.000 A 
ATOM     32  C   UNL     1       1.885   3.120  20.714  0.00  0.00    +0.000 A 
ATOM     33  C   UNL     1       1.231   2.474  21.899  0.00  0.00    +0.000 C 
ATOM     34  C   UNL     1       1.102   3.780  19.763  0.00  0.00    +0.000 A 
ATOM     35  C   UNL     1       1.694   4.360  18.641  0.00  0.00    +0.000 A 
ENDBRANCH  28  29
ENDBRANCH  22  23
ENDBRANCH  21  22
ENDBRANCH  20  21
ENDBRANCH   1  20
TORSDOF 7
ENDMDL
MODEL 2
REMARK VINA RESULT:      -8.0      0.671      1.059
REMARK  Name = 
REMARK  9 active torsions:
REMARK  status: ('A' for Active; 'I' for Inactive)
REMARK    1  A    between atoms: C_1  and  O_2
REMARK    2  A    between atoms: O_2  and  C_3
REMARK    3  A    between atoms: C_15  and  N_16
REMARK    4  A    between atoms: N_16  and  C_17
REMARK    5  A    between atoms: C_17  and  C_18
REMARK    6  A    between atoms: C_18  and  C_19
REMARK    7  A    between atoms: C_19  and  N_20
REMARK    8  A    between atoms: C_25  and  C_26
REMARK    9  A    between atoms: C_29  and  C_30
REMARK                            x       y       z     vdW  Elec       q    Type
REMARK                         _______ _______ _______ _____ _____    ______ ____
ROOT
ATOM      1  N   UNL     1       1.191  10.347  18.004  0.00  0.00    +0.000 N 
ATOM      2  H   UNL     1       2.013  10.912  17.807  0.00  0.00    +0.000 HD
ENDROOT
BRANCH   1  15
ATOM      3  C   UNL     1       2.291  13.672  20.435  0.00  0.00    +0.000 A 
ATOM      4  C   UNL     1       1.289  14.468  20.965  0.00  0.00    +0.000 A 
ATOM      5  C   UNL     1      -0.046  14.166  20.694  0.00  0.00    +0.000 A 
ATOM      6  C   UNL     1      -0.416  13.082  19.909  0.00  0.00    +0.000 A 
ATOM      7  N   UNL     1      -1.717  12.906  19.688  0.00  0.00    +0.000 NA
ATOM      8  C   UNL     1      -2.137  11.896  18.922  0.00  0.00    +0.000 A 
ATOM      9  C   UNL     1      -3.513  11.819  18.741  0.00  0.00    +0.000 A 
ATOM     10  C   UNL     1      -4.102  10.819  17.979  0.00  0.00    +0.000 A 
ATOM     11 CL   UNL     1      -5.807  10.761  17.776  0.00  0.00    +0.000 Cl
ATOM     12  C   UNL     1      -3.311   9.861  17.392  0.00  0.00    +0.000 A 
ATOM     13  C   UNL     1      -1.929   9.928  17.570  0.00  0.00    +0.000 A 
ATOM     14  C   UNL     1      -1.270  10.951  18.323  0.00  0.00    +0.000 A 
ATOM     15  C   UNL     1       0.148  11.131  18.570  0.00  0.00    +0.000 A 
ATOM     16  C   UNL     1       0.575  12.245  19.371  0.00  0.00    +0.000 A 
ATOM     17  C   UNL     1       1.930  12.577  19.646  0.00  0.00    +0.000 A 
BRANCH   3  19
ATOM     18  C   UNL     1       4.118  15.184  20.588  0.00  0.00    +0.000 C 
ATOM     19  O   UNL     1       3.636  13.845  20.609  0.00  0.00    +0.000 OA
ENDBRANCH   3  19
ENDBRANCH   1  15
BRANCH   1  20
ATOM     20  C   UNL     1       1.506   9.012  18.464  0.00  0.00    +0.000 C 
BRANCH  20  21
ATOM     21  C   UNL     1       2.494   8.279  17.570  0.00  0.00    +0.000 C 
BRANCH  21  22
ATOM     22  C   UNL     1       3.344   7.307  18.409  0.00  0.00    +0.000 C 
BRANCH  22  23
ATOM     23  N   UNL     1       4.027   6.274  17.623  0.00  0.00    +0.000 N 
ATOM     24  C   UNL     1       5.135   6.566  16.838  0.00  0.00    +0.000 C 
ATOM     25  O   UNL     1       5.669   7.669  16.780  0.00  0.00    +0.000 OA
ATOM     26  C   UNL     1       5.634   5.374  16.051  0.00  0.00    +0.000 C 
ATOM     27  S   UNL     1       4.628   3.963  16.539  0.00  0.00    +0.000 S 
ATOM     28  C   UNL     1       3.400   4.994  17.373  0.00  0.00    +0.000 C 
BRANCH  28  29
ATOM     29  C   UNL     1       2.805   4.340  18.596  0.00  0.00    +0.000 A 
ATOM     30  C   UNL     1       1.423   4.136  18.735  0.00  0.00    +0.000 A 
ATOM     31  C   UNL     1       0.908   3.479  19.854  0.00  0.00    +0.000 A 
ATOM     32  C   UNL     1       1.762   3.033  20.868  0.00  0.00    +0.000 A 
ATOM     33  C   UNL     1       1.219   2.367  22.096  0.00  0.00    +0.000 C 
ATOM     34  C   UNL     1       3.140   3.224  20.732  0.00  0.00    +0.000 A 
ATOM     35  C   UNL     1       3.656   3.870  19.608  0.00  0.00    +0.000 A 
ENDBRANCH  28  29
ENDBRANCH  22  23
ENDBRANCH  21  22
ENDBRANCH  20  21
ENDBRANCH   1  20
TORSDOF 7
ENDMDL
MODEL 3
REMARK VINA RESULT:      -7.8      4.464      8.798
REMARK  Name = 
REMARK  9 active torsions:
REMARK  status: ('A' for Active; 'I' for Inactive)
REMARK    1  A    between atoms: C_1  and  O_2
REMARK    2  A    between atoms: O_2  and  C_3
REMARK    3  A    between atoms: C_15  and  N_16
REMARK    4  A    between atoms: N_16  and  C_17
REMARK    5  A    between atoms: C_17  and  C_18
REMARK    6  A    between atoms: C_18  and  C_19
REMARK    7  A    between atoms: C_19  and  N_20
REMARK    8  A    between atoms: C_25  and  C_26
REMARK    9  A    between atoms: C_29  and  C_30
REMARK                            x       y       z     vdW  Elec       q    Type
REMARK                         _______ _______ _______ _____ _____    ______ ____
ROOT
ATOM      1  N   UNL     1       1.044  11.151  18.438  0.00  0.00    +0.000 N 
ATOM      2  H   UNL     1       0.144  11.611  18.545  0.00  0.00    +0.000 HD
ENDROOT
BRANCH   1  15
ATOM      3  C   UNL     1      -0.906  11.403  22.222  0.00  0.00    +0.000 A 
ATOM      4  C   UNL     1      -0.824  10.323  23.085  0.00  0.00    +0.000 A 
ATOM      5  C   UNL     1      -0.111   9.187  22.700  0.00  0.00    +0.000 A 
ATOM      6  C   UNL     1       0.534   9.096  21.473  0.00  0.00    +0.000 A 
ATOM      7  N   UNL     1       1.158   7.953  21.195  0.00  0.00    +0.000 NA
ATOM      8  C   UNL     1       1.776   7.794  20.022  0.00  0.00    +0.000 A 
ATOM      9  C   UNL     1       2.375   6.555  19.829  0.00  0.00    +0.000 A 
ATOM     10  C   UNL     1       3.065   6.242  18.666  0.00  0.00    +0.000 A 
ATOM     11 CL   UNL     1       3.788   4.696  18.465  0.00  0.00    +0.000 Cl
ATOM     12  C   UNL     1       3.176   7.184  17.671  0.00  0.00    +0.000 A 
ATOM     13  C   UNL     1       2.580   8.431  17.856  0.00  0.00    +0.000 A 
ATOM     14  C   UNL     1       1.838   8.795  19.024  0.00  0.00    +0.000 A 
ATOM     15  C   UNL     1       1.170  10.047  19.326  0.00  0.00    +0.000 A 
ATOM     16  C   UNL     1       0.484  10.181  20.582  0.00  0.00    +0.000 A 
ATOM     17  C   UNL     1      -0.259  11.324  20.985  0.00  0.00    +0.000 A 
BRANCH   3  19
ATOM     18  C   UNL     1      -2.972  12.486  22.668  0.00  0.00    +0.000 C 
ATOM     19  O   UNL     1      -1.568  12.576  22.457  0.00  0.00    +0.000 OA
ENDBRANCH   3  19
ENDBRANCH   1  15
BRANCH   1  20
ATOM     20  C   UNL     1       2.130  12.068  18.167  0.00  0.00    +0.000 C 
BRANCH  20  21
ATOM     21  C   UNL     1       1.961  13.425  18.832  0.00  0.00    +0.000 C 
BRANCH  21  22
ATOM     22  C   UNL     1       2.711  13.450  20.177  0.00  0.00    +0.000 C 
BRANCH  22  23
ATOM     23  N   UNL     1       2.906  14.795  20.730  0.00  0.00    +0.000 N 
ATOM     24  C   UNL     1       2.129  15.274  21.777  0.00  0.00    +0.000 C 
ATOM     25  O   UNL     1       1.275  14.615  22.361  0.00  0.00    +0.000 OA
ATOM     26  C   UNL     1       2.442  16.709  22.139  0.00  0.00    +0.000 C 
ATOM     27  S   UNL     1       3.826  17.221  21.107  0.00  0.00    +0.000 S 
ATOM     28  C   UNL     1       3.678  15.789  20.016  0.00  0.00    +0.000 C 
BRANCH  28  29
ATOM     29  C   UNL     1       5.007  15.293  19.499  0.00  0.00    +0.000 A 
ATOM     30  C   UNL     1       5.227  15.030  18.138  0.00  0.00    +0.000 A 
ATOM     31  C   UNL     1       6.483  14.625  17.683  0.00  0.00    +0.000 A 
ATOM     32  C   UNL     1       7.539  14.454  18.583  0.00  0.00    +0.000 A 
ATOM     33  C   UNL     1       8.882  13.977  18.116  0.00  0.00    +0.000 C 
ATOM     34  C   UNL     1       7.331  14.724  19.939  0.00  0.00    +0.000 A 
ATOM     35  C   UNL     1       6.079  15.139  20.392  0.00  0.00    +0.000 A 
ENDBRANCH  28  29
ENDBRANCH  22  23
ENDBRANCH  21  22
ENDBRANCH  20  21
ENDBRANCH   1  20
TORSDOF 7
ENDMDL
MODEL 4
REMARK VINA RESULT:      -7.7      3.181      5.381
REMARK  Name = 
REMARK  9 active torsions:
REMARK  status: ('A' for Active; 'I' for Inactive)
REMARK    1  A    between atoms: C_1  and  O_2
REMARK    2  A    between atoms: O_2  and  C_3
REMARK    3  A    between atoms: C_15  and  N_16
REMARK    4  A    between atoms: N_16  and  C_17
REMARK    5  A    between atoms: C_17  and  C_18
REMARK    6  A    between atoms: C_18  and  C_19
REMARK    7  A    between atoms: C_19  and  N_20
REMARK    8  A    between atoms: C_25  and  C_26
REMARK    9  A    between atoms: C_29  and  C_30
REMARK                            x       y       z     vdW  Elec       q    Type
REMARK                         _______ _______ _______ _____ _____    ______ ____
ROOT
ATOM      1  N   UNL     1       0.066   9.325  17.548  0.00  0.00    +0.000 N 
ATOM      2  H   UNL     1      -0.013   9.204  16.542  0.00  0.00    +0.000 HD
ENDROOT
BRANCH   1  15
ATOM      3  C   UNL     1      -3.264  10.220  15.040  0.00  0.00    +0.000 A 
ATOM      4  C   UNL     1      -4.240  11.082  15.513  0.00  0.00    +0.000 A 
ATOM      5  C   UNL     1      -4.112  11.632  16.789  0.00  0.00    +0.000 A 
ATOM      6  C   UNL     1      -3.029  11.353  17.612  0.00  0.00    +0.000 A 
ATOM      7  N   UNL     1      -3.024  11.908  18.822  0.00  0.00    +0.000 NA
ATOM      8  C   UNL     1      -2.022  11.660  19.670  0.00  0.00    +0.000 A 
ATOM      9  C   UNL     1      -2.130  12.273  20.913  0.00  0.00    +0.000 A 
ATOM     10  C   UNL     1      -1.163  12.120  21.897  0.00  0.00    +0.000 A 
ATOM     11 CL   UNL     1      -1.336  12.891  23.423  0.00  0.00    +0.000 Cl
ATOM     12  C   UNL     1      -0.054  11.350  21.642  0.00  0.00    +0.000 A 
ATOM     13  C   UNL     1       0.065  10.733  20.397  0.00  0.00    +0.000 A 
ATOM     14  C   UNL     1      -0.914  10.838  19.358  0.00  0.00    +0.000 A 
ATOM     15  C   UNL     1      -0.907  10.240  18.036  0.00  0.00    +0.000 A 
ATOM     16  C   UNL     1      -2.013  10.497  17.155  0.00  0.00    +0.000 A 
ATOM     17  C   UNL     1      -2.168   9.934  15.859  0.00  0.00    +0.000 A 
BRANCH   3  19
ATOM     18  C   UNL     1      -4.401   9.793  12.998  0.00  0.00    +0.000 C 
ATOM     19  O   UNL     1      -3.256   9.603  13.820  0.00  0.00    +0.000 OA
ENDBRANCH   3  19
ENDBRANCH   1  15
BRANCH   1  20
ATOM     20  C   UNL     1       1.430   9.301  18.028  0.00  0.00    +0.000 C 
BRANCH  20  21
ATOM     21  C   UNL     1       2.122   7.962  17.825  0.00  0.00    +0.000 C 
BRANCH  21  22
ATOM     22  C   UNL     1       3.030   7.650  19.029  0.00  0.00    +0.000 C 
BRANCH  22  23
ATOM     23  N   UNL     1       2.876   6.292  19.561  0.00  0.00    +0.000 N 
ATOM     24  C   UNL     1       1.824   5.950  20.401  0.00  0.00    +0.000 C 
ATOM     25  O   UNL     1       0.916   6.713  20.715  0.00  0.00    +0.000 OA
ATOM     26  C   UNL     1       1.900   4.523  20.895  0.00  0.00    +0.000 C 
ATOM     27  S   UNL     1       3.318   3.761  20.088  0.00  0.00    +0.000 S 
ATOM     28  C   UNL     1       3.968   5.342  19.505  0.00  0.00    +0.000 C 
BRANCH  28  29
ATOM     29  C   UNL     1       4.645   5.249  18.160  0.00  0.00    +0.000 A 
ATOM     30  C   UNL     1       5.849   5.917  17.882  0.00  0.00    +0.000 A 
ATOM     31  C   UNL     1       6.480   5.767  16.646  0.00  0.00    +0.000 A 
ATOM     32  C   UNL     1       5.909   4.964  15.654  0.00  0.00    +0.000 A 
ATOM     33  C   UNL     1       6.551   4.828  14.306  0.00  0.00    +0.000 C 
ATOM     34  C   UNL     1       4.716   4.288  15.926  0.00  0.00    +0.000 A 
ATOM     35  C   UNL     1       4.091   4.428  17.165  0.00  0.00    +0.000 A 
ENDBRANCH  28  29
ENDBRANCH  22  23
ENDBRANCH  21  22
ENDBRANCH  20  21
ENDBRANCH   1  20
TORSDOF 7
ENDMDL
MODEL 5
REMARK VINA RESULT:      -7.7      2.606      4.312
REMARK  Name = 
REMARK  9 active torsions:
REMARK  status: ('A' for Active; 'I' for Inactive)
REMARK    1  A    between atoms: C_1  and  O_2
REMARK    2  A    between atoms: O_2  and  C_3
REMARK    3  A    between atoms: C_15  and  N_16
REMARK    4  A    between atoms: N_16  and  C_17
REMARK    5  A    between atoms: C_17  and  C_18
REMARK    6  A    between atoms: C_18  and  C_19
REMARK    7  A    between atoms: C_19  and  N_20
REMARK    8  A    between atoms: C_25  and  C_26
REMARK    9  A    between atoms: C_29  and  C_30
REMARK                            x       y       z     vdW  Elec       q    Type
REMARK                         _______ _______ _______ _____ _____    ______ ____
ROOT
ATOM      1  N   UNL     1       0.412  10.202  17.870  0.00  0.00    +0.000 N 
ATOM      2  H   UNL     1       1.090  10.854  17.485  0.00  0.00    +0.000 HD
ENDROOT
BRANCH   1  15
ATOM      3  C   UNL     1      -3.083  10.402  15.437  0.00  0.00    +0.000 A 
ATOM      4  C   UNL     1      -4.210  11.029  15.942  0.00  0.00    +0.000 A 
ATOM      5  C   UNL     1      -4.175  11.577  17.225  0.00  0.00    +0.000 A 
ATOM      6  C   UNL     1      -3.040  11.524  18.024  0.00  0.00    +0.000 A 
ATOM      7  N   UNL     1      -3.129  12.050  19.244  0.00  0.00    +0.000 NA
ATOM      8  C   UNL     1      -2.080  12.009  20.069  0.00  0.00    +0.000 A 
ATOM      9  C   UNL     1      -2.290  12.568  21.324  0.00  0.00    +0.000 A 
ATOM     10  C   UNL     1      -1.292  12.610  22.289  0.00  0.00    +0.000 A 
ATOM     11 CL   UNL     1      -1.594  13.307  23.831  0.00  0.00    +0.000 Cl
ATOM     12  C   UNL     1      -0.050  12.098  22.001  0.00  0.00    +0.000 A 
ATOM     13  C   UNL     1       0.171  11.538  20.744  0.00  0.00    +0.000 A 
ATOM     14  C   UNL     1      -0.829  11.446  19.724  0.00  0.00    +0.000 A 
ATOM     15  C   UNL     1      -0.723  10.882  18.391  0.00  0.00    +0.000 A 
ATOM     16  C   UNL     1      -1.876  10.909  17.534  0.00  0.00    +0.000 A 
ATOM     17  C   UNL     1      -1.934  10.344  16.231  0.00  0.00    +0.000 A 
BRANCH   3  19
ATOM     18  C   UNL     1      -4.155   9.732  13.425  0.00  0.00    +0.000 C 
ATOM     19  O   UNL     1      -2.969   9.818  14.205  0.00  0.00    +0.000 OA
ENDBRANCH   3  19
ENDBRANCH   1  15
BRANCH   1  20
ATOM     20  C   UNL     1       1.016   9.064  18.530  0.00  0.00    +0.000 C 
BRANCH  20  21
ATOM     21  C   UNL     1       2.082   8.373  17.694  0.00  0.00    +0.000 C 
BRANCH  21  22
ATOM     22  C   UNL     1       2.901   7.412  18.575  0.00  0.00    +0.000 C 
BRANCH  22  23
ATOM     23  N   UNL     1       3.694   6.435  17.821  0.00  0.00    +0.000 N 
ATOM     24  C   UNL     1       4.794   6.814  17.062  0.00  0.00    +0.000 C 
ATOM     25  O   UNL     1       5.230   7.959  17.005  0.00  0.00    +0.000 OA
ATOM     26  C   UNL     1       5.418   5.663  16.305  0.00  0.00    +0.000 C 
ATOM     27  S   UNL     1       4.526   4.174  16.784  0.00  0.00    +0.000 S 
ATOM     28  C   UNL     1       3.190   5.101  17.570  0.00  0.00    +0.000 C 
BRANCH  28  29
ATOM     29  C   UNL     1       2.620   4.411  18.786  0.00  0.00    +0.000 A 
ATOM     30  C   UNL     1       1.241   4.203  18.948  0.00  0.00    +0.000 A 
ATOM     31  C   UNL     1       0.749   3.513  20.057  0.00  0.00    +0.000 A 
ATOM     32  C   UNL     1       1.624   3.035  21.038  0.00  0.00    +0.000 A 
ATOM     33  C   UNL     1       1.107   2.331  22.256  0.00  0.00    +0.000 C 
ATOM     34  C   UNL     1       2.999   3.230  20.879  0.00  0.00    +0.000 A 
ATOM     35  C   UNL     1       3.491   3.910  19.765  0.00  0.00    +0.000 A 
ENDBRANCH  28  29
ENDBRANCH  22  23
ENDBRANCH  21  22
ENDBRANCH  20  21
ENDBRANCH   1  20
TORSDOF 7
ENDMDL
MODEL 6
REMARK VINA RESULT:      -7.7      1.588      3.327
REMARK  Name = 
REMARK  9 active torsions:
REMARK  status: ('A' for Active; 'I' for Inactive)
REMARK    1  A    between atoms: C_1  and  O_2
REMARK    2  A    between atoms: O_2  and  C_3
REMARK    3  A    between atoms: C_15  and  N_16
REMARK    4  A    between atoms: N_16  and  C_17
REMARK    5  A    between atoms: C_17  and  C_18
REMARK    6  A    between atoms: C_18  and  C_19
REMARK    7  A    between atoms: C_19  and  N_20
REMARK    8  A    between atoms: C_25  and  C_26
REMARK    9  A    between atoms: C_29  and  C_30
REMARK                            x       y       z     vdW  Elec       q    Type
REMARK                         _______ _______ _______ _____ _____    ______ ____
ROOT
ATOM      1  N   UNL     1       1.445   9.971  17.914  0.00  0.00    +0.000 N 
ATOM      2  H   UNL     1       2.301  10.362  17.529  0.00  0.00    +0.000 HD
ENDROOT
BRANCH   1  15
ATOM      3  C   UNL     1       2.889  13.882  18.807  0.00  0.00    +0.000 A 
ATOM      4  C   UNL     1       1.972  14.894  19.036  0.00  0.00    +0.000 A 
ATOM      5  C   UNL     1       0.607  14.611  18.971  0.00  0.00    +0.000 A 
ATOM      6  C   UNL     1       0.125  13.340  18.688  0.00  0.00    +0.000 A 
ATOM      7  N   UNL     1      -1.197  13.191  18.618  0.00  0.00    +0.000 NA
ATOM      8  C   UNL     1      -1.723  11.999  18.325  0.00  0.00    +0.000 A 
ATOM      9  C   UNL     1      -3.111  11.962  18.258  0.00  0.00    +0.000 A 
ATOM     10  C   UNL     1      -3.805  10.794  17.975  0.00  0.00    +0.000 A 
ATOM     11 CL   UNL     1      -5.521  10.791  17.896  0.00  0.00    +0.000 Cl
ATOM     12  C   UNL     1      -3.109   9.628  17.765  0.00  0.00    +0.000 A 
ATOM     13  C   UNL     1      -1.716   9.654  17.833  0.00  0.00    +0.000 A 
ATOM     14  C   UNL     1      -0.952  10.835  18.097  0.00  0.00    +0.000 A 
ATOM     15  C   UNL     1       0.488  10.988  18.183  0.00  0.00    +0.000 A 
ATOM     16  C   UNL     1       1.029  12.289  18.466  0.00  0.00    +0.000 A 
ATOM     17  C   UNL     1       2.416  12.598  18.523  0.00  0.00    +0.000 A 
BRANCH   3  19
ATOM     18  C   UNL     1       4.771  15.259  19.265  0.00  0.00    +0.000 C 
ATOM     19  O   UNL     1       4.251  14.007  18.832  0.00  0.00    +0.000 OA
ENDBRANCH   3  19
ENDBRANCH   1  15
BRANCH   1  20
ATOM     20  C   UNL     1       1.670   8.851  18.801  0.00  0.00    +0.000 C 
BRANCH  20  21
ATOM     21  C   UNL     1       2.341   7.666  18.125  0.00  0.00    +0.000 C 
BRANCH  21  22
ATOM     22  C   UNL     1       3.485   7.134  19.009  0.00  0.00    +0.000 C 
BRANCH  22  23
ATOM     23  N   UNL     1       3.333   5.729  19.405  0.00  0.00    +0.000 N 
ATOM     24  C   UNL     1       2.284   5.305  20.210  0.00  0.00    +0.000 C 
ATOM     25  O   UNL     1       1.377   6.032  20.601  0.00  0.00    +0.000 OA
ATOM     26  C   UNL     1       2.363   3.836  20.561  0.00  0.00    +0.000 C 
ATOM     27  S   UNL     1       3.778   3.159  19.678  0.00  0.00    +0.000 S 
ATOM     28  C   UNL     1       4.425   4.791  19.252  0.00  0.00    +0.000 C 
BRANCH  28  29
ATOM     29  C   UNL     1       5.099   4.832  17.902  0.00  0.00    +0.000 A 
ATOM     30  C   UNL     1       6.386   5.364  17.726  0.00  0.00    +0.000 A 
ATOM     31  C   UNL     1       7.004   5.338  16.475  0.00  0.00    +0.000 A 
ATOM     32  C   UNL     1       6.339   4.799  15.369  0.00  0.00    +0.000 A 
ATOM     33  C   UNL     1       6.972   4.804  14.009  0.00  0.00    +0.000 C 
ATOM     34  C   UNL     1       5.061   4.258  15.538  0.00  0.00    +0.000 A 
ATOM     35  C   UNL     1       4.448   4.274  16.791  0.00  0.00    +0.000 A 
ENDBRANCH  28  29
ENDBRANCH  22  23
ENDBRANCH  21  22
ENDBRANCH  20  21
ENDBRANCH   1  20
TORSDOF 7
ENDMDL
MODEL 7
REMARK VINA RESULT:      -7.6      3.243      8.980
REMARK  Name = 
REMARK  9 active torsions:
REMARK  status: ('A' for Active; 'I' for Inactive)
REMARK    1  A    between atoms: C_1  and  O_2
REMARK    2  A    between atoms: O_2  and  C_3
REMARK    3  A    between atoms: C_15  and  N_16
REMARK    4  A    between atoms: N_16  and  C_17
REMARK    5  A    between atoms: C_17  and  C_18
REMARK    6  A    between atoms: C_18  and  C_19
REMARK    7  A    between atoms: C_19  and  N_20
REMARK    8  A    between atoms: C_25  and  C_26
REMARK    9  A    between atoms: C_29  and  C_30
REMARK                            x       y       z     vdW  Elec       q    Type
REMARK                         _______ _______ _______ _____ _____    ______ ____
ROOT
ATOM      1  N   UNL     1       3.553   7.409  17.668  0.00  0.00    +0.000 N 
ATOM      2  H   UNL     1       4.273   7.735  17.029  0.00  0.00    +0.000 HD
ENDROOT
BRANCH   1  15
ATOM      3  C   UNL     1       6.104   5.188  15.071  0.00  0.00    +0.000 A 
ATOM      4  C   UNL     1       6.214   3.820  15.258  0.00  0.00    +0.000 A 
ATOM      5  C   UNL     1       5.493   3.205  16.282  0.00  0.00    +0.000 A 
ATOM      6  C   UNL     1       4.654   3.917  17.129  0.00  0.00    +0.000 A 
ATOM      7  N   UNL     1       4.039   3.234  18.093  0.00  0.00    +0.000 NA
ATOM      8  C   UNL     1       3.238   3.865  18.956  0.00  0.00    +0.000 A 
ATOM      9  C   UNL     1       2.666   3.060  19.933  0.00  0.00    +0.000 A 
ATOM     10  C   UNL     1       1.802   3.567  20.894  0.00  0.00    +0.000 A 
ATOM     11 CL   UNL     1       1.118   2.538  22.089  0.00  0.00    +0.000 Cl
ATOM     12  C   UNL     1       1.485   4.904  20.881  0.00  0.00    +0.000 A 
ATOM     13  C   UNL     1       2.053   5.720  19.903  0.00  0.00    +0.000 A 
ATOM     14  C   UNL     1       2.967   5.253  18.906  0.00  0.00    +0.000 A 
ATOM     15  C   UNL     1       3.624   6.000  17.851  0.00  0.00    +0.000 A 
ATOM     16  C   UNL     1       4.507   5.303  16.956  0.00  0.00    +0.000 A 
ATOM     17  C   UNL     1       5.261   5.915  15.917  0.00  0.00    +0.000 A 
BRANCH   3  19
ATOM     18  C   UNL     1       7.534   5.209  13.174  0.00  0.00    +0.000 C 
ATOM     19  O   UNL     1       6.749   5.927  14.118  0.00  0.00    +0.000 OA
ENDBRANCH   3  19
ENDBRANCH   1  15
BRANCH   1  20
ATOM     20  C   UNL     1       2.300   8.120  17.537  0.00  0.00    +0.000 C 
BRANCH  20  21
ATOM     21  C   UNL     1       2.034   9.095  18.673  0.00  0.00    +0.000 C 
BRANCH  21  22
ATOM     22  C   UNL     1       1.365  10.370  18.128  0.00  0.00    +0.000 C 
BRANCH  22  23
ATOM     23  N   UNL     1       0.562  11.097  19.117  0.00  0.00    +0.000 N 
ATOM     24  C   UNL     1       1.147  11.905  20.083  0.00  0.00    +0.000 C 
ATOM     25  O   UNL     1       2.351  12.131  20.158  0.00  0.00    +0.000 OA
ATOM     26  C   UNL     1       0.145  12.496  21.049  0.00  0.00    +0.000 C 
ATOM     27  S   UNL     1      -1.489  11.991  20.485  0.00  0.00    +0.000 S 
ATOM     28  C   UNL     1      -0.828  10.760  19.340  0.00  0.00    +0.000 C 
BRANCH  28  29
ATOM     29  C   UNL     1      -1.646  10.619  18.079  0.00  0.00    +0.000 A 
ATOM     30  C   UNL     1      -2.557  11.604  17.667  0.00  0.00    +0.000 A 
ATOM     31  C   UNL     1      -3.259  11.469  16.467  0.00  0.00    +0.000 A 
ATOM     32  C   UNL     1      -3.079  10.337  15.666  0.00  0.00    +0.000 A 
ATOM     33  C   UNL     1      -3.858  10.157  14.398  0.00  0.00    +0.000 C 
ATOM     34  C   UNL     1      -2.166   9.357  16.065  0.00  0.00    +0.000 A 
ATOM     35  C   UNL     1      -1.457   9.496  17.258  0.00  0.00    +0.000 A 
ENDBRANCH  28  29
ENDBRANCH  22  23
ENDBRANCH  21  22
ENDBRANCH  20  21
ENDBRANCH   1  20
TORSDOF 7
ENDMDL
MODEL 8
REMARK VINA RESULT:      -7.5      1.905      3.358
REMARK  Name = 
REMARK  9 active torsions:
REMARK  status: ('A' for Active; 'I' for Inactive)
REMARK    1  A    between atoms: C_1  and  O_2
REMARK    2  A    between atoms: O_2  and  C_3
REMARK    3  A    between atoms: C_15  and  N_16
REMARK    4  A    between atoms: N_16  and  C_17
REMARK    5  A    between atoms: C_17  and  C_18
REMARK    6  A    between atoms: C_18  and  C_19
REMARK    7  A    between atoms: C_19  and  N_20
REMARK    8  A    between atoms: C_25  and  C_26
REMARK    9  A    between atoms: C_29  and  C_30
REMARK                            x       y       z     vdW  Elec       q    Type
REMARK                         _______ _______ _______ _____ _____    ______ ____
ROOT
ATOM      1  N   UNL     1       1.097   9.934  19.167  0.00  0.00    +0.000 N 
ATOM      2  H   UNL     1       0.903   9.120  19.744  0.00  0.00    +0.000 HD
ENDROOT
BRANCH   1  15
ATOM      3  C   UNL     1       2.232  13.560  21.101  0.00  0.00    +0.000 A 
ATOM      4  C   UNL     1       1.287  14.562  21.242  0.00  0.00    +0.000 A 
ATOM      5  C   UNL     1      -0.005  14.363  20.752  0.00  0.00    +0.000 A 
ATOM      6  C   UNL     1      -0.388  13.184  20.127  0.00  0.00    +0.000 A 
ATOM      7  N   UNL     1      -1.636  13.115  19.669  0.00  0.00    +0.000 NA
ATOM      8  C   UNL     1      -2.058  12.017  19.037  0.00  0.00    +0.000 A 
ATOM      9  C   UNL     1      -3.371  12.061  18.582  0.00  0.00    +0.000 A 
ATOM     10  C   UNL     1      -3.957  10.993  17.916  0.00  0.00    +0.000 A 
ATOM     11 CL   UNL     1      -5.583  11.089  17.366  0.00  0.00    +0.000 Cl
ATOM     12  C   UNL     1      -3.231   9.846  17.705  0.00  0.00    +0.000 A 
ATOM     13  C   UNL     1      -1.914   9.791  18.160  0.00  0.00    +0.000 A 
ATOM     14  C   UNL     1      -1.255  10.872  18.829  0.00  0.00    +0.000 A 
ATOM     15  C   UNL     1       0.103  10.936  19.336  0.00  0.00    +0.000 A 
ATOM     16  C   UNL     1       0.543  12.142  19.983  0.00  0.00    +0.000 A 
ATOM     17  C   UNL     1       1.858  12.368  20.475  0.00  0.00    +0.000 A 
BRANCH   3  19
ATOM     18  C   UNL     1       4.244  14.814  21.259  0.00  0.00    +0.000 C 
ATOM     19  O   UNL     1       3.532  13.611  21.523  0.00  0.00    +0.000 OA
ENDBRANCH   3  19
ENDBRANCH   1  15
BRANCH   1  20
ATOM     20  C   UNL     1       1.668   9.605  17.879  0.00  0.00    +0.000 C 
BRANCH  20  21
ATOM     21  C   UNL     1       2.029   8.135  17.732  0.00  0.00    +0.000 C 
BRANCH  21  22
ATOM     22  C   UNL     1       3.154   7.767  18.718  0.00  0.00    +0.000 C 
BRANCH  22  23
ATOM     23  N   UNL     1       2.980   6.462  19.367  0.00  0.00    +0.000 N 
ATOM     24  C   UNL     1       1.959   6.229  20.278  0.00  0.00    +0.000 C 
ATOM     25  O   UNL     1       1.093   7.048  20.569  0.00  0.00    +0.000 OA
ATOM     26  C   UNL     1       2.010   4.845  20.886  0.00  0.00    +0.000 C 
ATOM     27  S   UNL     1       3.362   3.969  20.082  0.00  0.00    +0.000 S 
ATOM     28  C   UNL     1       4.036   5.472  19.341  0.00  0.00    +0.000 C 
BRANCH  28  29
ATOM     29  C   UNL     1       4.645   5.245  17.979  0.00  0.00    +0.000 A 
ATOM     30  C   UNL     1       5.779   5.948  17.542  0.00  0.00    +0.000 A 
ATOM     31  C   UNL     1       6.352   5.677  16.298  0.00  0.00    +0.000 A 
ATOM     32  C   UNL     1       5.789   4.712  15.457  0.00  0.00    +0.000 A 
ATOM     33  C   UNL     1       6.367   4.440  14.100  0.00  0.00    +0.000 C 
ATOM     34  C   UNL     1       4.667   4.000  15.889  0.00  0.00    +0.000 A 
ATOM     35  C   UNL     1       4.101   4.264  17.137  0.00  0.00    +0.000 A 
ENDBRANCH  28  29
ENDBRANCH  22  23
ENDBRANCH  21  22
ENDBRANCH  20  21
ENDBRANCH   1  20
TORSDOF 7
ENDMDL
MODEL 9
REMARK VINA RESULT:      -7.5      4.008      9.824
REMARK  Name = 
REMARK  9 active torsions:
REMARK  status: ('A' for Active; 'I' for Inactive)
REMARK    1  A    between atoms: C_1  and  O_2
REMARK    2  A    between atoms: O_2  and  C_3
REMARK    3  A    between atoms: C_15  and  N_16
REMARK    4  A    between atoms: N_16  and  C_17
REMARK    5  A    between atoms: C_17  and  C_18
REMARK    6  A    between atoms: C_18  and  C_19
REMARK    7  A    between atoms: C_19  and  N_20
REMARK    8  A    between atoms: C_25  and  C_26
REMARK    9  A    between atoms: C_29  and  C_30
REMARK                            x       y       z     vdW  Elec       q    Type
REMARK                         _______ _______ _______ _____ _____    ______ ____
ROOT
ATOM      1  N   UNL     1       3.114   6.721  18.632  0.00  0.00    +0.000 N 
ATOM      2  H   UNL     1       3.795   7.127  19.267  0.00  0.00    +0.000 HD
ENDROOT
BRANCH   1  15
ATOM      3  C   UNL     1       1.635   2.954  19.974  0.00  0.00    +0.000 A 
ATOM      4  C   UNL     1       2.091   1.802  19.355  0.00  0.00    +0.000 A 
ATOM      5  C   UNL     1       3.017   1.900  18.316  0.00  0.00    +0.000 A 
ATOM      6  C   UNL     1       3.511   3.120  17.875  0.00  0.00    +0.000 A 
ATOM      7  N   UNL     1       4.366   3.099  16.855  0.00  0.00    +0.000 NA
ATOM      8  C   UNL     1       4.858   4.241  16.368  0.00  0.00    +0.000 A 
ATOM      9  C   UNL     1       5.724   4.103  15.290  0.00  0.00    +0.000 A 
ATOM     10  C   UNL     1       6.325   5.197  14.682  0.00  0.00    +0.000 A 
ATOM     11 CL   UNL     1       7.388   4.985  13.348  0.00  0.00    +0.000 Cl
ATOM     12  C   UNL     1       6.074   6.460  15.161  0.00  0.00    +0.000 A 
ATOM     13  C   UNL     1       5.208   6.609  16.244  0.00  0.00    +0.000 A 
ATOM     14  C   UNL     1       4.544   5.518  16.890  0.00  0.00    +0.000 A 
ATOM     15  C   UNL     1       3.622   5.547  18.010  0.00  0.00    +0.000 A 
ATOM     16  C   UNL     1       3.081   4.306  18.493  0.00  0.00    +0.000 A 
ATOM     17  C   UNL     1       2.126   4.188  19.540  0.00  0.00    +0.000 A 
BRANCH   3  19
ATOM     18  C   UNL     1       1.168   2.552  22.269  0.00  0.00    +0.000 C 
ATOM     19  O   UNL     1       0.729   3.016  20.997  0.00  0.00    +0.000 OA
ENDBRANCH   3  19
ENDBRANCH   1  15
BRANCH   1  20
ATOM     20  C   UNL     1       2.326   7.706  17.923  0.00  0.00    +0.000 C 
BRANCH  20  21
ATOM     21  C   UNL     1       2.289   9.062  18.609  0.00  0.00    +0.000 C 
BRANCH  21  22
ATOM     22  C   UNL     1       0.830   9.513  18.809  0.00  0.00    +0.000 C 
BRANCH  22  23
ATOM     23  N   UNL     1       0.449   9.710  20.212  0.00  0.00    +0.000 N 
ATOM     24  C   UNL     1       0.523   8.682  21.142  0.00  0.00    +0.000 C 
ATOM     25  O   UNL     1       0.962   7.562  20.899  0.00  0.00    +0.000 OA
ATOM     26  C   UNL     1       0.009   9.079  22.507  0.00  0.00    +0.000 C 
ATOM     27  S   UNL     1      -0.415  10.827  22.421  0.00  0.00    +0.000 S 
ATOM     28  C   UNL     1      -0.317  10.869  20.618  0.00  0.00    +0.000 C 
BRANCH  28  29
ATOM     29  C   UNL     1       0.202  12.181  20.080  0.00  0.00    +0.000 A 
ATOM     30  C   UNL     1       1.466  12.682  20.429  0.00  0.00    +0.000 A 
ATOM     31  C   UNL     1       1.940  13.872  19.872  0.00  0.00    +0.000 A 
ATOM     32  C   UNL     1       1.152  14.594  18.971  0.00  0.00    +0.000 A 
ATOM     33  C   UNL     1       1.629  15.895  18.398  0.00  0.00    +0.000 C 
ATOM     34  C   UNL     1      -0.104  14.096  18.611  0.00  0.00    +0.000 A 
ATOM     35  C   UNL     1      -0.573  12.902  19.159  0.00  0.00    +0.000 A 
ENDBRANCH  28  29
ENDBRANCH  22  23
ENDBRANCH  21  22
ENDBRANCH  20  21
ENDBRANCH   1  20
TORSDOF 7
ENDMDL
