MODEL 1
REMARK VINA RESULT:      -7.5      0.000      0.000
REMARK  Name = 
REMARK  3 active torsions:
REMARK  status: ('A' for Active; 'I' for Inactive)
REMARK    1  A    between atoms: C_7  and  C_8
REMARK    2  A    between atoms: C_11  and  C_12
REMARK    3  A    between atoms: N_13  and  C_14
REMARK                            x       y       z     vdW  Elec       q    Type
REMARK                         _______ _______ _______ _____ _____    ______ ____
ROOT
ATOM      1  C   UNL     1       2.084   6.891  19.979  0.00  0.00    +0.000 A 
ATOM      2  C   UNL     1       1.952   5.641  20.550  0.00  0.00    +0.000 A 
ATOM      3  C   UNL     1       2.826   4.777  19.863  0.00  0.00    +0.000 A 
ATOM      4  C   UNL     1       3.480   5.542  18.920  0.00  0.00    +0.000 A 
ATOM      5  O   UNL     1       3.034   6.836  18.985  0.00  0.00    +0.000 OA
ENDROOT
BRANCH   1  12
ATOM      6 CL   UNL     1      -0.413   9.908  23.360  0.00  0.00    +0.000 Cl
ATOM      7  C   UNL     1       0.257   9.638  21.799  0.00  0.00    +0.000 A 
ATOM      8  C   UNL     1       0.089  10.599  20.808  0.00  0.00    +0.000 A 
ATOM      9  C   UNL     1       0.633  10.381  19.545  0.00  0.00    +0.000 A 
ATOM     10  C   UNL     1       1.328   9.196  19.268  0.00  0.00    +0.000 A 
ATOM     11 CL   UNL     1       2.002   9.073  17.677  0.00  0.00    +0.000 Cl
ATOM     12  C   UNL     1       1.476   8.195  20.253  0.00  0.00    +0.000 A 
ATOM     13  C   UNL     1       0.944   8.450  21.532  0.00  0.00    +0.000 A 
ENDBRANCH   1  12
BRANCH   4  14
ATOM     14  C   UNL     1       4.510   5.172  17.982  0.00  0.00    +0.000 C 
ATOM     15  N   UNL     1       4.622   5.868  16.901  0.00  0.00    +0.000 NA
BRANCH  15  16
ATOM     16  C   UNL     1       5.599   5.412  16.031  0.00  0.00    +0.000 A 
ATOM     17  N   UNL     1       5.501   4.390  15.126  0.00  0.00    +0.000 NA
ATOM     18  C   UNL     1       6.676   4.407  14.538  0.00  0.00    +0.000 A 
ATOM     19  N   UNL     1       7.436   5.398  15.072  0.00  0.00    +0.000 N 
ATOM     20  N   UNL     1       6.770   6.052  16.029  0.00  0.00    +0.000 NA
ATOM     21  H   UNL     1       8.381   5.684  14.840  0.00  0.00    +0.000 HD
ENDBRANCH  15  16
ENDBRANCH   4  14
TORSDOF 3
ENDMDL
MODEL 2
REMARK VINA RESULT:      -7.4      2.852      4.463
REMARK  Name = 
REMARK  3 active torsions:
REMARK  status: ('A' for Active; 'I' for Inactive)
REMARK    1  A    between atoms: C_7  and  C_8
REMARK    2  A    between atoms: C_11  and  C_12
REMARK    3  A    between atoms: N_13  and  C_14
REMARK                            x       y       z     vdW  Elec       q    Type
REMARK                         _______ _______ _______ _____ _____    ______ ____
ROOT
ATOM      1  C   UNL     1       5.212   4.908  18.889  0.00  0.00    +0.000 A 
ATOM      2  C   UNL     1       6.452   5.277  19.368  0.00  0.00    +0.000 A 
ATOM      3  C   UNL     1       7.341   5.257  18.275  0.00  0.00    +0.000 A 
ATOM      4  C   UNL     1       6.599   4.905  17.167  0.00  0.00    +0.000 A 
ATOM      5  O   UNL     1       5.296   4.691  17.533  0.00  0.00    +0.000 OA
ENDROOT
BRANCH   1  12
ATOM      6 CL   UNL     1       1.084   7.253  20.947  0.00  0.00    +0.000 Cl
ATOM      7  C   UNL     1       1.946   5.824  20.530  0.00  0.00    +0.000 A 
ATOM      8  C   UNL     1       1.438   4.585  20.907  0.00  0.00    +0.000 A 
ATOM      9  C   UNL     1       2.135   3.429  20.568  0.00  0.00    +0.000 A 
ATOM     10  C   UNL     1       3.346   3.511  19.869  0.00  0.00    +0.000 A 
ATOM     11 CL   UNL     1       4.083   1.998  19.460  0.00  0.00    +0.000 Cl
ATOM     12  C   UNL     1       3.892   4.762  19.509  0.00  0.00    +0.000 A 
ATOM     13  C   UNL     1       3.156   5.918  19.836  0.00  0.00    +0.000 A 
ENDBRANCH   1  12
BRANCH   4  14
ATOM     14  C   UNL     1       6.999   4.781  15.788  0.00  0.00    +0.000 C 
ATOM     15  N   UNL     1       6.100   4.445  14.925  0.00  0.00    +0.000 NA
BRANCH  15  16
ATOM     16  C   UNL     1       6.580   4.294  13.634  0.00  0.00    +0.000 A 
ATOM     17  N   UNL     1       6.225   3.344  12.716  0.00  0.00    +0.000 NA
ATOM     18  C   UNL     1       6.933   3.679  11.661  0.00  0.00    +0.000 A 
ATOM     19  N   UNL     1       7.673   4.782  11.942  0.00  0.00    +0.000 N 
ATOM     20  N   UNL     1       7.467   5.192  13.198  0.00  0.00    +0.000 NA
ATOM     21  H   UNL     1       8.315   5.299  11.350  0.00  0.00    +0.000 HD
ENDBRANCH  15  16
ENDBRANCH   4  14
TORSDOF 3
ENDMDL
MODEL 3
REMARK VINA RESULT:      -7.3      4.386      7.806
REMARK  Name = 
REMARK  3 active torsions:
REMARK  status: ('A' for Active; 'I' for Inactive)
REMARK    1  A    between atoms: C_7  and  C_8
REMARK    2  A    between atoms: C_11  and  C_12
REMARK    3  A    between atoms: N_13  and  C_14
REMARK                            x       y       z     vdW  Elec       q    Type
REMARK                         _______ _______ _______ _____ _____    ______ ____
ROOT
ATOM      1  C   UNL     1       3.962   5.330  18.602  0.00  0.00    +0.000 A 
ATOM      2  C   UNL     1       3.203   4.506  19.408  0.00  0.00    +0.000 A 
ATOM      3  C   UNL     1       2.273   5.325  20.077  0.00  0.00    +0.000 A 
ATOM      4  C   UNL     1       2.482   6.613  19.628  0.00  0.00    +0.000 A 
ATOM      5  O   UNL     1       3.512   6.624  18.724  0.00  0.00    +0.000 OA
ENDROOT
BRANCH   1  12
ATOM      6 CL   UNL     1       5.363   4.036  13.791  0.00  0.00    +0.000 Cl
ATOM      7  C   UNL     1       5.765   4.437  15.416  0.00  0.00    +0.000 A 
ATOM      8  C   UNL     1       7.094   4.392  15.821  0.00  0.00    +0.000 A 
ATOM      9  C   UNL     1       7.419   4.718  17.135  0.00  0.00    +0.000 A 
ATOM     10  C   UNL     1       6.415   5.071  18.047  0.00  0.00    +0.000 A 
ATOM     11 CL   UNL     1       6.958   5.508  19.633  0.00  0.00    +0.000 Cl
ATOM     12  C   UNL     1       5.058   5.088  17.659  0.00  0.00    +0.000 A 
ATOM     13  C   UNL     1       4.755   4.784  16.318  0.00  0.00    +0.000 A 
ENDBRANCH   1  12
BRANCH   4  14
ATOM     14  C   UNL     1       1.779   7.830  19.948  0.00  0.00    +0.000 C 
ATOM     15  N   UNL     1       1.343   7.977  21.154  0.00  0.00    +0.000 NA
BRANCH  15  16
ATOM     16  C   UNL     1       0.632   9.147  21.362  0.00  0.00    +0.000 A 
ATOM     17  N   UNL     1       0.544   9.878  22.516  0.00  0.00    +0.000 NA
ATOM     18  C   UNL     1      -0.204  10.897  22.159  0.00  0.00    +0.000 A 
ATOM     19  N   UNL     1      -0.543  10.776  20.849  0.00  0.00    +0.000 N 
ATOM     20  N   UNL     1      -0.022   9.664  20.320  0.00  0.00    +0.000 NA
ATOM     21  H   UNL     1      -1.100  11.390  20.265  0.00  0.00    +0.000 HD
ENDBRANCH  15  16
ENDBRANCH   4  14
TORSDOF 3
ENDMDL
MODEL 4
REMARK VINA RESULT:      -7.3      4.542      6.290
REMARK  Name = 
REMARK  3 active torsions:
REMARK  status: ('A' for Active; 'I' for Inactive)
REMARK    1  A    between atoms: C_7  and  C_8
REMARK    2  A    between atoms: C_11  and  C_12
REMARK    3  A    between atoms: N_13  and  C_14
REMARK                            x       y       z     vdW  Elec       q    Type
REMARK                         _______ _______ _______ _____ _____    ______ ____
ROOT
ATOM      1  C   UNL     1       6.044   5.860  18.221  0.00  0.00    +0.000 A 
ATOM      2  C   UNL     1       7.240   5.438  18.766  0.00  0.00    +0.000 A 
ATOM      3  C   UNL     1       8.158   6.496  18.616  0.00  0.00    +0.000 A 
ATOM      4  C   UNL     1       7.476   7.532  18.014  0.00  0.00    +0.000 A 
ATOM      5  O   UNL     1       6.182   7.152  17.770  0.00  0.00    +0.000 OA
ENDROOT
BRANCH   1  12
ATOM      6 CL   UNL     1       1.394   5.028  20.333  0.00  0.00    +0.000 Cl
ATOM      7  C   UNL     1       2.533   4.785  19.067  0.00  0.00    +0.000 A 
ATOM      8  C   UNL     1       2.224   3.913  18.029  0.00  0.00    +0.000 A 
ATOM      9  C   UNL     1       3.145   3.718  17.003  0.00  0.00    +0.000 A 
ATOM     10  C   UNL     1       4.380   4.380  17.024  0.00  0.00    +0.000 A 
ATOM     11 CL   UNL     1       5.411   4.094  15.662  0.00  0.00    +0.000 Cl
ATOM     12  C   UNL     1       4.722   5.242  18.089  0.00  0.00    +0.000 A 
ATOM     13  C   UNL     1       3.764   5.447  19.100  0.00  0.00    +0.000 A 
ENDBRANCH   1  12
BRANCH   4  14
ATOM     14  C   UNL     1       7.922   8.860  17.674  0.00  0.00    +0.000 C 
ATOM     15  N   UNL     1       8.699   9.468  18.506  0.00  0.00    +0.000 NA
BRANCH  15  16
ATOM     16  C   UNL     1       9.035  10.758  18.129  0.00  0.00    +0.000 A 
ATOM     17  N   UNL     1      10.257  11.367  18.231  0.00  0.00    +0.000 NA
ATOM     18  C   UNL     1      10.039  12.548  17.697  0.00  0.00    +0.000 A 
ATOM     19  N   UNL     1       8.744  12.634  17.296  0.00  0.00    +0.000 N 
ATOM     20  N   UNL     1       8.083  11.503  17.564  0.00  0.00    +0.000 NA
ATOM     21  H   UNL     1       8.257  13.398  16.842  0.00  0.00    +0.000 HD
ENDBRANCH  15  16
ENDBRANCH   4  14
TORSDOF 3
ENDMDL
MODEL 5
REMARK VINA RESULT:      -7.2      1.312      1.367
REMARK  Name = 
REMARK  3 active torsions:
REMARK  status: ('A' for Active; 'I' for Inactive)
REMARK    1  A    between atoms: C_7  and  C_8
REMARK    2  A    between atoms: C_11  and  C_12
REMARK    3  A    between atoms: N_13  and  C_14
REMARK                            x       y       z     vdW  Elec       q    Type
REMARK                         _______ _______ _______ _____ _____    ______ ____
ROOT
ATOM      1  C   UNL     1       1.621   7.522  20.204  0.00  0.00    +0.000 A 
ATOM      2  C   UNL     1       1.507   6.306  20.846  0.00  0.00    +0.000 A 
ATOM      3  C   UNL     1       2.410   5.422  20.223  0.00  0.00    +0.000 A 
ATOM      4  C   UNL     1       3.061   6.145  19.244  0.00  0.00    +0.000 A 
ATOM      5  O   UNL     1       2.585   7.430  19.227  0.00  0.00    +0.000 OA
ENDROOT
BRANCH   1  12
ATOM      6 CL   UNL     1      -1.093  10.632  23.324  0.00  0.00    +0.000 Cl
ATOM      7  C   UNL     1      -0.338  10.310  21.812  0.00  0.00    +0.000 A 
ATOM      8  C   UNL     1      -0.467  11.228  20.776  0.00  0.00    +0.000 A 
ATOM      9  C   UNL     1       0.146  10.968  19.552  0.00  0.00    +0.000 A 
ATOM     10  C   UNL     1       0.870   9.784  19.360  0.00  0.00    +0.000 A 
ATOM     11 CL   UNL     1       1.628   9.608  17.813  0.00  0.00    +0.000 Cl
ATOM     12  C   UNL     1       0.981   8.827  20.392  0.00  0.00    +0.000 A 
ATOM     13  C   UNL     1       0.379   9.124  21.630  0.00  0.00    +0.000 A 
ENDBRANCH   1  12
BRANCH   4  14
ATOM     14  C   UNL     1       4.111   5.744  18.343  0.00  0.00    +0.000 C 
ATOM     15  N   UNL     1       5.039   4.971  18.801  0.00  0.00    +0.000 NA
BRANCH  15  16
ATOM     16  C   UNL     1       6.037   4.679  17.887  0.00  0.00    +0.000 A 
ATOM     17  N   UNL     1       5.917   4.550  16.530  0.00  0.00    +0.000 NA
ATOM     18  C   UNL     1       7.152   4.320  16.148  0.00  0.00    +0.000 A 
ATOM     19  N   UNL     1       7.970   4.316  17.232  0.00  0.00    +0.000 N 
ATOM     20  N   UNL     1       7.280   4.540  18.355  0.00  0.00    +0.000 NA
ATOM     21  H   UNL     1       8.974   4.179  17.285  0.00  0.00    +0.000 HD
ENDBRANCH  15  16
ENDBRANCH   4  14
TORSDOF 3
ENDMDL
MODEL 6
REMARK VINA RESULT:      -7.2      2.971      4.267
REMARK  Name = 
REMARK  3 active torsions:
REMARK  status: ('A' for Active; 'I' for Inactive)
REMARK    1  A    between atoms: C_7  and  C_8
REMARK    2  A    between atoms: C_11  and  C_12
REMARK    3  A    between atoms: N_13  and  C_14
REMARK                            x       y       z     vdW  Elec       q    Type
REMARK                         _______ _______ _______ _____ _____    ______ ____
ROOT
ATOM      1  C   UNL     1       5.110   4.989  18.956  0.00  0.00    +0.000 A 
ATOM      2  C   UNL     1       6.358   5.395  19.384  0.00  0.00    +0.000 A 
ATOM      3  C   UNL     1       7.245   5.214  18.304  0.00  0.00    +0.000 A 
ATOM      4  C   UNL     1       6.495   4.734  17.251  0.00  0.00    +0.000 A 
ATOM      5  O   UNL     1       5.189   4.595  17.640  0.00  0.00    +0.000 OA
ENDROOT
BRANCH   1  12
ATOM      6 CL   UNL     1       1.773   2.372  21.921  0.00  0.00    +0.000 Cl
ATOM      7  C   UNL     1       2.166   3.733  20.944  0.00  0.00    +0.000 A 
ATOM      8  C   UNL     1       1.189   4.685  20.675  0.00  0.00    +0.000 A 
ATOM      9  C   UNL     1       1.509   5.787  19.886  0.00  0.00    +0.000 A 
ATOM     10  C   UNL     1       2.797   5.928  19.352  0.00  0.00    +0.000 A 
ATOM     11 CL   UNL     1       3.079   7.370  18.436  0.00  0.00    +0.000 Cl
ATOM     12  C   UNL     1       3.789   4.952  19.589  0.00  0.00    +0.000 A 
ATOM     13  C   UNL     1       3.454   3.861  20.414  0.00  0.00    +0.000 A 
ENDBRANCH   1  12
BRANCH   4  14
ATOM     14  C   UNL     1       6.891   4.423  15.900  0.00  0.00    +0.000 C 
ATOM     15  N   UNL     1       6.210   4.944  14.935  0.00  0.00    +0.000 NA
BRANCH  15  16
ATOM     16  C   UNL     1       6.622   4.550  13.673  0.00  0.00    +0.000 A 
ATOM     17  N   UNL     1       6.157   3.496  12.933  0.00  0.00    +0.000 NA
ATOM     18  C   UNL     1       6.843   3.599  11.817  0.00  0.00    +0.000 A 
ATOM     19  N   UNL     1       7.676   4.669  11.892  0.00  0.00    +0.000 N 
ATOM     20  N   UNL     1       7.555   5.290  13.070  0.00  0.00    +0.000 NA
ATOM     21  H   UNL     1       8.329   5.030  11.205  0.00  0.00    +0.000 HD
ENDBRANCH  15  16
ENDBRANCH   4  14
TORSDOF 3
ENDMDL
MODEL 7
REMARK VINA RESULT:      -7.2      5.817      8.089
REMARK  Name = 
REMARK  3 active torsions:
REMARK  status: ('A' for Active; 'I' for Inactive)
REMARK    1  A    between atoms: C_7  and  C_8
REMARK    2  A    between atoms: C_11  and  C_12
REMARK    3  A    between atoms: N_13  and  C_14
REMARK                            x       y       z     vdW  Elec       q    Type
REMARK                         _______ _______ _______ _____ _____    ______ ____
ROOT
ATOM      1  C   UNL     1       7.286   6.519  17.534  0.00  0.00    +0.000 A 
ATOM      2  C   UNL     1       8.026   6.463  18.698  0.00  0.00    +0.000 A 
ATOM      3  C   UNL     1       8.525   7.759  18.933  0.00  0.00    +0.000 A 
ATOM      4  C   UNL     1       8.044   8.560  17.918  0.00  0.00    +0.000 A 
ATOM      5  O   UNL     1       7.284   7.810  17.059  0.00  0.00    +0.000 OA
ENDROOT
BRANCH   1  12
ATOM      6 CL   UNL     1       6.633   3.948  13.091  0.00  0.00    +0.000 Cl
ATOM      7  C   UNL     1       6.134   4.327  14.693  0.00  0.00    +0.000 A 
ATOM      8  C   UNL     1       4.947   3.794  15.183  0.00  0.00    +0.000 A 
ATOM      9  C   UNL     1       4.545   4.100  16.480  0.00  0.00    +0.000 A 
ATOM     10  C   UNL     1       5.319   4.952  17.280  0.00  0.00    +0.000 A 
ATOM     11 CL   UNL     1       4.737   5.206  18.891  0.00  0.00    +0.000 Cl
ATOM     12  C   UNL     1       6.508   5.528  16.784  0.00  0.00    +0.000 A 
ATOM     13  C   UNL     1       6.912   5.182  15.480  0.00  0.00    +0.000 A 
ENDBRANCH   1  12
BRANCH   4  14
ATOM     14  C   UNL     1       8.209   9.975  17.700  0.00  0.00    +0.000 C 
ATOM     15  N   UNL     1       9.234  10.554  18.231  0.00  0.00    +0.000 NA
BRANCH  15  16
ATOM     16  C   UNL     1       9.286  11.922  18.018  0.00  0.00    +0.000 A 
ATOM     17  N   UNL     1      10.310  12.776  18.325  0.00  0.00    +0.000 NA
ATOM     18  C   UNL     1       9.869  13.931  17.880  0.00  0.00    +0.000 A 
ATOM     19  N   UNL     1       8.637  13.767  17.332  0.00  0.00    +0.000 N 
ATOM     20  N   UNL     1       8.243  12.492  17.411  0.00  0.00    +0.000 NA
ATOM     21  H   UNL     1       8.027  14.449  16.894  0.00  0.00    +0.000 HD
ENDBRANCH  15  16
ENDBRANCH   4  14
TORSDOF 3
ENDMDL
MODEL 8
REMARK VINA RESULT:      -7.2      4.740      7.652
REMARK  Name = 
REMARK  3 active torsions:
REMARK  status: ('A' for Active; 'I' for Inactive)
REMARK    1  A    between atoms: C_7  and  C_8
REMARK    2  A    between atoms: C_11  and  C_12
REMARK    3  A    between atoms: N_13  and  C_14
REMARK                            x       y       z     vdW  Elec       q    Type
REMARK                         _______ _______ _______ _____ _____    ______ ____
ROOT
ATOM      1  C   UNL     1       2.562   6.925  18.894  0.00  0.00    +0.000 A 
ATOM      2  C   UNL     1       2.814   7.749  17.816  0.00  0.00    +0.000 A 
ATOM      3  C   UNL     1       2.171   8.975  18.073  0.00  0.00    +0.000 A 
ATOM      4  C   UNL     1       1.577   8.860  19.312  0.00  0.00    +0.000 A 
ATOM      5  O   UNL     1       1.813   7.610  19.822  0.00  0.00    +0.000 OA
ENDROOT
BRANCH   1  12
ATOM      6 CL   UNL     1       1.531   2.623  21.579  0.00  0.00    +0.000 Cl
ATOM      7  C   UNL     1       2.542   3.525  20.518  0.00  0.00    +0.000 A 
ATOM      8  C   UNL     1       3.764   2.991  20.121  0.00  0.00    +0.000 A 
ATOM      9  C   UNL     1       4.580   3.721  19.261  0.00  0.00    +0.000 A 
ATOM     10  C   UNL     1       4.185   4.988  18.813  0.00  0.00    +0.000 A 
ATOM     11 CL   UNL     1       5.265   5.765  17.704  0.00  0.00    +0.000 Cl
ATOM     12  C   UNL     1       2.964   5.557  19.234  0.00  0.00    +0.000 A 
ATOM     13  C   UNL     1       2.139   4.790  20.080  0.00  0.00    +0.000 A 
ENDBRANCH   1  12
BRANCH   4  14
ATOM     14  C   UNL     1       0.833   9.831  20.075  0.00  0.00    +0.000 C 
ATOM     15  N   UNL     1       0.816   9.706  21.360  0.00  0.00    +0.000 NA
BRANCH  15  16
ATOM     16  C   UNL     1       0.033  10.646  22.011  0.00  0.00    +0.000 A 
ATOM     17  N   UNL     1       0.047  12.004  21.845  0.00  0.00    +0.000 NA
ATOM     18  C   UNL     1      -0.904  12.406  22.656  0.00  0.00    +0.000 A 
ATOM     19  N   UNL     1      -1.460  11.332  23.274  0.00  0.00    +0.000 N 
ATOM     20  N   UNL     1      -0.875  10.196  22.880  0.00  0.00    +0.000 NA
ATOM     21  H   UNL     1      -2.217  11.292  23.947  0.00  0.00    +0.000 HD
ENDBRANCH  15  16
ENDBRANCH   4  14
TORSDOF 3
ENDMDL
MODEL 9
REMARK VINA RESULT:      -7.2      4.690      7.982
REMARK  Name = 
REMARK  3 active torsions:
REMARK  status: ('A' for Active; 'I' for Inactive)
REMARK    1  A    between atoms: C_7  and  C_8
REMARK    2  A    between atoms: C_11  and  C_12
REMARK    3  A    between atoms: N_13  and  C_14
REMARK                            x       y       z     vdW  Elec       q    Type
REMARK                         _______ _______ _______ _____ _____    ______ ____
ROOT
ATOM      1  C   UNL     1       2.968   7.076  18.135  0.00  0.00    +0.000 A 
ATOM      2  C   UNL     1       2.796   8.226  17.391  0.00  0.00    +0.000 A 
ATOM      3  C   UNL     1       1.989   9.094  18.151  0.00  0.00    +0.000 A 
ATOM      4  C   UNL     1       1.726   8.451  19.343  0.00  0.00    +0.000 A 
ATOM      5  O   UNL     1       2.323   7.217  19.342  0.00  0.00    +0.000 OA
ENDROOT
BRANCH   1  12
ATOM      6 CL   UNL     1       7.576   4.784  17.602  0.00  0.00    +0.000 Cl
ATOM      7  C   UNL     1       5.857   4.715  17.609  0.00  0.00    +0.000 A 
ATOM      8  C   UNL     1       5.220   3.525  17.277  0.00  0.00    +0.000 A 
ATOM      9  C   UNL     1       3.828   3.469  17.285  0.00  0.00    +0.000 A 
ATOM     10  C   UNL     1       3.076   4.606  17.607  0.00  0.00    +0.000 A 
ATOM     11 CL   UNL     1       1.358   4.389  17.635  0.00  0.00    +0.000 Cl
ATOM     12  C   UNL     1       3.708   5.831  17.913  0.00  0.00    +0.000 A 
ATOM     13  C   UNL     1       5.116   5.857  17.928  0.00  0.00    +0.000 A 
ENDBRANCH   1  12
BRANCH   4  14
ATOM     14  C   UNL     1       0.990   8.905  20.496  0.00  0.00    +0.000 C 
ATOM     15  N   UNL     1       0.317  10.002  20.391  0.00  0.00    +0.000 NA
BRANCH  15  16
ATOM     16  C   UNL     1      -0.315  10.394  21.559  0.00  0.00    +0.000 A 
ATOM     17  N   UNL     1      -0.891  11.605  21.832  0.00  0.00    +0.000 NA
ATOM     18  C   UNL     1      -1.375  11.431  23.041  0.00  0.00    +0.000 A 
ATOM     19  N   UNL     1      -1.099  10.171  23.465  0.00  0.00    +0.000 N 
ATOM     20  N   UNL     1      -0.420   9.490  22.536  0.00  0.00    +0.000 NA
ATOM     21  H   UNL     1      -1.337   9.715  24.339  0.00  0.00    +0.000 HD
ENDBRANCH  15  16
ENDBRANCH   4  14
TORSDOF 3
ENDMDL
