MODEL 1
REMARK VINA RESULT:      -8.5      0.000      0.000
REMARK  Name = 
REMARK  9 active torsions:
REMARK  status: ('A' for Active; 'I' for Inactive)
REMARK    1  A    between atoms: C_1  and  C_2
REMARK    2  A    between atoms: C_4  and  C_5
REMARK    3  A    between atoms: C_6  and  C_7
REMARK    4  A    between atoms: C_7  and  C_8
REMARK    5  A    between atoms: C_7  and  C_9
REMARK    6  A    between atoms: C_7  and  C_10
REMARK    7  A    between atoms: C_10  and  C_11
REMARK    8  A    between atoms: C_11  and  O_13
REMARK    9  A    between atoms: C_16  and  N_17
REMARK                            x       y       z     vdW  Elec       q    Type
REMARK                         _______ _______ _______ _____ _____    ______ ____
ROOT
ATOM      1  C   UNL     1       0.143   8.627  21.574  0.00  0.00    +0.000 C 
ATOM      2  C   UNL     1       0.788   9.165  20.330  0.00  0.00    +0.000 A 
ATOM      3  C   UNL     1       1.731   8.200  19.646  0.00  0.00    +0.000 A 
ATOM      4  C   UNL     1       2.377   8.385  18.408  0.00  0.00    +0.000 A 
ATOM      5  C   UNL     1       1.983   9.615  17.842  0.00  0.00    +0.000 A 
ATOM      6  C   UNL     1       1.035  10.579  18.500  0.00  0.00    +0.000 A 
ATOM      7  C   UNL     1       0.434  10.427  19.795  0.00  0.00    +0.000 A 
ENDROOT
BRANCH   7   8
ATOM      8  N   UNL     1      -0.732  11.365  20.263  0.00  0.00    +0.000 N 
ATOM      9  C   UNL     1      -1.733  11.543  19.147  0.00  0.00    +0.000 C 
ATOM     10  C   UNL     1      -2.810  12.303  19.786  0.00  0.00    +0.000 C 
ATOM     11  O   UNL     1      -4.106  12.394  20.222  0.00  0.00    +0.000 OA
ATOM     12  C   UNL     1      -3.908  12.865  21.538  0.00  0.00    +0.000 A 
ATOM     13  N   UNL     1      -5.089  13.396  21.950  0.00  0.00    +0.000 NA
ATOM     14  C   UNL     1      -5.082  14.046  23.118  0.00  0.00    +0.000 A 
ATOM     15  N   UNL     1      -3.964  14.230  23.806  0.00  0.00    +0.000 NA
ATOM     16  C   UNL     1      -2.771  13.703  23.360  0.00  0.00    +0.000 A 
ATOM     17  N   UNL     1      -1.773  14.293  24.130  0.00  0.00    +0.000 N 
ATOM     18  C   UNL     1      -2.603  12.878  22.206  0.00  0.00    +0.000 A 
ATOM     19  C   UNL     1      -1.079  12.016  21.736  0.00  0.00    +0.000 C 
ATOM     20  O   UNL     1      -0.210  11.916  22.595  0.00  0.00    +0.000 OA
ATOM     21  H   UNL     1      -2.308  14.785  24.866  0.00  0.00    +0.000 HD
ATOM     22  H   UNL     1      -1.307  15.024  23.600  0.00  0.00    +0.000 HD
ENDBRANCH   7   8
BRANCH   4  23
ATOM     23  C   UNL     1       3.379   7.334  17.816  0.00  0.00    +0.000 C 
ATOM     24  C   UNL     1       4.307   6.534  17.370  0.00  0.00    +0.000 C 
BRANCH  24  25
ATOM     25  C   UNL     1       5.390   5.602  16.850  0.00  0.00    +0.000 C 
ATOM     26  C   UNL     1       5.004   4.188  17.335  0.00  0.00    +0.000 C 
ATOM     27  C   UNL     1       5.315   5.668  15.312  0.00  0.00    +0.000 C 
BRANCH  25  28
ATOM     28  C   UNL     1       6.779   6.019  17.372  0.00  0.00    +0.000 C 
BRANCH  28  29
ATOM     29  C   UNL     1       7.438   5.016  18.313  0.00  0.00    +0.000 C 
ATOM     30  O   UNL     1       7.342   4.987  19.520  0.00  0.00    +0.000 OA
BRANCH  29  31
ATOM     31  O   UNL     1       8.179   4.105  17.641  0.00  0.00    +0.000 OA
ATOM     32  H   UNL     1       8.047   3.185  17.928  0.00  0.00    +0.000 HD
ENDBRANCH  29  31
ENDBRANCH  28  29
ENDBRANCH  25  28
ENDBRANCH  24  25
ENDBRANCH   4  23
TORSDOF 6
ENDMDL
MODEL 2
REMARK VINA RESULT:      -8.4      0.891      1.120
REMARK  Name = 
REMARK  9 active torsions:
REMARK  status: ('A' for Active; 'I' for Inactive)
REMARK    1  A    between atoms: C_1  and  C_2
REMARK    2  A    between atoms: C_4  and  C_5
REMARK    3  A    between atoms: C_6  and  C_7
REMARK    4  A    between atoms: C_7  and  C_8
REMARK    5  A    between atoms: C_7  and  C_9
REMARK    6  A    between atoms: C_7  and  C_10
REMARK    7  A    between atoms: C_10  and  C_11
REMARK    8  A    between atoms: C_11  and  O_13
REMARK    9  A    between atoms: C_16  and  N_17
REMARK                            x       y       z     vdW  Elec       q    Type
REMARK                         _______ _______ _______ _____ _____    ______ ____
ROOT
ATOM      1  C   UNL     1       0.195   8.720  21.864  0.00  0.00    +0.000 C 
ATOM      2  C   UNL     1       0.774   9.125  20.539  0.00  0.00    +0.000 A 
ATOM      3  C   UNL     1       1.666   8.084  19.901  0.00  0.00    +0.000 A 
ATOM      4  C   UNL     1       2.242   8.139  18.616  0.00  0.00    +0.000 A 
ATOM      5  C   UNL     1       1.829   9.314  17.956  0.00  0.00    +0.000 A 
ATOM      6  C   UNL     1       0.931  10.352  18.570  0.00  0.00    +0.000 A 
ATOM      7  C   UNL     1       0.403  10.335  19.905  0.00  0.00    +0.000 A 
ENDROOT
BRANCH   7   8
ATOM      8  N   UNL     1      -0.725  11.332  20.344  0.00  0.00    +0.000 N 
ATOM      9  C   UNL     1      -1.722  11.512  19.225  0.00  0.00    +0.000 C 
ATOM     10  C   UNL     1      -2.767  12.334  19.840  0.00  0.00    +0.000 C 
ATOM     11  O   UNL     1      -4.057  12.488  20.276  0.00  0.00    +0.000 OA
ATOM     12  C   UNL     1      -3.837  12.995  21.576  0.00  0.00    +0.000 A 
ATOM     13  N   UNL     1      -4.995  13.584  21.972  0.00  0.00    +0.000 NA
ATOM     14  C   UNL     1      -4.959  14.271  23.118  0.00  0.00    +0.000 A 
ATOM     15  N   UNL     1      -3.833  14.435  23.797  0.00  0.00    +0.000 NA
ATOM     16  C   UNL     1      -2.662  13.848  23.366  0.00  0.00    +0.000 A 
ATOM     17  N   UNL     1      -1.640  14.424  24.114  0.00  0.00    +0.000 N 
ATOM     18  C   UNL     1      -2.529  12.979  22.240  0.00  0.00    +0.000 A 
ATOM     19  C   UNL     1      -1.042  12.044  21.795  0.00  0.00    +0.000 C 
ATOM     20  O   UNL     1      -0.174  11.940  22.656  0.00  0.00    +0.000 OA
ATOM     21  H   UNL     1      -2.153  14.961  24.834  0.00  0.00    +0.000 HD
ATOM     22  H   UNL     1      -1.148  15.120  23.559  0.00  0.00    +0.000 HD
ENDBRANCH   7   8
BRANCH   4  23
ATOM     23  C   UNL     1       3.198   7.019  18.075  0.00  0.00    +0.000 C 
ATOM     24  C   UNL     1       3.911   6.003  17.679  0.00  0.00    +0.000 C 
BRANCH  24  25
ATOM     25  C   UNL     1       4.744   4.816  17.218  0.00  0.00    +0.000 C 
ATOM     26  C   UNL     1       5.646   4.439  18.413  0.00  0.00    +0.000 C 
ATOM     27  C   UNL     1       3.748   3.675  16.932  0.00  0.00    +0.000 C 
BRANCH  25  28
ATOM     28  C   UNL     1       5.576   5.174  15.972  0.00  0.00    +0.000 C 
BRANCH  28  29
ATOM     29  C   UNL     1       7.029   5.542  16.255  0.00  0.00    +0.000 C 
ATOM     30  O   UNL     1       7.453   6.642  16.537  0.00  0.00    +0.000 OA
BRANCH  29  31
ATOM     31  O   UNL     1       7.849   4.470  16.162  0.00  0.00    +0.000 OA
ATOM     32  H   UNL     1       8.040   4.033  17.010  0.00  0.00    +0.000 HD
ENDBRANCH  29  31
ENDBRANCH  28  29
ENDBRANCH  25  28
ENDBRANCH  24  25
ENDBRANCH   4  23
TORSDOF 6
ENDMDL
MODEL 3
REMARK VINA RESULT:      -8.3      1.097      1.541
REMARK  Name = 
REMARK  9 active torsions:
REMARK  status: ('A' for Active; 'I' for Inactive)
REMARK    1  A    between atoms: C_1  and  C_2
REMARK    2  A    between atoms: C_4  and  C_5
REMARK    3  A    between atoms: C_6  and  C_7
REMARK    4  A    between atoms: C_7  and  C_8
REMARK    5  A    between atoms: C_7  and  C_9
REMARK    6  A    between atoms: C_7  and  C_10
REMARK    7  A    between atoms: C_10  and  C_11
REMARK    8  A    between atoms: C_11  and  O_13
REMARK    9  A    between atoms: C_16  and  N_17
REMARK                            x       y       z     vdW  Elec       q    Type
REMARK                         _______ _______ _______ _____ _____    ______ ____
ROOT
ATOM      1  C   UNL     1       0.165   8.770  21.822  0.00  0.00    +0.000 C 
ATOM      2  C   UNL     1       0.743   9.204  20.506  0.00  0.00    +0.000 A 
ATOM      3  C   UNL     1       1.640   8.181  19.848  0.00  0.00    +0.000 A 
ATOM      4  C   UNL     1       2.217   8.263  18.565  0.00  0.00    +0.000 A 
ATOM      5  C   UNL     1       1.798   9.449  17.928  0.00  0.00    +0.000 A 
ATOM      6  C   UNL     1       0.895  10.470  18.561  0.00  0.00    +0.000 A 
ATOM      7  C   UNL     1       0.366  10.425  19.896  0.00  0.00    +0.000 A 
ENDROOT
BRANCH   7   8
ATOM      8  N   UNL     1      -0.767  11.408  20.353  0.00  0.00    +0.000 N 
ATOM      9  C   UNL     1      -1.777  11.585  19.247  0.00  0.00    +0.000 C 
ATOM     10  C   UNL     1      -2.823  12.392  19.879  0.00  0.00    +0.000 C 
ATOM     11  O   UNL     1      -4.110  12.531  20.330  0.00  0.00    +0.000 OA
ATOM     12  C   UNL     1      -3.881  13.031  21.630  0.00  0.00    +0.000 A 
ATOM     13  N   UNL     1      -5.041  13.606  22.043  0.00  0.00    +0.000 NA
ATOM     14  C   UNL     1      -4.998  14.286  23.193  0.00  0.00    +0.000 A 
ATOM     15  N   UNL     1      -3.867  14.456  23.861  0.00  0.00    +0.000 NA
ATOM     16  C   UNL     1      -2.696  13.884  23.414  0.00  0.00    +0.000 A 
ATOM     17  N   UNL     1      -1.671  14.465  24.155  0.00  0.00    +0.000 N 
ATOM     18  C   UNL     1      -2.566  13.024  22.280  0.00  0.00    +0.000 A 
ATOM     19  C   UNL     1      -1.075  12.107  21.813  0.00  0.00    +0.000 C 
ATOM     20  O   UNL     1      -0.197  12.005  22.663  0.00  0.00    +0.000 OA
ATOM     21  H   UNL     1      -2.181  14.991  24.884  0.00  0.00    +0.000 HD
ATOM     22  H   UNL     1      -1.192  15.169  23.599  0.00  0.00    +0.000 HD
ENDBRANCH   7   8
BRANCH   4  23
ATOM     23  C   UNL     1       3.178   7.159  18.002  0.00  0.00    +0.000 C 
ATOM     24  C   UNL     1       4.009   6.217  17.657  0.00  0.00    +0.000 C 
BRANCH  24  25
ATOM     25  C   UNL     1       4.980   5.118  17.254  0.00  0.00    +0.000 C 
ATOM     26  C   UNL     1       5.234   5.306  15.743  0.00  0.00    +0.000 C 
ATOM     27  C   UNL     1       6.280   5.380  18.041  0.00  0.00    +0.000 C 
BRANCH  25  28
ATOM     28  C   UNL     1       4.399   3.724  17.561  0.00  0.00    +0.000 C 
BRANCH  28  29
ATOM     29  C   UNL     1       4.293   3.386  19.044  0.00  0.00    +0.000 C 
ATOM     30  O   UNL     1       3.506   3.856  19.837  0.00  0.00    +0.000 OA
BRANCH  29  31
ATOM     31  O   UNL     1       5.205   2.459  19.417  0.00  0.00    +0.000 OA
ATOM     32  H   UNL     1       6.097   2.812  19.579  0.00  0.00    +0.000 HD
ENDBRANCH  29  31
ENDBRANCH  28  29
ENDBRANCH  25  28
ENDBRANCH  24  25
ENDBRANCH   4  23
TORSDOF 6
ENDMDL
MODEL 4
REMARK VINA RESULT:      -8.0      1.535      1.885
REMARK  Name = 
REMARK  9 active torsions:
REMARK  status: ('A' for Active; 'I' for Inactive)
REMARK    1  A    between atoms: C_1  and  C_2
REMARK    2  A    between atoms: C_4  and  C_5
REMARK    3  A    between atoms: C_6  and  C_7
REMARK    4  A    between atoms: C_7  and  C_8
REMARK    5  A    between atoms: C_7  and  C_9
REMARK    6  A    between atoms: C_7  and  C_10
REMARK    7  A    between atoms: C_10  and  C_11
REMARK    8  A    between atoms: C_11  and  O_13
REMARK    9  A    between atoms: C_16  and  N_17
REMARK                            x       y       z     vdW  Elec       q    Type
REMARK                         _______ _______ _______ _____ _____    ______ ____
ROOT
ATOM      1  C   UNL     1       0.476   8.947  21.771  0.00  0.00    +0.000 C 
ATOM      2  C   UNL     1       1.010   9.098  20.376  0.00  0.00    +0.000 A 
ATOM      3  C   UNL     1       1.775   7.898  19.865  0.00  0.00    +0.000 A 
ATOM      4  C   UNL     1       2.280   7.710  18.563  0.00  0.00    +0.000 A 
ATOM      5  C   UNL     1       1.929   8.808  17.751  0.00  0.00    +0.000 A 
ATOM      6  C   UNL     1       1.156  10.002  18.238  0.00  0.00    +0.000 A 
ATOM      7  C   UNL     1       0.705  10.230  19.582  0.00  0.00    +0.000 A 
ENDROOT
BRANCH   7   8
ATOM      8  N   UNL     1      -0.309  11.379  19.913  0.00  0.00    +0.000 N 
ATOM      9  C   UNL     1      -1.553  11.232  19.070  0.00  0.00    +0.000 C 
ATOM     10  C   UNL     1      -2.439  12.270  19.602  0.00  0.00    +0.000 C 
ATOM     11  O   UNL     1      -3.588  12.635  20.253  0.00  0.00    +0.000 OA
ATOM     12  C   UNL     1      -3.073  13.532  21.213  0.00  0.00    +0.000 A 
ATOM     13  N   UNL     1      -4.116  14.285  21.651  0.00  0.00    +0.000 NA
ATOM     14  C   UNL     1      -3.821  15.312  22.454  0.00  0.00    +0.000 A 
ATOM     15  N   UNL     1      -2.569  15.629  22.750  0.00  0.00    +0.000 NA
ATOM     16  C   UNL     1      -1.523  14.866  22.278  0.00  0.00    +0.000 A 
ATOM     17  N   UNL     1      -0.365  15.599  22.521  0.00  0.00    +0.000 N 
ATOM     18  C   UNL     1      -1.643  13.665  21.513  0.00  0.00    +0.000 A 
ATOM     19  C   UNL     1      -0.283  12.552  21.070  0.00  0.00    +0.000 C 
ATOM     20  O   UNL     1       0.770  12.691  21.683  0.00  0.00    +0.000 OA
ATOM     21  H   UNL     1      -0.702  16.373  23.118  0.00  0.00    +0.000 HD
ATOM     22  H   UNL     1      -0.042  16.040  21.664  0.00  0.00    +0.000 HD
ENDBRANCH   7   8
BRANCH   4  23
ATOM     23  C   UNL     1       3.106   6.441  18.156  0.00  0.00    +0.000 C 
ATOM     24  C   UNL     1       3.897   5.464  17.810  0.00  0.00    +0.000 C 
BRANCH  24  25
ATOM     25  C   UNL     1       4.819   4.325  17.405  0.00  0.00    +0.000 C 
ATOM     26  C   UNL     1       6.054   4.429  18.326  0.00  0.00    +0.000 C 
ATOM     27  C   UNL     1       4.052   3.022  17.703  0.00  0.00    +0.000 C 
BRANCH  25  28
ATOM     28  C   UNL     1       5.211   4.430  15.919  0.00  0.00    +0.000 C 
BRANCH  28  29
ATOM     29  C   UNL     1       5.889   5.738  15.526  0.00  0.00    +0.000 C 
ATOM     30  O   UNL     1       5.340   6.788  15.271  0.00  0.00    +0.000 OA
BRANCH  29  31
ATOM     31  O   UNL     1       7.236   5.617  15.487  0.00  0.00    +0.000 OA
ATOM     32  H   UNL     1       7.559   4.840  14.999  0.00  0.00    +0.000 HD
ENDBRANCH  29  31
ENDBRANCH  28  29
ENDBRANCH  25  28
ENDBRANCH  24  25
ENDBRANCH   4  23
TORSDOF 6
ENDMDL
MODEL 5
REMARK VINA RESULT:      -7.9      1.894      2.241
REMARK  Name = 
REMARK  9 active torsions:
REMARK  status: ('A' for Active; 'I' for Inactive)
REMARK    1  A    between atoms: C_1  and  C_2
REMARK    2  A    between atoms: C_4  and  C_5
REMARK    3  A    between atoms: C_6  and  C_7
REMARK    4  A    between atoms: C_7  and  C_8
REMARK    5  A    between atoms: C_7  and  C_9
REMARK    6  A    between atoms: C_7  and  C_10
REMARK    7  A    between atoms: C_10  and  C_11
REMARK    8  A    between atoms: C_11  and  O_13
REMARK    9  A    between atoms: C_16  and  N_17
REMARK                            x       y       z     vdW  Elec       q    Type
REMARK                         _______ _______ _______ _____ _____    ______ ____
ROOT
ATOM      1  C   UNL     1       0.024   8.896  22.072  0.00  0.00    +0.000 C 
ATOM      2  C   UNL     1       0.721   9.009  20.747  0.00  0.00    +0.000 A 
ATOM      3  C   UNL     1       1.596   7.826  20.397  0.00  0.00    +0.000 A 
ATOM      4  C   UNL     1       2.266   7.603  19.177  0.00  0.00    +0.000 A 
ATOM      5  C   UNL     1       1.971   8.643  18.272  0.00  0.00    +0.000 A 
ATOM      6  C   UNL     1       1.091   9.818  18.598  0.00  0.00    +0.000 A 
ATOM      7  C   UNL     1       0.467  10.085  19.863  0.00  0.00    +0.000 A 
ENDROOT
BRANCH   7   8
ATOM      8  N   UNL     1      -0.630  11.196  20.008  0.00  0.00    +0.000 N 
ATOM      9  C   UNL     1      -1.643  11.072  18.895  0.00  0.00    +0.000 C 
ATOM     10  C   UNL     1      -2.658  12.063  19.258  0.00  0.00    +0.000 C 
ATOM     11  O   UNL     1      -3.936  12.371  19.645  0.00  0.00    +0.000 OA
ATOM     12  C   UNL     1      -3.682  13.225  20.740  0.00  0.00    +0.000 A 
ATOM     13  N   UNL     1      -4.820  13.933  20.962  0.00  0.00    +0.000 NA
ATOM     14  C   UNL     1      -4.747  14.921  21.860  0.00  0.00    +0.000 A 
ATOM     15  N   UNL     1      -3.606  15.244  22.451  0.00  0.00    +0.000 NA
ATOM     16  C   UNL     1      -2.457  14.527  22.196  0.00  0.00    +0.000 A 
ATOM     17  N   UNL     1      -1.408  15.267  22.734  0.00  0.00    +0.000 N 
ATOM     18  C   UNL     1      -2.363  13.367  21.367  0.00  0.00    +0.000 A 
ATOM     19  C   UNL     1      -0.905  12.305  21.195  0.00  0.00    +0.000 C 
ATOM     20  O   UNL     1      -0.025  12.430  22.040  0.00  0.00    +0.000 OA
ATOM     21  H   UNL     1      -1.896  16.002  23.275  0.00  0.00    +0.000 HD
ATOM     22  H   UNL     1      -0.911  15.760  21.997  0.00  0.00    +0.000 HD
ENDBRANCH   7   8
BRANCH   4  23
ATOM     23  C   UNL     1       3.192   6.360  18.942  0.00  0.00    +0.000 C 
ATOM     24  C   UNL     1       3.930   5.334  18.620  0.00  0.00    +0.000 C 
BRANCH  24  25
ATOM     25  C   UNL     1       4.789   4.137  18.245  0.00  0.00    +0.000 C 
ATOM     26  C   UNL     1       4.371   3.745  16.812  0.00  0.00    +0.000 C 
ATOM     27  C   UNL     1       6.248   4.634  18.248  0.00  0.00    +0.000 C 
BRANCH  25  28
ATOM     28  C   UNL     1       4.581   2.973  19.233  0.00  0.00    +0.000 C 
BRANCH  28  29
ATOM     29  C   UNL     1       3.568   1.924  18.784  0.00  0.00    +0.000 C 
ATOM     30  O   UNL     1       2.365   2.058  18.731  0.00  0.00    +0.000 OA
BRANCH  29  31
ATOM     31  O   UNL     1       4.168   0.765  18.426  0.00  0.00    +0.000 OA
ATOM     32  H   UNL     1       4.509   0.240  19.171  0.00  0.00    +0.000 HD
ENDBRANCH  29  31
ENDBRANCH  28  29
ENDBRANCH  25  28
ENDBRANCH  24  25
ENDBRANCH   4  23
TORSDOF 6
ENDMDL
MODEL 6
REMARK VINA RESULT:      -7.9      3.813     10.877
REMARK  Name = 
REMARK  9 active torsions:
REMARK  status: ('A' for Active; 'I' for Inactive)
REMARK    1  A    between atoms: C_1  and  C_2
REMARK    2  A    between atoms: C_4  and  C_5
REMARK    3  A    between atoms: C_6  and  C_7
REMARK    4  A    between atoms: C_7  and  C_8
REMARK    5  A    between atoms: C_7  and  C_9
REMARK    6  A    between atoms: C_7  and  C_10
REMARK    7  A    between atoms: C_10  and  C_11
REMARK    8  A    between atoms: C_11  and  O_13
REMARK    9  A    between atoms: C_16  and  N_17
REMARK                            x       y       z     vdW  Elec       q    Type
REMARK                         _______ _______ _______ _____ _____    ______ ____
ROOT
ATOM      1  C   UNL     1       0.328   9.667  18.406  0.00  0.00    +0.000 C 
ATOM      2  C   UNL     1       0.447   9.610  19.901  0.00  0.00    +0.000 A 
ATOM      3  C   UNL     1      -0.512  10.515  20.641  0.00  0.00    +0.000 A 
ATOM      4  C   UNL     1      -0.709  10.579  22.035  0.00  0.00    +0.000 A 
ATOM      5  C   UNL     1       0.104   9.622  22.676  0.00  0.00    +0.000 A 
ATOM      6  C   UNL     1       1.052   8.704  21.956  0.00  0.00    +0.000 A 
ATOM      7  C   UNL     1       1.309   8.688  20.543  0.00  0.00    +0.000 A 
ENDROOT
BRANCH   7   8
ATOM      8  N   UNL     1       2.118   7.521  19.879  0.00  0.00    +0.000 N 
ATOM      9  C   UNL     1       1.880   6.233  20.629  0.00  0.00    +0.000 C 
ATOM     10  C   UNL     1       2.570   5.238  19.806  0.00  0.00    +0.000 C 
ATOM     11  O   UNL     1       2.536   4.132  18.997  0.00  0.00    +0.000 OA
ATOM     12  C   UNL     1       3.309   4.581  17.904  0.00  0.00    +0.000 A 
ATOM     13  N   UNL     1       3.712   3.476  17.224  0.00  0.00    +0.000 NA
ATOM     14  C   UNL     1       4.593   3.666  16.236  0.00  0.00    +0.000 A 
ATOM     15  N   UNL     1       5.106   4.860  15.980  0.00  0.00    +0.000 NA
ATOM     16  C   UNL     1       4.701   5.966  16.696  0.00  0.00    +0.000 A 
ATOM     17  N   UNL     1       5.602   6.981  16.388  0.00  0.00    +0.000 N 
ATOM     18  C   UNL     1       3.684   5.984  17.700  0.00  0.00    +0.000 A 
ATOM     19  C   UNL     1       3.007   7.466  18.493  0.00  0.00    +0.000 C 
ATOM     20  O   UNL     1       3.243   8.542  17.953  0.00  0.00    +0.000 OA
ATOM     21  H   UNL     1       6.146   6.579  15.606  0.00  0.00    +0.000 HD
ATOM     22  H   UNL     1       6.268   7.101  17.147  0.00  0.00    +0.000 HD
ENDBRANCH   7   8
BRANCH   4  23
ATOM     23  C   UNL     1      -1.700  11.596  22.699  0.00  0.00    +0.000 C 
ATOM     24  C   UNL     1      -2.619  12.382  23.186  0.00  0.00    +0.000 C 
BRANCH  24  25
ATOM     25  C   UNL     1      -3.691  13.300  23.753  0.00  0.00    +0.000 C 
ATOM     26  C   UNL     1      -4.480  12.453  24.775  0.00  0.00    +0.000 C 
ATOM     27  C   UNL     1      -2.946  14.437  24.479  0.00  0.00    +0.000 C 
BRANCH  25  28
ATOM     28  C   UNL     1      -4.607  13.838  22.638  0.00  0.00    +0.000 C 
BRANCH  28  29
ATOM     29  C   UNL     1      -5.057  12.796  21.619  0.00  0.00    +0.000 C 
ATOM     30  O   UNL     1      -5.898  11.939  21.785  0.00  0.00    +0.000 OA
BRANCH  29  31
ATOM     31  O   UNL     1      -4.400  12.922  20.443  0.00  0.00    +0.000 OA
ATOM     32  H   UNL     1      -3.496  12.562  20.445  0.00  0.00    +0.000 HD
ENDBRANCH  29  31
ENDBRANCH  28  29
ENDBRANCH  25  28
ENDBRANCH  24  25
ENDBRANCH   4  23
TORSDOF 6
ENDMDL
MODEL 7
REMARK VINA RESULT:      -7.9      1.288      2.219
REMARK  Name = 
REMARK  9 active torsions:
REMARK  status: ('A' for Active; 'I' for Inactive)
REMARK    1  A    between atoms: C_1  and  C_2
REMARK    2  A    between atoms: C_4  and  C_5
REMARK    3  A    between atoms: C_6  and  C_7
REMARK    4  A    between atoms: C_7  and  C_8
REMARK    5  A    between atoms: C_7  and  C_9
REMARK    6  A    between atoms: C_7  and  C_10
REMARK    7  A    between atoms: C_10  and  C_11
REMARK    8  A    between atoms: C_11  and  O_13
REMARK    9  A    between atoms: C_16  and  N_17
REMARK                            x       y       z     vdW  Elec       q    Type
REMARK                         _______ _______ _______ _____ _____    ______ ____
ROOT
ATOM      1  C   UNL     1       0.611   8.152  21.558  0.00  0.00    +0.000 C 
ATOM      2  C   UNL     1       1.162   8.722  20.283  0.00  0.00    +0.000 A 
ATOM      3  C   UNL     1       2.070   7.785  19.519  0.00  0.00    +0.000 A 
ATOM      4  C   UNL     1       2.626   8.001  18.242  0.00  0.00    +0.000 A 
ATOM      5  C   UNL     1       2.176   9.235  17.727  0.00  0.00    +0.000 A 
ATOM      6  C   UNL     1       1.262  10.171  18.467  0.00  0.00    +0.000 A 
ATOM      7  C   UNL     1       0.754   9.988  19.797  0.00  0.00    +0.000 A 
ENDROOT
BRANCH   7   8
ATOM      8  N   UNL     1      -0.391  10.899  20.361  0.00  0.00    +0.000 N 
ATOM      9  C   UNL     1       0.031  11.507  21.676  0.00  0.00    +0.000 C 
ATOM     10  C   UNL     1      -1.065  12.429  21.982  0.00  0.00    +0.000 C 
ATOM     11  O   UNL     1      -1.530  13.705  22.170  0.00  0.00    +0.000 OA
ATOM     12  C   UNL     1      -2.670  13.695  21.338  0.00  0.00    +0.000 A 
ATOM     13  N   UNL     1      -3.459  14.728  21.734  0.00  0.00    +0.000 NA
ATOM     14  C   UNL     1      -4.673  14.805  21.179  0.00  0.00    +0.000 A 
ATOM     15  N   UNL     1      -5.116  13.880  20.340  0.00  0.00    +0.000 NA
ATOM     16  C   UNL     1      -4.309  12.827  19.967  0.00  0.00    +0.000 A 
ATOM     17  N   UNL     1      -5.135  11.912  19.323  0.00  0.00    +0.000 N 
ATOM     18  C   UNL     1      -2.946  12.642  20.354  0.00  0.00    +0.000 A 
ATOM     19  C   UNL     1      -1.824  11.377  19.702  0.00  0.00    +0.000 C 
ATOM     20  O   UNL     1      -2.169  10.806  18.673  0.00  0.00    +0.000 OA
ATOM     21  H   UNL     1      -6.021  12.435  19.214  0.00  0.00    +0.000 HD
ATOM     22  H   UNL     1      -5.354  11.138  19.945  0.00  0.00    +0.000 HD
ENDBRANCH   7   8
BRANCH   4  23
ATOM     23  C   UNL     1       3.600   6.976  17.564  0.00  0.00    +0.000 C 
ATOM     24  C   UNL     1       4.503   6.212  17.015  0.00  0.00    +0.000 C 
BRANCH  24  25
ATOM     25  C   UNL     1       5.556   5.322  16.374  0.00  0.00    +0.000 C 
ATOM     26  C   UNL     1       5.182   3.875  16.759  0.00  0.00    +0.000 C 
ATOM     27  C   UNL     1       5.413   5.513  14.851  0.00  0.00    +0.000 C 
BRANCH  25  28
ATOM     28  C   UNL     1       6.968   5.691  16.866  0.00  0.00    +0.000 C 
BRANCH  28  29
ATOM     29  C   UNL     1       7.460   4.887  18.065  0.00  0.00    +0.000 C 
ATOM     30  O   UNL     1       7.100   5.013  19.215  0.00  0.00    +0.000 OA
BRANCH  29  31
ATOM     31  O   UNL     1       8.384   3.964  17.710  0.00  0.00    +0.000 OA
ATOM     32  H   UNL     1       8.382   3.160  18.256  0.00  0.00    +0.000 HD
ENDBRANCH  29  31
ENDBRANCH  28  29
ENDBRANCH  25  28
ENDBRANCH  24  25
ENDBRANCH   4  23
TORSDOF 6
ENDMDL
MODEL 8
REMARK VINA RESULT:      -7.8      3.920     11.171
REMARK  Name = 
REMARK  9 active torsions:
REMARK  status: ('A' for Active; 'I' for Inactive)
REMARK    1  A    between atoms: C_1  and  C_2
REMARK    2  A    between atoms: C_4  and  C_5
REMARK    3  A    between atoms: C_6  and  C_7
REMARK    4  A    between atoms: C_7  and  C_8
REMARK    5  A    between atoms: C_7  and  C_9
REMARK    6  A    between atoms: C_7  and  C_10
REMARK    7  A    between atoms: C_10  and  C_11
REMARK    8  A    between atoms: C_11  and  O_13
REMARK    9  A    between atoms: C_16  and  N_17
REMARK                            x       y       z     vdW  Elec       q    Type
REMARK                         _______ _______ _______ _____ _____    ______ ____
ROOT
ATOM      1  C   UNL     1       0.256   9.731  18.292  0.00  0.00    +0.000 C 
ATOM      2  C   UNL     1       0.366   9.734  19.789  0.00  0.00    +0.000 A 
ATOM      3  C   UNL     1      -0.597  10.670  20.485  0.00  0.00    +0.000 A 
ATOM      4  C   UNL     1      -0.802  10.790  21.874  0.00  0.00    +0.000 A 
ATOM      5  C   UNL     1       0.005   9.858  22.559  0.00  0.00    +0.000 A 
ATOM      6  C   UNL     1       0.956   8.911  21.882  0.00  0.00    +0.000 A 
ATOM      7  C   UNL     1       1.222   8.838  20.473  0.00  0.00    +0.000 A 
ENDROOT
BRANCH   7   8
ATOM      8  N   UNL     1       2.033   7.643  19.862  0.00  0.00    +0.000 N 
ATOM      9  C   UNL     1       1.779   6.385  20.655  0.00  0.00    +0.000 C 
ATOM     10  C   UNL     1       2.475   5.357  19.878  0.00  0.00    +0.000 C 
ATOM     11  O   UNL     1       2.445   4.222  19.109  0.00  0.00    +0.000 OA
ATOM     12  C   UNL     1       3.233   4.627  18.011  0.00  0.00    +0.000 A 
ATOM     13  N   UNL     1       3.639   3.497  17.376  0.00  0.00    +0.000 NA
ATOM     14  C   UNL     1       4.533   3.647  16.393  0.00  0.00    +0.000 A 
ATOM     15  N   UNL     1       5.055   4.828  16.100  0.00  0.00    +0.000 NA
ATOM     16  C   UNL     1       4.647   5.961  16.771  0.00  0.00    +0.000 A 
ATOM     17  N   UNL     1       5.557   6.960  16.437  0.00  0.00    +0.000 N 
ATOM     18  C   UNL     1       3.618   6.021  17.760  0.00  0.00    +0.000 A 
ATOM     19  C   UNL     1       2.939   7.534  18.490  0.00  0.00    +0.000 C 
ATOM     20  O   UNL     1       3.187   8.588  17.914  0.00  0.00    +0.000 OA
ATOM     21  H   UNL     1       6.108   6.528  15.677  0.00  0.00    +0.000 HD
ATOM     22  H   UNL     1       6.214   7.105  17.199  0.00  0.00    +0.000 HD
ENDBRANCH   7   8
BRANCH   4  23
ATOM     23  C   UNL     1      -1.796  11.835  22.490  0.00  0.00    +0.000 C 
ATOM     24  C   UNL     1      -2.659  12.610  23.084  0.00  0.00    +0.000 C 
BRANCH  24  25
ATOM     25  C   UNL     1      -3.667  13.514  23.777  0.00  0.00    +0.000 C 
ATOM     26  C   UNL     1      -2.849  14.422  24.720  0.00  0.00    +0.000 C 
ATOM     27  C   UNL     1      -4.319  14.363  22.667  0.00  0.00    +0.000 C 
BRANCH  25  28
ATOM     28  C   UNL     1      -4.712  12.689  24.552  0.00  0.00    +0.000 C 
BRANCH  28  29
ATOM     29  C   UNL     1      -6.122  12.732  23.972  0.00  0.00    +0.000 C 
ATOM     30  O   UNL     1      -6.532  12.098  23.023  0.00  0.00    +0.000 OA
BRANCH  29  31
ATOM     31  O   UNL     1      -6.922  13.585  24.651  0.00  0.00    +0.000 OA
ATOM     32  H   UNL     1      -7.588  13.153  25.214  0.00  0.00    +0.000 HD
ENDBRANCH  29  31
ENDBRANCH  28  29
ENDBRANCH  25  28
ENDBRANCH  24  25
ENDBRANCH   4  23
TORSDOF 6
ENDMDL
MODEL 9
REMARK VINA RESULT:      -7.7      1.876      2.707
REMARK  Name = 
REMARK  9 active torsions:
REMARK  status: ('A' for Active; 'I' for Inactive)
REMARK    1  A    between atoms: C_1  and  C_2
REMARK    2  A    between atoms: C_4  and  C_5
REMARK    3  A    between atoms: C_6  and  C_7
REMARK    4  A    between atoms: C_7  and  C_8
REMARK    5  A    between atoms: C_7  and  C_9
REMARK    6  A    between atoms: C_7  and  C_10
REMARK    7  A    between atoms: C_10  and  C_11
REMARK    8  A    between atoms: C_11  and  O_13
REMARK    9  A    between atoms: C_16  and  N_17
REMARK                            x       y       z     vdW  Elec       q    Type
REMARK                         _______ _______ _______ _____ _____    ______ ____
ROOT
ATOM      1  C   UNL     1       0.571   8.773  21.882  0.00  0.00    +0.000 C 
ATOM      2  C   UNL     1       1.033   9.116  20.496  0.00  0.00    +0.000 A 
ATOM      3  C   UNL     1       1.887   8.053  19.840  0.00  0.00    +0.000 A 
ATOM      4  C   UNL     1       2.356   8.048  18.511  0.00  0.00    +0.000 A 
ATOM      5  C   UNL     1       1.872   9.182  17.829  0.00  0.00    +0.000 A 
ATOM      6  C   UNL     1       1.010  10.240  18.460  0.00  0.00    +0.000 A 
ATOM      7  C   UNL     1       0.593  10.287  19.833  0.00  0.00    +0.000 A 
ENDROOT
BRANCH   7   8
ATOM      8  N   UNL     1      -0.511  11.292  20.312  0.00  0.00    +0.000 N 
ATOM      9  C   UNL     1       0.028  12.166  21.418  0.00  0.00    +0.000 C 
ATOM     10  C   UNL     1      -1.054  13.127  21.639  0.00  0.00    +0.000 C 
ATOM     11  O   UNL     1      -1.530  14.412  21.603  0.00  0.00    +0.000 OA
ATOM     12  C   UNL     1      -2.750  14.223  20.917  0.00  0.00    +0.000 A 
ATOM     13  N   UNL     1      -3.520  15.313  21.170  0.00  0.00    +0.000 NA
ATOM     14  C   UNL     1      -4.786  15.267  20.743  0.00  0.00    +0.000 A 
ATOM     15  N   UNL     1      -5.289  14.184  20.168  0.00  0.00    +0.000 NA
ATOM     16  C   UNL     1      -4.497  13.079  19.940  0.00  0.00    +0.000 A 
ATOM     17  N   UNL     1      -5.362  12.046  19.593  0.00  0.00    +0.000 N 
ATOM     18  C   UNL     1      -3.097  12.985  20.211  0.00  0.00    +0.000 A 
ATOM     19  C   UNL     1      -2.016  11.615  19.723  0.00  0.00    +0.000 C 
ATOM     20  O   UNL     1      -2.450  10.839  18.879  0.00  0.00    +0.000 OA
ATOM     21  H   UNL     1      -6.267  12.531  19.472  0.00  0.00    +0.000 HD
ATOM     22  H   UNL     1      -5.495  11.419  20.383  0.00  0.00    +0.000 HD
ENDBRANCH   7   8
BRANCH   4  23
ATOM     23  C   UNL     1       3.281   6.912  17.951  0.00  0.00    +0.000 C 
ATOM     24  C   UNL     1       4.085   6.052  17.391  0.00  0.00    +0.000 C 
BRANCH  24  25
ATOM     25  C   UNL     1       5.022   5.048  16.738  0.00  0.00    +0.000 C 
ATOM     26  C   UNL     1       6.263   4.966  17.653  0.00  0.00    +0.000 C 
ATOM     27  C   UNL     1       4.278   3.698  16.740  0.00  0.00    +0.000 C 
BRANCH  25  28
ATOM     28  C   UNL     1       5.400   5.489  15.311  0.00  0.00    +0.000 C 
BRANCH  28  29
ATOM     29  C   UNL     1       6.677   4.861  14.763  0.00  0.00    +0.000 C 
ATOM     30  O   UNL     1       7.773   5.375  14.717  0.00  0.00    +0.000 OA
BRANCH  29  31
ATOM     31  O   UNL     1       6.466   3.603  14.309  0.00  0.00    +0.000 OA
ATOM     32  H   UNL     1       5.739   3.522  13.668  0.00  0.00    +0.000 HD
ENDBRANCH  29  31
ENDBRANCH  28  29
ENDBRANCH  25  28
ENDBRANCH  24  25
ENDBRANCH   4  23
TORSDOF 6
ENDMDL
