MODEL 1
REMARK VINA RESULT:      -6.0      0.000      0.000
REMARK  Name = 
REMARK  3 active torsions:
REMARK  status: ('A' for Active; 'I' for Inactive)
REMARK    1  A    between atoms: C_1  and  C_2
REMARK    2  A    between atoms: P_4  and  C_6
REMARK    3  A    between atoms: C_13  and  C_14
REMARK                            x       y       z     vdW  Elec       q    Type
REMARK                         _______ _______ _______ _____ _____    ______ ____
ROOT
ATOM      1  C   UNL     1       4.368   2.187  20.056  0.00  0.00    +0.000 C 
ATOM      2  C   UNL     1       4.628   3.493  19.348  0.00  0.00    +0.000 C 
ATOM      3  C   UNL     1       5.885   3.980  19.401  0.00  0.00    +0.000 C 
ATOM      4  P   UNL     1       6.384   5.499  18.690  0.00  0.00    +0.000 P 
ATOM      5  O   UNL     1       7.683   6.136  19.092  0.00  0.00    +0.000 OA
ATOM      6  C   UNL     1       4.867   6.368  18.922  0.00  0.00    +0.000 C 
ATOM      7  C   UNL     1       3.651   5.801  18.754  0.00  0.00    +0.000 C 
ATOM      8  C   UNL     1       2.524   6.767  18.492  0.00  0.00    +0.000 C 
ATOM      9  C   UNL     1       3.535   4.292  18.667  0.00  0.00    +0.000 C 
ATOM     10  C   UNL     1       2.503   3.652  18.037  0.00  0.00    +0.000 C 
ATOM     11 CL   UNL     1       1.100   4.403  17.332  0.00  0.00    +0.000 Cl
ATOM     12 CL   UNL     1       2.465   1.927  17.721  0.00  0.00    +0.000 Cl
ENDROOT
BRANCH   4  13
ATOM     13  C   UNL     1       6.225   5.218  16.912  0.00  0.00    +0.000 A 
ATOM     14  C   UNL     1       5.585   6.193  16.123  0.00  0.00    +0.000 A 
ATOM     15  C   UNL     1       5.266   5.937  14.790  0.00  0.00    +0.000 A 
ATOM     16  C   UNL     1       5.612   4.716  14.218  0.00  0.00    +0.000 A 
ATOM     17  C   UNL     1       6.296   3.762  14.967  0.00  0.00    +0.000 A 
ATOM     18  C   UNL     1       6.610   4.014  16.302  0.00  0.00    +0.000 A 
ENDBRANCH   4  13
TORSDOF 1
ENDMDL
MODEL 2
REMARK VINA RESULT:      -5.8      2.629      3.600
REMARK  Name = 
REMARK  3 active torsions:
REMARK  status: ('A' for Active; 'I' for Inactive)
REMARK    1  A    between atoms: C_1  and  C_2
REMARK    2  A    between atoms: P_4  and  C_6
REMARK    3  A    between atoms: C_13  and  C_14
REMARK                            x       y       z     vdW  Elec       q    Type
REMARK                         _______ _______ _______ _____ _____    ______ ____
ROOT
ATOM      1  C   UNL     1       2.354   3.747  21.810  0.00  0.00    +0.000 C 
ATOM      2  C   UNL     1       2.657   4.256  20.422  0.00  0.00    +0.000 C 
ATOM      3  C   UNL     1       2.564   5.586  20.223  0.00  0.00    +0.000 C 
ATOM      4  P   UNL     1       2.825   6.372  18.682  0.00  0.00    +0.000 P 
ATOM      5  O   UNL     1       2.359   7.783  18.458  0.00  0.00    +0.000 OA
ATOM      6  C   UNL     1       2.220   5.071  17.657  0.00  0.00    +0.000 C 
ATOM      7  C   UNL     1       2.449   3.761  17.903  0.00  0.00    +0.000 C 
ATOM      8  C   UNL     1       2.317   2.852  16.709  0.00  0.00    +0.000 C 
ATOM      9  C   UNL     1       2.975   3.336  19.261  0.00  0.00    +0.000 C 
ATOM     10  C   UNL     1       3.681   2.183  19.465  0.00  0.00    +0.000 C 
ATOM     11 CL   UNL     1       4.011   0.950  18.282  0.00  0.00    +0.000 Cl
ATOM     12 CL   UNL     1       4.495   1.786  20.967  0.00  0.00    +0.000 Cl
ENDROOT
BRANCH   4  13
ATOM     13  C   UNL     1       4.587   6.124  18.362  0.00  0.00    +0.000 A 
ATOM     14  C   UNL     1       5.384   5.541  19.365  0.00  0.00    +0.000 A 
ATOM     15  C   UNL     1       6.774   5.508  19.243  0.00  0.00    +0.000 A 
ATOM     16  C   UNL     1       7.381   6.026  18.103  0.00  0.00    +0.000 A 
ATOM     17  C   UNL     1       6.604   6.554  17.076  0.00  0.00    +0.000 A 
ATOM     18  C   UNL     1       5.215   6.593  17.199  0.00  0.00    +0.000 A 
ENDBRANCH   4  13
TORSDOF 1
ENDMDL
MODEL 3
REMARK VINA RESULT:      -5.8      2.512      3.459
REMARK  Name = 
REMARK  3 active torsions:
REMARK  status: ('A' for Active; 'I' for Inactive)
REMARK    1  A    between atoms: C_1  and  C_2
REMARK    2  A    between atoms: P_4  and  C_6
REMARK    3  A    between atoms: C_13  and  C_14
REMARK                            x       y       z     vdW  Elec       q    Type
REMARK                         _______ _______ _______ _____ _____    ______ ____
ROOT
ATOM      1  C   UNL     1       2.335   3.683  21.840  0.00  0.00    +0.000 C 
ATOM      2  C   UNL     1       2.609   4.226  20.460  0.00  0.00    +0.000 C 
ATOM      3  C   UNL     1       2.481   5.558  20.288  0.00  0.00    +0.000 C 
ATOM      4  P   UNL     1       2.706   6.380  18.760  0.00  0.00    +0.000 P 
ATOM      5  O   UNL     1       2.202   7.783  18.570  0.00  0.00    +0.000 OA
ATOM      6  C   UNL     1       2.121   5.085  17.717  0.00  0.00    +0.000 C 
ATOM      7  C   UNL     1       2.385   3.776  17.934  0.00  0.00    +0.000 C 
ATOM      8  C   UNL     1       2.261   2.887  16.723  0.00  0.00    +0.000 C 
ATOM      9  C   UNL     1       2.936   3.338  19.277  0.00  0.00    +0.000 C 
ATOM     10  C   UNL     1       3.673   2.198  19.451  0.00  0.00    +0.000 C 
ATOM     11 CL   UNL     1       4.019   0.998  18.241  0.00  0.00    +0.000 Cl
ATOM     12 CL   UNL     1       4.513   1.793  20.936  0.00  0.00    +0.000 Cl
ENDROOT
BRANCH   4  13
ATOM     13  C   UNL     1       4.469   6.181  18.417  0.00  0.00    +0.000 A 
ATOM     14  C   UNL     1       4.947   6.474  17.125  0.00  0.00    +0.000 A 
ATOM     15  C   UNL     1       6.254   6.152  16.758  0.00  0.00    +0.000 A 
ATOM     16  C   UNL     1       7.109   5.566  17.686  0.00  0.00    +0.000 A 
ATOM     17  C   UNL     1       6.671   5.322  18.985  0.00  0.00    +0.000 A 
ATOM     18  C   UNL     1       5.362   5.638  19.352  0.00  0.00    +0.000 A 
ENDBRANCH   4  13
TORSDOF 1
ENDMDL
MODEL 4
REMARK VINA RESULT:      -5.7      0.250      1.162
REMARK  Name = 
REMARK  3 active torsions:
REMARK  status: ('A' for Active; 'I' for Inactive)
REMARK    1  A    between atoms: C_1  and  C_2
REMARK    2  A    between atoms: P_4  and  C_6
REMARK    3  A    between atoms: C_13  and  C_14
REMARK                            x       y       z     vdW  Elec       q    Type
REMARK                         _______ _______ _______ _____ _____    ______ ____
ROOT
ATOM      1  C   UNL     1       4.362   2.260  20.088  0.00  0.00    +0.000 C 
ATOM      2  C   UNL     1       4.559   3.539  19.312  0.00  0.00    +0.000 C 
ATOM      3  C   UNL     1       5.806   4.051  19.282  0.00  0.00    +0.000 C 
ATOM      4  P   UNL     1       6.238   5.546  18.482  0.00  0.00    +0.000 P 
ATOM      5  O   UNL     1       7.542   6.225  18.792  0.00  0.00    +0.000 OA
ATOM      6  C   UNL     1       4.716   6.396  18.751  0.00  0.00    +0.000 C 
ATOM      7  C   UNL     1       3.505   5.799  18.669  0.00  0.00    +0.000 C 
ATOM      8  C   UNL     1       2.347   6.731  18.421  0.00  0.00    +0.000 C 
ATOM      9  C   UNL     1       3.418   4.285  18.653  0.00  0.00    +0.000 C 
ATOM     10  C   UNL     1       2.370   3.599  18.102  0.00  0.00    +0.000 C 
ATOM     11 CL   UNL     1       0.919   4.291  17.436  0.00  0.00    +0.000 Cl
ATOM     12 CL   UNL     1       2.354   1.862  17.863  0.00  0.00    +0.000 Cl
ENDROOT
BRANCH   4  13
ATOM     13  C   UNL     1       5.999   5.184  16.728  0.00  0.00    +0.000 A 
ATOM     14  C   UNL     1       6.536   3.994  16.200  0.00  0.00    +0.000 A 
ATOM     15  C   UNL     1       6.547   3.766  14.824  0.00  0.00    +0.000 A 
ATOM     16  C   UNL     1       5.992   4.706  13.961  0.00  0.00    +0.000 A 
ATOM     17  C   UNL     1       5.406   5.862  14.470  0.00  0.00    +0.000 A 
ATOM     18  C   UNL     1       5.399   6.095  15.846  0.00  0.00    +0.000 A 
ENDBRANCH   4  13
TORSDOF 1
ENDMDL
MODEL 5
REMARK VINA RESULT:      -5.5     10.140     11.428
REMARK  Name = 
REMARK  3 active torsions:
REMARK  status: ('A' for Active; 'I' for Inactive)
REMARK    1  A    between atoms: C_1  and  C_2
REMARK    2  A    between atoms: P_4  and  C_6
REMARK    3  A    between atoms: C_13  and  C_14
REMARK                            x       y       z     vdW  Elec       q    Type
REMARK                         _______ _______ _______ _____ _____    ______ ____
ROOT
ATOM      1  C   UNL     1      12.201  11.718  19.555  0.00  0.00    +0.000 C 
ATOM      2  C   UNL     1      11.504  13.056  19.553  0.00  0.00    +0.000 C 
ATOM      3  C   UNL     1      11.773  13.887  18.525  0.00  0.00    +0.000 C 
ATOM      4  P   UNL     1      11.109  15.497  18.359  0.00  0.00    +0.000 P 
ATOM      5  O   UNL     1      11.723  16.478  17.402  0.00  0.00    +0.000 OA
ATOM      6  C   UNL     1      11.016  15.882  20.078  0.00  0.00    +0.000 C 
ATOM      7  C   UNL     1      10.645  14.988  21.022  0.00  0.00    +0.000 C 
ATOM      8  C   UNL     1      10.136  15.588  22.308  0.00  0.00    +0.000 C 
ATOM      9  C   UNL     1      10.597  13.512  20.678  0.00  0.00    +0.000 C 
ATOM     10  C   UNL     1       9.810  12.611  21.340  0.00  0.00    +0.000 C 
ATOM     11 CL   UNL     1       8.824  12.932  22.737  0.00  0.00    +0.000 Cl
ATOM     12 CL   UNL     1       9.562  10.956  20.815  0.00  0.00    +0.000 Cl
ENDROOT
BRANCH   4  13
ATOM     13  C   UNL     1       9.345  15.212  18.086  0.00  0.00    +0.000 A 
ATOM     14  C   UNL     1       8.432  16.229  18.422  0.00  0.00    +0.000 A 
ATOM     15  C   UNL     1       7.058  15.986  18.414  0.00  0.00    +0.000 A 
ATOM     16  C   UNL     1       6.579  14.736  18.036  0.00  0.00    +0.000 A 
ATOM     17  C   UNL     1       7.465  13.736  17.645  0.00  0.00    +0.000 A 
ATOM     18  C   UNL     1       8.839  13.975  17.659  0.00  0.00    +0.000 A 
ENDBRANCH   4  13
TORSDOF 1
ENDMDL
MODEL 6
REMARK VINA RESULT:      -5.3      2.495      4.137
REMARK  Name = 
REMARK  3 active torsions:
REMARK  status: ('A' for Active; 'I' for Inactive)
REMARK    1  A    between atoms: C_1  and  C_2
REMARK    2  A    between atoms: P_4  and  C_6
REMARK    3  A    between atoms: C_13  and  C_14
REMARK                            x       y       z     vdW  Elec       q    Type
REMARK                         _______ _______ _______ _____ _____    ______ ____
ROOT
ATOM      1  C   UNL     1       1.968   8.284  17.801  0.00  0.00    +0.000 C 
ATOM      2  C   UNL     1       2.968   7.169  17.624  0.00  0.00    +0.000 C 
ATOM      3  C   UNL     1       3.876   7.310  16.636  0.00  0.00    +0.000 C 
ATOM      4  P   UNL     1       5.088   6.115  16.235  0.00  0.00    +0.000 P 
ATOM      5  O   UNL     1       5.812   6.178  14.920  0.00  0.00    +0.000 OA
ATOM      6  C   UNL     1       4.145   4.685  16.653  0.00  0.00    +0.000 C 
ATOM      7  C   UNL     1       3.325   4.621  17.727  0.00  0.00    +0.000 C 
ATOM      8  C   UNL     1       3.014   3.229  18.215  0.00  0.00    +0.000 C 
ATOM      9  C   UNL     1       2.936   5.898  18.447  0.00  0.00    +0.000 C 
ATOM     10  C   UNL     1       2.549   5.933  19.759  0.00  0.00    +0.000 C 
ATOM     11 CL   UNL     1       2.318   4.561  20.804  0.00  0.00    +0.000 Cl
ATOM     12 CL   UNL     1       2.320   7.411  20.674  0.00  0.00    +0.000 Cl
ENDROOT
BRANCH   4  13
ATOM     13  C   UNL     1       6.181   6.105  17.674  0.00  0.00    +0.000 A 
ATOM     14  C   UNL     1       7.218   7.055  17.747  0.00  0.00    +0.000 A 
ATOM     15  C   UNL     1       8.201   6.965  18.732  0.00  0.00    +0.000 A 
ATOM     16  C   UNL     1       8.141   5.946  19.678  0.00  0.00    +0.000 A 
ATOM     17  C   UNL     1       7.091   5.032  19.656  0.00  0.00    +0.000 A 
ATOM     18  C   UNL     1       6.111   5.117  18.667  0.00  0.00    +0.000 A 
ENDBRANCH   4  13
TORSDOF 1
ENDMDL
MODEL 7
REMARK VINA RESULT:      -5.3      9.916     11.394
REMARK  Name = 
REMARK  3 active torsions:
REMARK  status: ('A' for Active; 'I' for Inactive)
REMARK    1  A    between atoms: C_1  and  C_2
REMARK    2  A    between atoms: P_4  and  C_6
REMARK    3  A    between atoms: C_13  and  C_14
REMARK                            x       y       z     vdW  Elec       q    Type
REMARK                         _______ _______ _______ _____ _____    ______ ____
ROOT
ATOM      1  C   UNL     1      11.237  11.869  17.917  0.00  0.00    +0.000 C 
ATOM      2  C   UNL     1      10.659  13.179  18.391  0.00  0.00    +0.000 C 
ATOM      3  C   UNL     1      10.579  14.177  17.486  0.00  0.00    +0.000 C 
ATOM      4  P   UNL     1       9.988  15.784  17.843  0.00  0.00    +0.000 P 
ATOM      5  O   UNL     1      10.262  16.922  16.901  0.00  0.00    +0.000 OA
ATOM      6  C   UNL     1      10.549  15.868  19.513  0.00  0.00    +0.000 C 
ATOM      7  C   UNL     1      10.501  14.822  20.368  0.00  0.00    +0.000 C 
ATOM      8  C   UNL     1      10.530  15.187  21.830  0.00  0.00    +0.000 C 
ATOM      9  C   UNL     1      10.252  13.426  19.829  0.00  0.00    +0.000 C 
ATOM     10  C   UNL     1       9.714  12.417  20.578  0.00  0.00    +0.000 C 
ATOM     11 CL   UNL     1       9.325  12.483  22.273  0.00  0.00    +0.000 Cl
ATOM     12 CL   UNL     1       9.203  10.873  19.919  0.00  0.00    +0.000 Cl
ENDROOT
BRANCH   4  13
ATOM     13  C   UNL     1       8.233  15.532  18.197  0.00  0.00    +0.000 A 
ATOM     14  C   UNL     1       7.580  14.419  17.635  0.00  0.00    +0.000 A 
ATOM     15  C   UNL     1       6.193  14.289  17.717  0.00  0.00    +0.000 A 
ATOM     16  C   UNL     1       5.447  15.251  18.390  0.00  0.00    +0.000 A 
ATOM     17  C   UNL     1       6.082  16.329  19.000  0.00  0.00    +0.000 A 
ATOM     18  C   UNL     1       7.468  16.463  18.914  0.00  0.00    +0.000 A 
ENDBRANCH   4  13
TORSDOF 1
ENDMDL
MODEL 8
REMARK VINA RESULT:      -5.2      9.885     11.174
REMARK  Name = 
REMARK  3 active torsions:
REMARK  status: ('A' for Active; 'I' for Inactive)
REMARK    1  A    between atoms: C_1  and  C_2
REMARK    2  A    between atoms: P_4  and  C_6
REMARK    3  A    between atoms: C_13  and  C_14
REMARK                            x       y       z     vdW  Elec       q    Type
REMARK                         _______ _______ _______ _____ _____    ______ ____
ROOT
ATOM      1  C   UNL     1      11.899  11.947  19.726  0.00  0.00    +0.000 C 
ATOM      2  C   UNL     1      11.008  13.131  20.008  0.00  0.00    +0.000 C 
ATOM      3  C   UNL     1      11.196  14.234  19.254  0.00  0.00    +0.000 C 
ATOM      4  P   UNL     1      10.304  15.726  19.451  0.00  0.00    +0.000 P 
ATOM      5  O   UNL     1      10.807  17.000  18.833  0.00  0.00    +0.000 OA
ATOM      6  C   UNL     1      10.074  15.624  21.197  0.00  0.00    +0.000 C 
ATOM      7  C   UNL     1       9.799  14.470  21.846  0.00  0.00    +0.000 C 
ATOM      8  C   UNL     1       9.146  14.633  23.195  0.00  0.00    +0.000 C 
ATOM      9  C   UNL     1       9.992  13.146  21.132  0.00  0.00    +0.000 C 
ATOM     10  C   UNL     1       9.319  12.004  21.471  0.00  0.00    +0.000 C 
ATOM     11 CL   UNL     1       8.232  11.807  22.815  0.00  0.00    +0.000 Cl
ATOM     12 CL   UNL     1       9.349  10.530  20.521  0.00  0.00    +0.000 Cl
ENDROOT
BRANCH   4  13
ATOM     13  C   UNL     1       8.619  15.291  18.966  0.00  0.00    +0.000 A 
ATOM     14  C   UNL     1       8.421  14.199  18.099  0.00  0.00    +0.000 A 
ATOM     15  C   UNL     1       7.167  13.946  17.544  0.00  0.00    +0.000 A 
ATOM     16  C   UNL     1       6.087  14.760  17.874  0.00  0.00    +0.000 A 
ATOM     17  C   UNL     1       6.252  15.810  18.773  0.00  0.00    +0.000 A 
ATOM     18  C   UNL     1       7.507  16.067  19.325  0.00  0.00    +0.000 A 
ENDBRANCH   4  13
TORSDOF 1
ENDMDL
MODEL 9
REMARK VINA RESULT:      -5.2      9.935     11.318
REMARK  Name = 
REMARK  3 active torsions:
REMARK  status: ('A' for Active; 'I' for Inactive)
REMARK    1  A    between atoms: C_1  and  C_2
REMARK    2  A    between atoms: P_4  and  C_6
REMARK    3  A    between atoms: C_13  and  C_14
REMARK                            x       y       z     vdW  Elec       q    Type
REMARK                         _______ _______ _______ _____ _____    ______ ____
ROOT
ATOM      1  C   UNL     1      10.665  16.724  21.710  0.00  0.00    +0.000 C 
ATOM      2  C   UNL     1      10.112  15.957  20.536  0.00  0.00    +0.000 C 
ATOM      3  C   UNL     1      10.905  15.840  19.451  0.00  0.00    +0.000 C 
ATOM      4  P   UNL     1      10.437  15.035  17.970  0.00  0.00    +0.000 P 
ATOM      5  O   UNL     1      11.217  15.256  16.705  0.00  0.00    +0.000 OA
ATOM      6  C   UNL     1       8.720  15.432  18.028  0.00  0.00    +0.000 C 
ATOM      7  C   UNL     1       7.993  15.432  19.168  0.00  0.00    +0.000 C 
ATOM      8  C   UNL     1       6.505  15.288  18.980  0.00  0.00    +0.000 C 
ATOM      9  C   UNL     1       8.704  15.398  20.507  0.00  0.00    +0.000 C 
ATOM     10  C   UNL     1       8.128  14.917  21.652  0.00  0.00    +0.000 C 
ATOM     11 CL   UNL     1       6.485  14.374  21.831  0.00  0.00    +0.000 Cl
ATOM     12 CL   UNL     1       9.000  14.652  23.150  0.00  0.00    +0.000 Cl
ENDROOT
BRANCH   4  13
ATOM     13  C   UNL     1      10.293  13.298  18.449  0.00  0.00    +0.000 A 
ATOM     14  C   UNL     1       9.376  12.478  17.765  0.00  0.00    +0.000 A 
ATOM     15  C   UNL     1       9.089  11.192  18.222  0.00  0.00    +0.000 A 
ATOM     16  C   UNL     1       9.740  10.696  19.348  0.00  0.00    +0.000 A 
ATOM     17  C   UNL     1      10.693  11.472  20.003  0.00  0.00    +0.000 A 
ATOM     18  C   UNL     1      10.976  12.761  19.550  0.00  0.00    +0.000 A 
ENDBRANCH   4  13
TORSDOF 1
ENDMDL
