MODEL 1
REMARK VINA RESULT:      -8.9      0.000      0.000
REMARK  Name = 
REMARK  7 active torsions:
REMARK  status: ('A' for Active; 'I' for Inactive)
REMARK    1  A    between atoms: C_1  and  C_2
REMARK    2  A    between atoms: C_2  and  C_4
REMARK    3  A    between atoms: C_7  and  N_8
REMARK    4  A    between atoms: N_8  and  C_9
REMARK    5  A    between atoms: C_18  and  N_19
REMARK    6  A    between atoms: C_21  and  C_22
REMARK    7  A    between atoms: C_24  and  C_25
REMARK                            x       y       z     vdW  Elec       q    Type
REMARK                         _______ _______ _______ _____ _____    ______ ____
ROOT
ATOM      1  C   UNL     1       3.317   6.077  18.027  0.00  0.00    +0.000 A 
ATOM      2  N   UNL     1       2.592   4.969  17.781  0.00  0.00    +0.000 NA
ATOM      3  C   UNL     1       3.117   3.815  18.236  0.00  0.00    +0.000 A 
ATOM      4  C   UNL     1       2.794   2.583  17.681  0.00  0.00    +0.000 A 
ATOM      5  C   UNL     1       3.258   1.405  18.264  0.00  0.00    +0.000 A 
ATOM      6  C   UNL     1       3.894   1.466  19.497  0.00  0.00    +0.000 A 
ATOM      7  C   UNL     1       4.313   2.704  19.986  0.00  0.00    +0.000 A 
ATOM      8  C   UNL     1       4.110   3.844  19.224  0.00  0.00    +0.000 A 
ATOM      9  N   UNL     1       4.911   4.929  19.315  0.00  0.00    +0.000 NA
ATOM     10  C   UNL     1       4.647   5.895  18.394  0.00  0.00    +0.000 A 
ENDROOT
BRANCH  10  11
ATOM     11  N   UNL     1       5.531   5.964  17.232  0.00  0.00    +0.000 N 
ATOM     12  N   UNL     1       5.072   5.522  16.015  0.00  0.00    +0.000 NA
ATOM     13  C   UNL     1       6.166   5.166  15.337  0.00  0.00    +0.000 A 
ATOM     14  C   UNL     1       6.069   4.324  14.119  0.00  0.00    +0.000 C 
ATOM     15  C   UNL     1       7.324   5.669  15.945  0.00  0.00    +0.000 A 
ATOM     16  C   UNL     1       6.917   6.167  17.172  0.00  0.00    +0.000 A 
ATOM     17  C   UNL     1       7.783   6.697  18.253  0.00  0.00    +0.000 C 
ENDBRANCH  10  11
BRANCH   1  18
ATOM     18  N   UNL     1       2.765   7.346  17.864  0.00  0.00    +0.000 N 
ATOM     19  H   UNL     1       2.564   7.547  16.886  0.00  0.00    +0.000 HD
BRANCH  18  23
ATOM     20  C   UNL     1       0.539   9.553  20.717  0.00  0.00    +0.000 A 
ATOM     21  C   UNL     1       0.708  10.050  19.423  0.00  0.00    +0.000 A 
ATOM     22  C   UNL     1       1.486   9.342  18.497  0.00  0.00    +0.000 A 
ATOM     23  C   UNL     1       2.105   8.123  18.828  0.00  0.00    +0.000 A 
ATOM     24  C   UNL     1       1.940   7.641  20.139  0.00  0.00    +0.000 A 
ATOM     25  C   UNL     1       1.178   8.352  21.073  0.00  0.00    +0.000 A 
BRANCH  20  27
ATOM     26  C   UNL     1      -0.346   9.712  23.142  0.00  0.00    +0.000 C 
ATOM     27  C   UNL     1      -0.327  10.231  21.727  0.00  0.00    +0.000 C 
ATOM     28  O   UNL     1      -1.004  11.204  21.398  0.00  0.00    +0.000 OA
ENDBRANCH  20  27
ENDBRANCH  18  23
ENDBRANCH   1  18
TORSDOF 4
ENDMDL
MODEL 2
REMARK VINA RESULT:      -8.7      0.946      1.418
REMARK  Name = 
REMARK  7 active torsions:
REMARK  status: ('A' for Active; 'I' for Inactive)
REMARK    1  A    between atoms: C_1  and  C_2
REMARK    2  A    between atoms: C_2  and  C_4
REMARK    3  A    between atoms: C_7  and  N_8
REMARK    4  A    between atoms: N_8  and  C_9
REMARK    5  A    between atoms: C_18  and  N_19
REMARK    6  A    between atoms: C_21  and  C_22
REMARK    7  A    between atoms: C_24  and  C_25
REMARK                            x       y       z     vdW  Elec       q    Type
REMARK                         _______ _______ _______ _____ _____    ______ ____
ROOT
ATOM      1  C   UNL     1       3.237   6.392  18.064  0.00  0.00    +0.000 A 
ATOM      2  N   UNL     1       2.317   5.451  17.776  0.00  0.00    +0.000 NA
ATOM      3  C   UNL     1       2.555   4.227  18.284  0.00  0.00    +0.000 A 
ATOM      4  C   UNL     1       2.023   3.073  17.720  0.00  0.00    +0.000 A 
ATOM      5  C   UNL     1       2.187   1.842  18.352  0.00  0.00    +0.000 A 
ATOM      6  C   UNL     1       2.730   1.804  19.630  0.00  0.00    +0.000 A 
ATOM      7  C   UNL     1       3.360   2.942  20.136  0.00  0.00    +0.000 A 
ATOM      8  C   UNL     1       3.456   4.077  19.347  0.00  0.00    +0.000 A 
ATOM      9  N   UNL     1       4.457   4.975  19.487  0.00  0.00    +0.000 NA
ATOM     10  C   UNL     1       4.469   5.949  18.536  0.00  0.00    +0.000 A 
ENDROOT
BRANCH  10  11
ATOM     11  N   UNL     1       5.431   5.801  17.446  0.00  0.00    +0.000 N 
ATOM     12  N   UNL     1       4.969   5.568  16.173  0.00  0.00    +0.000 NA
ATOM     13  C   UNL     1       5.965   4.932  15.551  0.00  0.00    +0.000 A 
ATOM     14  C   UNL     1       5.730   4.210  14.277  0.00  0.00    +0.000 C 
ATOM     15  C   UNL     1       7.163   5.040  16.272  0.00  0.00    +0.000 A 
ATOM     16  C   UNL     1       6.816   5.584  17.497  0.00  0.00    +0.000 A 
ATOM     17  C   UNL     1       7.702   5.785  18.669  0.00  0.00    +0.000 C 
ENDBRANCH  10  11
BRANCH   1  18
ATOM     18  N   UNL     1       2.975   7.742  17.844  0.00  0.00    +0.000 N 
ATOM     19  H   UNL     1       3.217   8.023  16.895  0.00  0.00    +0.000 HD
BRANCH  18  23
ATOM     20  C   UNL     1       0.531  10.380  20.089  0.00  0.00    +0.000 A 
ATOM     21  C   UNL     1       0.908   9.147  20.624  0.00  0.00    +0.000 A 
ATOM     22  C   UNL     1       1.674   8.256  19.861  0.00  0.00    +0.000 A 
ATOM     23  C   UNL     1       2.092   8.570  18.554  0.00  0.00    +0.000 A 
ATOM     24  C   UNL     1       1.693   9.809  18.021  0.00  0.00    +0.000 A 
ATOM     25  C   UNL     1       0.914  10.695  18.773  0.00  0.00    +0.000 A 
BRANCH  20  27
ATOM     26  C   UNL     1      -1.518  11.941  20.313  0.00  0.00    +0.000 C 
ATOM     27  C   UNL     1      -0.232  11.394  20.875  0.00  0.00    +0.000 C 
ATOM     28  O   UNL     1       0.190  11.763  21.971  0.00  0.00    +0.000 OA
ENDBRANCH  20  27
ENDBRANCH  18  23
ENDBRANCH   1  18
TORSDOF 4
ENDMDL
MODEL 3
REMARK VINA RESULT:      -8.4      1.663      4.331
REMARK  Name = 
REMARK  7 active torsions:
REMARK  status: ('A' for Active; 'I' for Inactive)
REMARK    1  A    between atoms: C_1  and  C_2
REMARK    2  A    between atoms: C_2  and  C_4
REMARK    3  A    between atoms: C_7  and  N_8
REMARK    4  A    between atoms: N_8  and  C_9
REMARK    5  A    between atoms: C_18  and  N_19
REMARK    6  A    between atoms: C_21  and  C_22
REMARK    7  A    between atoms: C_24  and  C_25
REMARK                            x       y       z     vdW  Elec       q    Type
REMARK                         _______ _______ _______ _____ _____    ______ ____
ROOT
ATOM      1  C   UNL     1       3.379   6.062  19.255  0.00  0.00    +0.000 A 
ATOM      2  N   UNL     1       4.718   6.015  19.392  0.00  0.00    +0.000 NA
ATOM      3  C   UNL     1       5.393   5.477  18.358  0.00  0.00    +0.000 A 
ATOM      4  C   UNL     1       6.655   4.914  18.507  0.00  0.00    +0.000 A 
ATOM      5  C   UNL     1       7.371   4.487  17.390  0.00  0.00    +0.000 A 
ATOM      6  C   UNL     1       6.890   4.789  16.123  0.00  0.00    +0.000 A 
ATOM      7  C   UNL     1       5.579   5.247  15.982  0.00  0.00    +0.000 A 
ATOM      8  C   UNL     1       4.775   5.368  17.105  0.00  0.00    +0.000 A 
ATOM      9  N   UNL     1       3.429   5.260  17.047  0.00  0.00    +0.000 NA
ATOM     10  C   UNL     1       2.816   5.265  18.262  0.00  0.00    +0.000 A 
ENDROOT
BRANCH  10  11
ATOM     11  N   UNL     1       2.393   3.973  18.798  0.00  0.00    +0.000 N 
ATOM     12  N   UNL     1       1.578   3.942  19.904  0.00  0.00    +0.000 NA
ATOM     13  C   UNL     1       1.821   2.764  20.484  0.00  0.00    +0.000 A 
ATOM     14  C   UNL     1       1.397   2.499  21.880  0.00  0.00    +0.000 C 
ATOM     15  C   UNL     1       2.513   1.906  19.617  0.00  0.00    +0.000 A 
ATOM     16  C   UNL     1       2.894   2.689  18.540  0.00  0.00    +0.000 A 
ATOM     17  C   UNL     1       3.759   2.287  17.404  0.00  0.00    +0.000 C 
ENDBRANCH  10  11
BRANCH   1  18
ATOM     18  N   UNL     1       2.598   6.836  20.109  0.00  0.00    +0.000 N 
ATOM     19  H   UNL     1       2.859   6.700  21.085  0.00  0.00    +0.000 HD
BRANCH  18  23
ATOM     20  C   UNL     1       0.195  10.175  19.084  0.00  0.00    +0.000 A 
ATOM     21  C   UNL     1       1.070   9.625  18.144  0.00  0.00    +0.000 A 
ATOM     22  C   UNL     1       1.899   8.554  18.502  0.00  0.00    +0.000 A 
ATOM     23  C   UNL     1       1.873   7.996  19.793  0.00  0.00    +0.000 A 
ATOM     24  C   UNL     1       0.999   8.568  20.735  0.00  0.00    +0.000 A 
ATOM     25  C   UNL     1       0.181   9.649  20.388  0.00  0.00    +0.000 A 
BRANCH  20  27
ATOM     26  C   UNL     1      -1.849  11.015  17.742  0.00  0.00    +0.000 C 
ATOM     27  C   UNL     1      -0.754  11.276  18.745  0.00  0.00    +0.000 C 
ATOM     28  O   UNL     1      -0.640  12.373  19.289  0.00  0.00    +0.000 OA
ENDBRANCH  20  27
ENDBRANCH  18  23
ENDBRANCH   1  18
TORSDOF 4
ENDMDL
MODEL 4
REMARK VINA RESULT:      -8.2      1.717      4.387
REMARK  Name = 
REMARK  7 active torsions:
REMARK  status: ('A' for Active; 'I' for Inactive)
REMARK    1  A    between atoms: C_1  and  C_2
REMARK    2  A    between atoms: C_2  and  C_4
REMARK    3  A    between atoms: C_7  and  N_8
REMARK    4  A    between atoms: N_8  and  C_9
REMARK    5  A    between atoms: C_18  and  N_19
REMARK    6  A    between atoms: C_21  and  C_22
REMARK    7  A    between atoms: C_24  and  C_25
REMARK                            x       y       z     vdW  Elec       q    Type
REMARK                         _______ _______ _______ _____ _____    ______ ____
ROOT
ATOM      1  C   UNL     1       3.366   6.008  19.230  0.00  0.00    +0.000 A 
ATOM      2  N   UNL     1       4.708   5.952  19.325  0.00  0.00    +0.000 NA
ATOM      3  C   UNL     1       5.345   5.397  18.276  0.00  0.00    +0.000 A 
ATOM      4  C   UNL     1       6.607   4.827  18.392  0.00  0.00    +0.000 A 
ATOM      5  C   UNL     1       7.284   4.381  17.258  0.00  0.00    +0.000 A 
ATOM      6  C   UNL     1       6.765   4.671  16.003  0.00  0.00    +0.000 A 
ATOM      7  C   UNL     1       5.454   5.138  15.899  0.00  0.00    +0.000 A 
ATOM      8  C   UNL     1       4.687   5.279  17.045  0.00  0.00    +0.000 A 
ATOM      9  N   UNL     1       3.339   5.180  17.031  0.00  0.00    +0.000 NA
ATOM     10  C   UNL     1       2.766   5.204  18.265  0.00  0.00    +0.000 A 
ENDROOT
BRANCH  10  11
ATOM     11  N   UNL     1       2.350   3.921  18.829  0.00  0.00    +0.000 N 
ATOM     12  N   UNL     1       1.549   3.910  19.946  0.00  0.00    +0.000 NA
ATOM     13  C   UNL     1       1.800   2.743  20.544  0.00  0.00    +0.000 A 
ATOM     14  C   UNL     1       1.393   2.503  21.950  0.00  0.00    +0.000 C 
ATOM     15  C   UNL     1       2.482   1.870  19.684  0.00  0.00    +0.000 A 
ATOM     16  C   UNL     1       2.850   2.633  18.589  0.00  0.00    +0.000 A 
ATOM     17  C   UNL     1       3.701   2.211  17.450  0.00  0.00    +0.000 C 
ENDBRANCH  10  11
BRANCH   1  18
ATOM     18  N   UNL     1       2.618   6.798  20.100  0.00  0.00    +0.000 N 
ATOM     19  H   UNL     1       2.949   6.718  21.060  0.00  0.00    +0.000 HD
BRANCH  18  23
ATOM     20  C   UNL     1       0.468  10.338  19.193  0.00  0.00    +0.000 A 
ATOM     21  C   UNL     1       0.399   9.783  20.473  0.00  0.00    +0.000 A 
ATOM     22  C   UNL     1       1.071   8.586  20.755  0.00  0.00    +0.000 A 
ATOM     23  C   UNL     1       1.833   7.917  19.781  0.00  0.00    +0.000 A 
ATOM     24  C   UNL     1       1.883   8.477  18.492  0.00  0.00    +0.000 A 
ATOM     25  C   UNL     1       1.200   9.663  18.200  0.00  0.00    +0.000 A 
BRANCH  20  27
ATOM     26  C   UNL     1      -1.676  11.710  18.741  0.00  0.00    +0.000 C 
ATOM     27  C   UNL     1      -0.174  11.641  18.850  0.00  0.00    +0.000 C 
ATOM     28  O   UNL     1       0.522  12.639  18.672  0.00  0.00    +0.000 OA
ENDBRANCH  20  27
ENDBRANCH  18  23
ENDBRANCH   1  18
TORSDOF 4
ENDMDL
MODEL 5
REMARK VINA RESULT:      -7.9      1.373      4.000
REMARK  Name = 
REMARK  7 active torsions:
REMARK  status: ('A' for Active; 'I' for Inactive)
REMARK    1  A    between atoms: C_1  and  C_2
REMARK    2  A    between atoms: C_2  and  C_4
REMARK    3  A    between atoms: C_7  and  N_8
REMARK    4  A    between atoms: N_8  and  C_9
REMARK    5  A    between atoms: C_18  and  N_19
REMARK    6  A    between atoms: C_21  and  C_22
REMARK    7  A    between atoms: C_24  and  C_25
REMARK                            x       y       z     vdW  Elec       q    Type
REMARK                         _______ _______ _______ _____ _____    ______ ____
ROOT
ATOM      1  C   UNL     1       3.298   6.029  17.949  0.00  0.00    +0.000 A 
ATOM      2  N   UNL     1       4.462   6.429  18.494  0.00  0.00    +0.000 NA
ATOM      3  C   UNL     1       5.541   5.689  18.174  0.00  0.00    +0.000 A 
ATOM      4  C   UNL     1       6.672   5.638  18.980  0.00  0.00    +0.000 A 
ATOM      5  C   UNL     1       7.814   4.965  18.549  0.00  0.00    +0.000 A 
ATOM      6  C   UNL     1       7.870   4.499  17.242  0.00  0.00    +0.000 A 
ATOM      7  C   UNL     1       6.700   4.452  16.483  0.00  0.00    +0.000 A 
ATOM      8  C   UNL     1       5.500   4.846  17.055  0.00  0.00    +0.000 A 
ATOM      9  N   UNL     1       4.309   4.350  16.653  0.00  0.00    +0.000 NA
ATOM     10  C   UNL     1       3.254   4.743  17.419  0.00  0.00    +0.000 A 
ENDROOT
BRANCH  10  11
ATOM     11  N   UNL     1       2.753   3.783  18.400  0.00  0.00    +0.000 N 
ATOM     12  N   UNL     1       2.064   4.244  19.496  0.00  0.00    +0.000 NA
ATOM     13  C   UNL     1       2.238   3.313  20.436  0.00  0.00    +0.000 A 
ATOM     14  C   UNL     1       1.940   3.601  21.861  0.00  0.00    +0.000 C 
ATOM     15  C   UNL     1       2.735   2.124  19.885  0.00  0.00    +0.000 A 
ATOM     16  C   UNL     1       3.082   2.431  18.580  0.00  0.00    +0.000 A 
ATOM     17  C   UNL     1       3.770   1.550  17.606  0.00  0.00    +0.000 C 
ENDBRANCH  10  11
BRANCH   1  18
ATOM     18  N   UNL     1       2.176   6.855  17.968  0.00  0.00    +0.000 N 
ATOM     19  H   UNL     1       1.427   6.487  17.385  0.00  0.00    +0.000 HD
BRANCH  18  23
ATOM     20  C   UNL     1       0.855   9.621  20.897  0.00  0.00    +0.000 A 
ATOM     21  C   UNL     1       0.946  10.007  19.558  0.00  0.00    +0.000 A 
ATOM     22  C   UNL     1       1.431   9.106  18.600  0.00  0.00    +0.000 A 
ATOM     23  C   UNL     1       1.825   7.800  18.945  0.00  0.00    +0.000 A 
ATOM     24  C   UNL     1       1.743   7.429  20.298  0.00  0.00    +0.000 A 
ATOM     25  C   UNL     1       1.276   8.330  21.261  0.00  0.00    +0.000 A 
BRANCH  20  27
ATOM     26  C   UNL     1      -0.408   9.901  23.136  0.00  0.00    +0.000 C 
ATOM     27  C   UNL     1       0.290  10.516  21.950  0.00  0.00    +0.000 C 
ATOM     28  O   UNL     1       0.407  11.736  21.845  0.00  0.00    +0.000 OA
ENDBRANCH  20  27
ENDBRANCH  18  23
ENDBRANCH   1  18
TORSDOF 4
ENDMDL
MODEL 6
REMARK VINA RESULT:      -7.9      3.160      7.028
REMARK  Name = 
REMARK  7 active torsions:
REMARK  status: ('A' for Active; 'I' for Inactive)
REMARK    1  A    between atoms: C_1  and  C_2
REMARK    2  A    between atoms: C_2  and  C_4
REMARK    3  A    between atoms: C_7  and  N_8
REMARK    4  A    between atoms: N_8  and  C_9
REMARK    5  A    between atoms: C_18  and  N_19
REMARK    6  A    between atoms: C_21  and  C_22
REMARK    7  A    between atoms: C_24  and  C_25
REMARK                            x       y       z     vdW  Elec       q    Type
REMARK                         _______ _______ _______ _____ _____    ______ ____
ROOT
ATOM      1  C   UNL     1       3.888   5.688  19.089  0.00  0.00    +0.000 A 
ATOM      2  N   UNL     1       3.941   4.770  20.073  0.00  0.00    +0.000 NA
ATOM      3  C   UNL     1       2.794   4.109  20.318  0.00  0.00    +0.000 A 
ATOM      4  C   UNL     1       2.525   3.520  21.548  0.00  0.00    +0.000 A 
ATOM      5  C   UNL     1       1.385   2.735  21.717  0.00  0.00    +0.000 A 
ATOM      6  C   UNL     1       0.620   2.406  20.606  0.00  0.00    +0.000 A 
ATOM      7  C   UNL     1       0.829   3.089  19.408  0.00  0.00    +0.000 A 
ATOM      8  C   UNL     1       1.777   4.099  19.354  0.00  0.00    +0.000 A 
ATOM      9  N   UNL     1       1.684   5.135  18.491  0.00  0.00    +0.000 NA
ATOM     10  C   UNL     1       2.624   6.101  18.677  0.00  0.00    +0.000 A 
ENDROOT
BRANCH  10  11
ATOM     11  N   UNL     1       2.205   7.309  19.385  0.00  0.00    +0.000 N 
ATOM     12  N   UNL     1       1.712   7.197  20.663  0.00  0.00    +0.000 NA
ATOM     13  C   UNL     1       0.920   8.259  20.826  0.00  0.00    +0.000 A 
ATOM     14  C   UNL     1      -0.059   8.317  21.940  0.00  0.00    +0.000 C 
ATOM     15  C   UNL     1       1.142   9.215  19.825  0.00  0.00    +0.000 A 
ATOM     16  C   UNL     1       1.956   8.597  18.891  0.00  0.00    +0.000 A 
ATOM     17  C   UNL     1       2.381   9.139  17.577  0.00  0.00    +0.000 C 
ENDBRANCH  10  11
BRANCH   1  18
ATOM     18  N   UNL     1       5.052   6.232  18.552  0.00  0.00    +0.000 N 
ATOM     19  H   UNL     1       5.665   6.601  19.277  0.00  0.00    +0.000 HD
BRANCH  18  23
ATOM     20  C   UNL     1       6.620   5.191  14.753  0.00  0.00    +0.000 A 
ATOM     21  C   UNL     1       7.240   4.732  15.918  0.00  0.00    +0.000 A 
ATOM     22  C   UNL     1       6.749   5.119  17.172  0.00  0.00    +0.000 A 
ATOM     23  C   UNL     1       5.628   5.959  17.302  0.00  0.00    +0.000 A 
ATOM     24  C   UNL     1       5.022   6.426  16.122  0.00  0.00    +0.000 A 
ATOM     25  C   UNL     1       5.518   6.057  14.867  0.00  0.00    +0.000 A 
BRANCH  20  27
ATOM     26  C   UNL     1       6.359   3.609  12.725  0.00  0.00    +0.000 C 
ATOM     27  C   UNL     1       7.060   4.764  13.392  0.00  0.00    +0.000 C 
ATOM     28  O   UNL     1       7.977   5.361  12.830  0.00  0.00    +0.000 OA
ENDBRANCH  20  27
ENDBRANCH  18  23
ENDBRANCH   1  18
TORSDOF 4
ENDMDL
MODEL 7
REMARK VINA RESULT:      -7.8      3.667      8.501
REMARK  Name = 
REMARK  7 active torsions:
REMARK  status: ('A' for Active; 'I' for Inactive)
REMARK    1  A    between atoms: C_1  and  C_2
REMARK    2  A    between atoms: C_2  and  C_4
REMARK    3  A    between atoms: C_7  and  N_8
REMARK    4  A    between atoms: N_8  and  C_9
REMARK    5  A    between atoms: C_18  and  N_19
REMARK    6  A    between atoms: C_21  and  C_22
REMARK    7  A    between atoms: C_24  and  C_25
REMARK                            x       y       z     vdW  Elec       q    Type
REMARK                         _______ _______ _______ _____ _____    ______ ____
ROOT
ATOM      1  C   UNL     1       1.319  10.023  18.354  0.00  0.00    +0.000 A 
ATOM      2  N   UNL     1       2.030  11.053  17.858  0.00  0.00    +0.000 NA
ATOM      3  C   UNL     1       2.011  12.182  18.592  0.00  0.00    +0.000 A 
ATOM      4  C   UNL     1       2.253  13.433  18.036  0.00  0.00    +0.000 A 
ATOM      5  C   UNL     1       2.352  14.558  18.852  0.00  0.00    +0.000 A 
ATOM      6  C   UNL     1       2.382  14.393  20.231  0.00  0.00    +0.000 A 
ATOM      7  C   UNL     1       2.026  13.159  20.777  0.00  0.00    +0.000 A 
ATOM      8  C   UNL     1       1.625  12.132  19.937  0.00  0.00    +0.000 A 
ATOM      9  N   UNL     1       0.778  11.157  20.339  0.00  0.00    +0.000 NA
ATOM     10  C   UNL     1       0.386  10.316  19.344  0.00  0.00    +0.000 A 
ENDROOT
BRANCH  10  11
ATOM     11  N   UNL     1      -0.941  10.537  18.772  0.00  0.00    +0.000 N 
ATOM     12  N   UNL     1      -1.295   9.866  17.626  0.00  0.00    +0.000 NA
ATOM     13  C   UNL     1      -2.221  10.633  17.045  0.00  0.00    +0.000 A 
ATOM     14  C   UNL     1      -2.601  10.427  15.626  0.00  0.00    +0.000 C 
ATOM     15  C   UNL     1      -2.708  11.601  17.934  0.00  0.00    +0.000 A 
ATOM     16  C   UNL     1      -1.873  11.549  19.038  0.00  0.00    +0.000 A 
ATOM     17  C   UNL     1      -1.885  12.457  20.211  0.00  0.00    +0.000 C 
ENDBRANCH  10  11
BRANCH   1  18
ATOM     18  N   UNL     1       1.480   8.733  17.852  0.00  0.00    +0.000 N 
ATOM     19  H   UNL     1       1.095   8.644  16.913  0.00  0.00    +0.000 HD
BRANCH  18  23
ATOM     20  C   UNL     1       4.142   5.619  18.942  0.00  0.00    +0.000 A 
ATOM     21  C   UNL     1       3.080   5.961  19.782  0.00  0.00    +0.000 A 
ATOM     22  C   UNL     1       2.232   7.023  19.443  0.00  0.00    +0.000 A 
ATOM     23  C   UNL     1       2.409   7.765  18.260  0.00  0.00    +0.000 A 
ATOM     24  C   UNL     1       3.491   7.421  17.430  0.00  0.00    +0.000 A 
ATOM     25  C   UNL     1       4.352   6.372  17.773  0.00  0.00    +0.000 A 
BRANCH  20  27
ATOM     26  C   UNL     1       4.438   3.087  19.374  0.00  0.00    +0.000 C 
ATOM     27  C   UNL     1       5.040   4.460  19.219  0.00  0.00    +0.000 C 
ATOM     28  O   UNL     1       6.255   4.634  19.309  0.00  0.00    +0.000 OA
ENDBRANCH  20  27
ENDBRANCH  18  23
ENDBRANCH   1  18
TORSDOF 4
ENDMDL
MODEL 8
REMARK VINA RESULT:      -7.8      3.211      6.972
REMARK  Name = 
REMARK  7 active torsions:
REMARK  status: ('A' for Active; 'I' for Inactive)
REMARK    1  A    between atoms: C_1  and  C_2
REMARK    2  A    between atoms: C_2  and  C_4
REMARK    3  A    between atoms: C_7  and  N_8
REMARK    4  A    between atoms: N_8  and  C_9
REMARK    5  A    between atoms: C_18  and  N_19
REMARK    6  A    between atoms: C_21  and  C_22
REMARK    7  A    between atoms: C_24  and  C_25
REMARK                            x       y       z     vdW  Elec       q    Type
REMARK                         _______ _______ _______ _____ _____    ______ ____
ROOT
ATOM      1  C   UNL     1       4.674   4.029  18.578  0.00  0.00    +0.000 A 
ATOM      2  N   UNL     1       4.365   3.485  19.771  0.00  0.00    +0.000 NA
ATOM      3  C   UNL     1       3.055   3.268  19.991  0.00  0.00    +0.000 A 
ATOM      4  C   UNL     1       2.521   3.186  21.272  0.00  0.00    +0.000 A 
ATOM      5  C   UNL     1       1.186   2.832  21.456  0.00  0.00    +0.000 A 
ATOM      6  C   UNL     1       0.446   2.392  20.366  0.00  0.00    +0.000 A 
ATOM      7  C   UNL     1       0.949   2.585  19.079  0.00  0.00    +0.000 A 
ATOM      8  C   UNL     1       2.163   3.233  18.911  0.00  0.00    +0.000 A 
ATOM      9  N   UNL     1       2.462   3.934  17.795  0.00  0.00    +0.000 NA
ATOM     10  C   UNL     1       3.636   4.618  17.863  0.00  0.00    +0.000 A 
ENDROOT
BRANCH  10  11
ATOM     11  N   UNL     1       3.555   6.052  18.134  0.00  0.00    +0.000 N 
ATOM     12  N   UNL     1       2.859   6.486  19.237  0.00  0.00    +0.000 NA
ATOM     13  C   UNL     1       2.468   7.727  18.937  0.00  0.00    +0.000 A 
ATOM     14  C   UNL     1       1.408   8.404  19.725  0.00  0.00    +0.000 C 
ATOM     15  C   UNL     1       3.162   8.222  17.824  0.00  0.00    +0.000 A 
ATOM     16  C   UNL     1       3.847   7.140  17.299  0.00  0.00    +0.000 A 
ATOM     17  C   UNL     1       4.634   7.105  16.042  0.00  0.00    +0.000 C 
ENDBRANCH  10  11
BRANCH   1  18
ATOM     18  N   UNL     1       5.988   4.043  18.116  0.00  0.00    +0.000 N 
ATOM     19  H   UNL     1       6.624   3.595  18.774  0.00  0.00    +0.000 HD
BRANCH  18  23
ATOM     20  C   UNL     1       7.152   4.692  14.092  0.00  0.00    +0.000 A 
ATOM     21  C   UNL     1       6.119   3.800  14.388  0.00  0.00    +0.000 A 
ATOM     22  C   UNL     1       5.771   3.550  15.722  0.00  0.00    +0.000 A 
ATOM     23  C   UNL     1       6.429   4.185  16.791  0.00  0.00    +0.000 A 
ATOM     24  C   UNL     1       7.477   5.070  16.480  0.00  0.00    +0.000 A 
ATOM     25  C   UNL     1       7.840   5.310  15.151  0.00  0.00    +0.000 A 
BRANCH  20  27
ATOM     26  C   UNL     1       7.110   4.128  11.569  0.00  0.00    +0.000 C 
ATOM     27  C   UNL     1       7.526   5.045  12.690  0.00  0.00    +0.000 C 
ATOM     28  O   UNL     1       8.158   6.076  12.466  0.00  0.00    +0.000 OA
ENDBRANCH  20  27
ENDBRANCH  18  23
ENDBRANCH   1  18
TORSDOF 4
ENDMDL
MODEL 9
REMARK VINA RESULT:      -7.8      1.436      4.081
REMARK  Name = 
REMARK  7 active torsions:
REMARK  status: ('A' for Active; 'I' for Inactive)
REMARK    1  A    between atoms: C_1  and  C_2
REMARK    2  A    between atoms: C_2  and  C_4
REMARK    3  A    between atoms: C_7  and  N_8
REMARK    4  A    between atoms: N_8  and  C_9
REMARK    5  A    between atoms: C_18  and  N_19
REMARK    6  A    between atoms: C_21  and  C_22
REMARK    7  A    between atoms: C_24  and  C_25
REMARK                            x       y       z     vdW  Elec       q    Type
REMARK                         _______ _______ _______ _____ _____    ______ ____
ROOT
ATOM      1  C   UNL     1       2.991   5.892  17.949  0.00  0.00    +0.000 A 
ATOM      2  N   UNL     1       4.141   6.567  17.761  0.00  0.00    +0.000 NA
ATOM      3  C   UNL     1       5.145   5.866  17.202  0.00  0.00    +0.000 A 
ATOM      4  C   UNL     1       6.479   6.213  17.375  0.00  0.00    +0.000 A 
ATOM      5  C   UNL     1       7.478   5.540  16.674  0.00  0.00    +0.000 A 
ATOM      6  C   UNL     1       7.118   4.644  15.676  0.00  0.00    +0.000 A 
ATOM      7  C   UNL     1       5.792   4.219  15.589  0.00  0.00    +0.000 A 
ATOM      8  C   UNL     1       4.866   4.678  16.513  0.00  0.00    +0.000 A 
ATOM      9  N   UNL     1       3.773   3.962  16.860  0.00  0.00    +0.000 NA
ATOM     10  C   UNL     1       3.054   4.503  17.881  0.00  0.00    +0.000 A 
ENDROOT
BRANCH  10  11
ATOM     11  N   UNL     1       3.239   3.917  19.207  0.00  0.00    +0.000 N 
ATOM     12  N   UNL     1       4.448   3.344  19.522  0.00  0.00    +0.000 NA
ATOM     13  C   UNL     1       4.171   2.442  20.467  0.00  0.00    +0.000 A 
ATOM     14  C   UNL     1       5.149   1.383  20.820  0.00  0.00    +0.000 C 
ATOM     15  C   UNL     1       2.890   2.643  20.999  0.00  0.00    +0.000 A 
ATOM     16  C   UNL     1       2.285   3.579  20.178  0.00  0.00    +0.000 A 
ATOM     17  C   UNL     1       0.878   4.045  20.238  0.00  0.00    +0.000 C 
ENDBRANCH  10  11
BRANCH   1  18
ATOM     18  N   UNL     1       1.807   6.562  18.250  0.00  0.00    +0.000 N 
ATOM     19  H   UNL     1       1.001   5.940  18.208  0.00  0.00    +0.000 HD
BRANCH  18  23
ATOM     20  C   UNL     1       1.085  10.131  20.420  0.00  0.00    +0.000 A 
ATOM     21  C   UNL     1       1.191  10.166  19.028  0.00  0.00    +0.000 A 
ATOM     22  C   UNL     1       1.479   8.993  18.318  0.00  0.00    +0.000 A 
ATOM     23  C   UNL     1       1.659   7.758  18.968  0.00  0.00    +0.000 A 
ATOM     24  C   UNL     1       1.565   7.739  20.371  0.00  0.00    +0.000 A 
ATOM     25  C   UNL     1       1.294   8.911  21.087  0.00  0.00    +0.000 A 
BRANCH  20  27
ATOM     26  C   UNL     1      -0.502  11.284  22.104  0.00  0.00    +0.000 C 
ATOM     27  C   UNL     1       0.720  11.335  21.224  0.00  0.00    +0.000 C 
ATOM     28  O   UNL     1       1.421  12.344  21.168  0.00  0.00    +0.000 OA
ENDBRANCH  20  27
ENDBRANCH  18  23
ENDBRANCH   1  18
TORSDOF 4
ENDMDL
