MODEL 1
REMARK VINA RESULT:      -8.7      0.000      0.000
REMARK  Name = 
REMARK  4 active torsions:
REMARK  status: ('A' for Active; 'I' for Inactive)
REMARK    1  A    between atoms: C_1  and  C_2
REMARK    2  A    between atoms: C_7  and  C_8
REMARK    3  A    between atoms: C_14  and  C_15
REMARK    4  A    between atoms: C_17  and  C_18
REMARK                            x       y       z     vdW  Elec       q    Type
REMARK                         _______ _______ _______ _____ _____    ______ ____
ROOT
ATOM      1  C   UNL     1       3.211   3.769  17.392  0.00  0.00    +0.000 C 
ATOM      2  O   UNL     1       2.483   2.977  16.790  0.00  0.00    +0.000 OA
ATOM      3  N   UNL     1       4.298   4.398  16.770  0.00  0.00    +0.000 N 
ATOM      4  C   UNL     1       4.633   4.070  15.392  0.00  0.00    +0.000 C 
ATOM      5  C   UNL     1       6.132   3.814  15.244  0.00  0.00    +0.000 C 
ATOM      6  C   UNL     1       6.980   4.951  15.828  0.00  0.00    +0.000 C 
ATOM      7  C   UNL     1       6.552   5.298  17.267  0.00  0.00    +0.000 C 
ATOM      8  C   UNL     1       5.039   5.556  17.302  0.00  0.00    +0.000 C 
ENDROOT
BRANCH   1  15
ATOM      9  C   UNL     1       0.731   8.662  21.430  0.00  0.00    +0.000 C 
ATOM     10  C   UNL     1       1.502   7.719  20.542  0.00  0.00    +0.000 C 
ATOM     11  O   UNL     1       1.989   8.115  19.490  0.00  0.00    +0.000 OA
ATOM     12  N   UNL     1       1.585   6.452  21.082  0.00  0.00    +0.000 N 
ATOM     13  C   UNL     1       2.175   5.426  20.401  0.00  0.00    +0.000 A 
ATOM     14  N   UNL     1       2.616   5.424  19.175  0.00  0.00    +0.000 NA
ATOM     15  C   UNL     1       2.927   4.125  18.786  0.00  0.00    +0.000 A 
ATOM     16  C   UNL     1       2.936   3.217  19.831  0.00  0.00    +0.000 A 
ATOM     17  S   UNL     1       2.289   3.952  21.247  0.00  0.00    +0.000 S 
ATOM     18  H   UNL     1       1.187   6.239  21.984  0.00  0.00    +0.000 HD
ENDBRANCH   1  15
BRANCH   7  19
ATOM     19  C   UNL     1       7.311   6.464  17.822  0.00  0.00    +0.000 A 
ATOM     20  C   UNL     1       7.391   7.775  17.291  0.00  0.00    +0.000 A 
ATOM     21  C   UNL     1       8.228   8.462  18.141  0.00  0.00    +0.000 A 
ATOM     22  C   UNL     1       8.716   9.857  18.137  0.00  0.00    +0.000 C 
ATOM     23  N   UNL     1       8.591   7.561  19.101  0.00  0.00    +0.000 N 
ATOM     24  N   UNL     1       8.054   6.344  18.931  0.00  0.00    +0.000 NA
ATOM     25  H   UNL     1       9.204   7.705  19.895  0.00  0.00    +0.000 HD
ENDBRANCH   7  19
TORSDOF 2
ENDMDL
MODEL 2
REMARK VINA RESULT:      -7.5      3.115      6.315
REMARK  Name = 
REMARK  4 active torsions:
REMARK  status: ('A' for Active; 'I' for Inactive)
REMARK    1  A    between atoms: C_1  and  C_2
REMARK    2  A    between atoms: C_7  and  C_8
REMARK    3  A    between atoms: C_14  and  C_15
REMARK    4  A    between atoms: C_17  and  C_18
REMARK                            x       y       z     vdW  Elec       q    Type
REMARK                         _______ _______ _______ _____ _____    ______ ____
ROOT
ATOM      1  C   UNL     1       4.970   3.786  19.378  0.00  0.00    +0.000 C 
ATOM      2  O   UNL     1       5.192   2.621  19.717  0.00  0.00    +0.000 OA
ATOM      3  N   UNL     1       3.789   4.450  19.734  0.00  0.00    +0.000 N 
ATOM      4  C   UNL     1       2.753   3.740  20.470  0.00  0.00    +0.000 C 
ATOM      5  C   UNL     1       1.380   3.983  19.845  0.00  0.00    +0.000 C 
ATOM      6  C   UNL     1       1.082   5.475  19.649  0.00  0.00    +0.000 C 
ATOM      7  C   UNL     1       2.231   6.192  18.914  0.00  0.00    +0.000 C 
ATOM      8  C   UNL     1       3.556   5.902  19.631  0.00  0.00    +0.000 C 
ENDROOT
BRANCH   1  15
ATOM      9  C   UNL     1       7.266   5.163  13.115  0.00  0.00    +0.000 C 
ATOM     10  C   UNL     1       6.901   4.640  14.480  0.00  0.00    +0.000 C 
ATOM     11  O   UNL     1       6.357   3.549  14.603  0.00  0.00    +0.000 OA
ATOM     12  N   UNL     1       7.279   5.508  15.484  0.00  0.00    +0.000 N 
ATOM     13  C   UNL     1       6.974   5.259  16.792  0.00  0.00    +0.000 A 
ATOM     14  N   UNL     1       6.226   4.308  17.275  0.00  0.00    +0.000 NA
ATOM     15  C   UNL     1       5.975   4.542  18.623  0.00  0.00    +0.000 A 
ATOM     16  C   UNL     1       6.753   5.548  19.169  0.00  0.00    +0.000 A 
ATOM     17  S   UNL     1       7.601   6.373  17.918  0.00  0.00    +0.000 S 
ATOM     18  H   UNL     1       7.768   6.365  15.279  0.00  0.00    +0.000 HD
ENDBRANCH   1  15
BRANCH   7  19
ATOM     19  C   UNL     1       1.995   7.667  18.791  0.00  0.00    +0.000 A 
ATOM     20  C   UNL     1       1.427   8.534  19.755  0.00  0.00    +0.000 A 
ATOM     21  C   UNL     1       1.399   9.775  19.158  0.00  0.00    +0.000 A 
ATOM     22  C   UNL     1       0.924  11.091  19.630  0.00  0.00    +0.000 C 
ATOM     23  N   UNL     1       1.934   9.592  17.915  0.00  0.00    +0.000 N 
ATOM     24  N   UNL     1       2.300   8.326  17.664  0.00  0.00    +0.000 NA
ATOM     25  H   UNL     1       2.073  10.282  17.185  0.00  0.00    +0.000 HD
ENDBRANCH   7  19
TORSDOF 2
ENDMDL
MODEL 3
REMARK VINA RESULT:      -7.2      1.001      1.012
REMARK  Name = 
REMARK  4 active torsions:
REMARK  status: ('A' for Active; 'I' for Inactive)
REMARK    1  A    between atoms: C_1  and  C_2
REMARK    2  A    between atoms: C_7  and  C_8
REMARK    3  A    between atoms: C_14  and  C_15
REMARK    4  A    between atoms: C_17  and  C_18
REMARK                            x       y       z     vdW  Elec       q    Type
REMARK                         _______ _______ _______ _____ _____    ______ ____
ROOT
ATOM      1  C   UNL     1       3.276   4.585  17.414  0.00  0.00    +0.000 C 
ATOM      2  O   UNL     1       2.553   3.759  16.854  0.00  0.00    +0.000 OA
ATOM      3  N   UNL     1       4.468   5.041  16.833  0.00  0.00    +0.000 N 
ATOM      4  C   UNL     1       4.914   4.487  15.563  0.00  0.00    +0.000 C 
ATOM      5  C   UNL     1       6.395   4.116  15.624  0.00  0.00    +0.000 C 
ATOM      6  C   UNL     1       7.267   5.272  16.129  0.00  0.00    +0.000 C 
ATOM      7  C   UNL     1       6.724   5.860  17.446  0.00  0.00    +0.000 C 
ATOM      8  C   UNL     1       5.241   6.217  17.273  0.00  0.00    +0.000 C 
ENDROOT
BRANCH   1  15
ATOM      9  C   UNL     1       0.488  10.056  20.362  0.00  0.00    +0.000 C 
ATOM     10  C   UNL     1       1.326   8.986  19.710  0.00  0.00    +0.000 C 
ATOM     11  O   UNL     1       1.898   9.206  18.648  0.00  0.00    +0.000 OA
ATOM     12  N   UNL     1       1.363   7.828  20.460  0.00  0.00    +0.000 N 
ATOM     13  C   UNL     1       2.005   6.710  20.009  0.00  0.00    +0.000 A 
ATOM     14  N   UNL     1       2.543   6.508  18.840  0.00  0.00    +0.000 NA
ATOM     15  C   UNL     1       2.881   5.166  18.701  0.00  0.00    +0.000 A 
ATOM     16  C   UNL     1       2.804   4.446  19.881  0.00  0.00    +0.000 A 
ATOM     17  S   UNL     1       2.047   5.400  21.097  0.00  0.00    +0.000 S 
ATOM     18  H   UNL     1       0.894   7.765  21.349  0.00  0.00    +0.000 HD
ENDBRANCH   1  15
BRANCH   7  19
ATOM     19  C   UNL     1       7.514   7.047  17.908  0.00  0.00    +0.000 A 
ATOM     20  C   UNL     1       7.544   8.341  17.335  0.00  0.00    +0.000 A 
ATOM     21  C   UNL     1       8.437   9.057  18.100  0.00  0.00    +0.000 A 
ATOM     22  C   UNL     1       8.913  10.454  18.020  0.00  0.00    +0.000 C 
ATOM     23  N   UNL     1       8.877   8.187  19.056  0.00  0.00    +0.000 N 
ATOM     24  N   UNL     1       8.339   6.962  18.962  0.00  0.00    +0.000 NA
ATOM     25  H   UNL     1       9.547   8.358  19.797  0.00  0.00    +0.000 HD
ENDBRANCH   7  19
TORSDOF 2
ENDMDL
MODEL 4
REMARK VINA RESULT:      -7.0      1.059      1.106
REMARK  Name = 
REMARK  4 active torsions:
REMARK  status: ('A' for Active; 'I' for Inactive)
REMARK    1  A    between atoms: C_1  and  C_2
REMARK    2  A    between atoms: C_7  and  C_8
REMARK    3  A    between atoms: C_14  and  C_15
REMARK    4  A    between atoms: C_17  and  C_18
REMARK                            x       y       z     vdW  Elec       q    Type
REMARK                         _______ _______ _______ _____ _____    ______ ____
ROOT
ATOM      1  C   UNL     1       3.438   4.086  17.382  0.00  0.00    +0.000 C 
ATOM      2  O   UNL     1       2.814   3.147  16.885  0.00  0.00    +0.000 OA
ATOM      3  N   UNL     1       4.482   4.727  16.701  0.00  0.00    +0.000 N 
ATOM      4  C   UNL     1       4.900   4.241  15.394  0.00  0.00    +0.000 C 
ATOM      5  C   UNL     1       6.421   4.121  15.320  0.00  0.00    +0.000 C 
ATOM      6  C   UNL     1       7.131   5.410  15.752  0.00  0.00    +0.000 C 
ATOM      7  C   UNL     1       6.617   5.913  17.115  0.00  0.00    +0.000 C 
ATOM      8  C   UNL     1       5.087   6.018  17.076  0.00  0.00    +0.000 C 
ENDROOT
BRANCH   1  15
ATOM      9  C   UNL     1       0.708   9.411  20.635  0.00  0.00    +0.000 C 
ATOM     10  C   UNL     1       1.533   8.374  19.918  0.00  0.00    +0.000 C 
ATOM     11  O   UNL     1       2.084   8.644  18.857  0.00  0.00    +0.000 OA
ATOM     12  N   UNL     1       1.584   7.183  20.612  0.00  0.00    +0.000 N 
ATOM     13  C   UNL     1       2.217   6.088  20.098  0.00  0.00    +0.000 A 
ATOM     14  N   UNL     1       2.732   5.940  18.911  0.00  0.00    +0.000 NA
ATOM     15  C   UNL     1       3.068   4.606  18.702  0.00  0.00    +0.000 A 
ATOM     16  C   UNL     1       3.014   3.832  19.849  0.00  0.00    +0.000 A 
ATOM     17  S   UNL     1       2.280   4.728  21.123  0.00  0.00    +0.000 S 
ATOM     18  H   UNL     1       1.132   7.078  21.507  0.00  0.00    +0.000 HD
ENDBRANCH   1  15
BRANCH   7  19
ATOM     19  C   UNL     1       7.238   7.218  17.512  0.00  0.00    +0.000 A 
ATOM     20  C   UNL     1       8.243   7.436  18.485  0.00  0.00    +0.000 A 
ATOM     21  C   UNL     1       8.449   8.797  18.498  0.00  0.00    +0.000 A 
ATOM     22  C   UNL     1       9.354   9.655  19.290  0.00  0.00    +0.000 C 
ATOM     23  N   UNL     1       7.590   9.303  17.565  0.00  0.00    +0.000 N 
ATOM     24  N   UNL     1       6.842   8.371  16.955  0.00  0.00    +0.000 NA
ATOM     25  H   UNL     1       7.456  10.272  17.298  0.00  0.00    +0.000 HD
ENDBRANCH   7  19
TORSDOF 2
ENDMDL
MODEL 5
REMARK VINA RESULT:      -6.7      6.242      9.169
REMARK  Name = 
REMARK  4 active torsions:
REMARK  status: ('A' for Active; 'I' for Inactive)
REMARK    1  A    between atoms: C_1  and  C_2
REMARK    2  A    between atoms: C_7  and  C_8
REMARK    3  A    between atoms: C_14  and  C_15
REMARK    4  A    between atoms: C_17  and  C_18
REMARK                            x       y       z     vdW  Elec       q    Type
REMARK                         _______ _______ _______ _____ _____    ______ ____
ROOT
ATOM      1  C   UNL     1       0.588  10.054  22.025  0.00  0.00    +0.000 C 
ATOM      2  O   UNL     1       1.417   9.582  22.807  0.00  0.00    +0.000 OA
ATOM      3  N   UNL     1       0.441   9.568  20.719  0.00  0.00    +0.000 N 
ATOM      4  C   UNL     1       1.326   8.520  20.232  0.00  0.00    +0.000 C 
ATOM      5  C   UNL     1       1.867   8.869  18.846  0.00  0.00    +0.000 C 
ATOM      6  C   UNL     1       0.753   9.240  17.859  0.00  0.00    +0.000 C 
ATOM      7  C   UNL     1      -0.188  10.312  18.442  0.00  0.00    +0.000 C 
ATOM      8  C   UNL     1      -0.690   9.857  19.819  0.00  0.00    +0.000 C 
ENDROOT
BRANCH   1  15
ATOM      9  C   UNL     1      -0.964  16.636  21.214  0.00  0.00    +0.000 C 
ATOM     10  C   UNL     1      -0.434  15.267  21.556  0.00  0.00    +0.000 C 
ATOM     11  O   UNL     1       0.737  14.981  21.333  0.00  0.00    +0.000 OA
ATOM     12  N   UNL     1      -1.398  14.470  22.138  0.00  0.00    +0.000 N 
ATOM     13  C   UNL     1      -1.145  13.166  22.454  0.00  0.00    +0.000 A 
ATOM     14  N   UNL     1      -0.086  12.461  22.173  0.00  0.00    +0.000 NA
ATOM     15  C   UNL     1      -0.320  11.120  22.460  0.00  0.00    +0.000 A 
ATOM     16  C   UNL     1      -1.479  10.898  23.183  0.00  0.00    +0.000 A 
ATOM     17  S   UNL     1      -2.404  12.348  23.261  0.00  0.00    +0.000 S 
ATOM     18  H   UNL     1      -2.325  14.819  22.322  0.00  0.00    +0.000 HD
ENDBRANCH   1  15
BRANCH   7  19
ATOM     19  C   UNL     1      -1.332  10.623  17.525  0.00  0.00    +0.000 A 
ATOM     20  C   UNL     1      -1.889   9.790  16.525  0.00  0.00    +0.000 A 
ATOM     21  C   UNL     1      -2.890  10.537  15.945  0.00  0.00    +0.000 A 
ATOM     22  C   UNL     1      -3.834  10.244  14.846  0.00  0.00    +0.000 C 
ATOM     23  N   UNL     1      -2.882  11.732  16.605  0.00  0.00    +0.000 N 
ATOM     24  N   UNL     1      -1.947  11.814  17.564  0.00  0.00    +0.000 NA
ATOM     25  H   UNL     1      -3.478  12.537  16.450  0.00  0.00    +0.000 HD
ENDBRANCH   7  19
TORSDOF 2
ENDMDL
MODEL 6
REMARK VINA RESULT:      -6.6      7.740     11.341
REMARK  Name = 
REMARK  4 active torsions:
REMARK  status: ('A' for Active; 'I' for Inactive)
REMARK    1  A    between atoms: C_1  and  C_2
REMARK    2  A    between atoms: C_7  and  C_8
REMARK    3  A    between atoms: C_14  and  C_15
REMARK    4  A    between atoms: C_17  and  C_18
REMARK                            x       y       z     vdW  Elec       q    Type
REMARK                         _______ _______ _______ _____ _____    ______ ____
ROOT
ATOM      1  C   UNL     1      -4.410  12.901  22.131  0.00  0.00    +0.000 C 
ATOM      2  O   UNL     1      -5.099  13.182  23.113  0.00  0.00    +0.000 OA
ATOM      3  N   UNL     1      -4.981  12.560  20.897  0.00  0.00    +0.000 N 
ATOM      4  C   UNL     1      -6.428  12.466  20.770  0.00  0.00    +0.000 C 
ATOM      5  C   UNL     1      -6.827  11.182  20.045  0.00  0.00    +0.000 C 
ATOM      6  C   UNL     1      -6.081  11.005  18.716  0.00  0.00    +0.000 C 
ATOM      7  C   UNL     1      -4.559  11.167  18.893  0.00  0.00    +0.000 C 
ATOM      8  C   UNL     1      -4.266  12.492  19.610  0.00  0.00    +0.000 C 
ENDROOT
BRANCH   1  15
ATOM      9  C   UNL     1       1.279   9.155  22.084  0.00  0.00    +0.000 C 
ATOM     10  C   UNL     1       0.006   9.918  22.348  0.00  0.00    +0.000 C 
ATOM     11  O   UNL     1      -0.991   9.338  22.762  0.00  0.00    +0.000 OA
ATOM     12  N   UNL     1       0.149  11.267  22.095  0.00  0.00    +0.000 N 
ATOM     13  C   UNL     1      -0.908  12.125  22.197  0.00  0.00    +0.000 A 
ATOM     14  N   UNL     1      -2.160  11.837  22.408  0.00  0.00    +0.000 NA
ATOM     15  C   UNL     1      -2.947  12.966  22.208  0.00  0.00    +0.000 A 
ATOM     16  C   UNL     1      -2.220  14.138  22.086  0.00  0.00    +0.000 A 
ATOM     17  S   UNL     1      -0.543  13.772  21.954  0.00  0.00    +0.000 S 
ATOM     18  H   UNL     1       1.032  11.654  21.800  0.00  0.00    +0.000 HD
ENDBRANCH   1  15
BRANCH   7  19
ATOM     19  C   UNL     1      -3.822  11.083  17.591  0.00  0.00    +0.000 A 
ATOM     20  C   UNL     1      -4.199  10.365  16.430  0.00  0.00    +0.000 A 
ATOM     21  C   UNL     1      -3.185  10.581  15.524  0.00  0.00    +0.000 A 
ATOM     22  C   UNL     1      -2.976  10.107  14.139  0.00  0.00    +0.000 C 
ATOM     23  N   UNL     1      -2.289  11.387  16.165  0.00  0.00    +0.000 N 
ATOM     24  N   UNL     1      -2.647  11.703  17.418  0.00  0.00    +0.000 NA
ATOM     25  H   UNL     1      -1.412  11.753  15.813  0.00  0.00    +0.000 HD
ENDBRANCH   7  19
TORSDOF 2
ENDMDL
MODEL 7
REMARK VINA RESULT:      -6.5      3.358      6.935
REMARK  Name = 
REMARK  4 active torsions:
REMARK  status: ('A' for Active; 'I' for Inactive)
REMARK    1  A    between atoms: C_1  and  C_2
REMARK    2  A    between atoms: C_7  and  C_8
REMARK    3  A    between atoms: C_14  and  C_15
REMARK    4  A    between atoms: C_17  and  C_18
REMARK                            x       y       z     vdW  Elec       q    Type
REMARK                         _______ _______ _______ _____ _____    ______ ____
ROOT
ATOM      1  C   UNL     1       3.471   5.486  18.153  0.00  0.00    +0.000 C 
ATOM      2  O   UNL     1       2.676   6.376  17.842  0.00  0.00    +0.000 OA
ATOM      3  N   UNL     1       3.070   4.349  18.867  0.00  0.00    +0.000 N 
ATOM      4  C   UNL     1       1.692   4.228  19.322  0.00  0.00    +0.000 C 
ATOM      5  C   UNL     1       1.640   3.795  20.786  0.00  0.00    +0.000 C 
ATOM      6  C   UNL     1       2.487   2.546  21.056  0.00  0.00    +0.000 C 
ATOM      7  C   UNL     1       3.920   2.702  20.509  0.00  0.00    +0.000 C 
ATOM      8  C   UNL     1       3.860   3.117  19.033  0.00  0.00    +0.000 C 
ENDROOT
BRANCH   1  15
ATOM      9  C   UNL     1       7.655   4.936  12.806  0.00  0.00    +0.000 C 
ATOM     10  C   UNL     1       6.742   4.796  13.998  0.00  0.00    +0.000 C 
ATOM     11  O   UNL     1       5.710   4.140  13.916  0.00  0.00    +0.000 OA
ATOM     12  N   UNL     1       7.237   5.449  15.108  0.00  0.00    +0.000 N 
ATOM     13  C   UNL     1       6.526   5.510  16.272  0.00  0.00    +0.000 A 
ATOM     14  N   UNL     1       5.306   5.111  16.491  0.00  0.00    +0.000 NA
ATOM     15  C   UNL     1       4.873   5.565  17.732  0.00  0.00    +0.000 A 
ATOM     16  C   UNL     1       5.885   6.094  18.515  0.00  0.00    +0.000 A 
ATOM     17  S   UNL     1       7.319   6.262  17.579  0.00  0.00    +0.000 S 
ATOM     18  H   UNL     1       8.126   5.924  15.084  0.00  0.00    +0.000 HD
ENDBRANCH   1  15
BRANCH   7  19
ATOM     19  C   UNL     1       4.736   1.457  20.688  0.00  0.00    +0.000 A 
ATOM     20  C   UNL     1       5.372   1.004  21.869  0.00  0.00    +0.000 A 
ATOM     21  C   UNL     1       6.015  -0.160  21.512  0.00  0.00    +0.000 A 
ATOM     22  C   UNL     1       6.853  -1.105  22.280  0.00  0.00    +0.000 C 
ATOM     23  N   UNL     1       5.738  -0.337  20.187  0.00  0.00    +0.000 N 
ATOM     24  N   UNL     1       4.970   0.628  19.661  0.00  0.00    +0.000 NA
ATOM     25  H   UNL     1       6.044  -1.087  19.578  0.00  0.00    +0.000 HD
ENDBRANCH   7  19
TORSDOF 2
ENDMDL
MODEL 8
REMARK VINA RESULT:      -6.4      8.156     12.117
REMARK  Name = 
REMARK  4 active torsions:
REMARK  status: ('A' for Active; 'I' for Inactive)
REMARK    1  A    between atoms: C_1  and  C_2
REMARK    2  A    between atoms: C_7  and  C_8
REMARK    3  A    between atoms: C_14  and  C_15
REMARK    4  A    between atoms: C_17  and  C_18
REMARK                            x       y       z     vdW  Elec       q    Type
REMARK                         _______ _______ _______ _____ _____    ______ ____
ROOT
ATOM      1  C   UNL     1       0.229  13.357  21.505  0.00  0.00    +0.000 C 
ATOM      2  O   UNL     1       1.307  13.887  21.227  0.00  0.00    +0.000 OA
ATOM      3  N   UNL     1      -0.751  14.019  22.258  0.00  0.00    +0.000 N 
ATOM      4  C   UNL     1      -0.480  15.346  22.793  0.00  0.00    +0.000 C 
ATOM      5  C   UNL     1      -0.885  15.431  24.263  0.00  0.00    +0.000 C 
ATOM      6  C   UNL     1      -2.322  14.953  24.503  0.00  0.00    +0.000 C 
ATOM      7  C   UNL     1      -2.574  13.570  23.873  0.00  0.00    +0.000 C 
ATOM      8  C   UNL     1      -2.156  13.597  22.397  0.00  0.00    +0.000 C 
ENDROOT
BRANCH   1  15
ATOM      9  C   UNL     1      -2.416   9.929  16.247  0.00  0.00    +0.000 C 
ATOM     10  C   UNL     1      -2.081  10.724  17.483  0.00  0.00    +0.000 C 
ATOM     11  O   UNL     1      -2.505  11.865  17.622  0.00  0.00    +0.000 OA
ATOM     12  N   UNL     1      -1.306  10.002  18.368  0.00  0.00    +0.000 N 
ATOM     13  C   UNL     1      -0.828  10.564  19.517  0.00  0.00    +0.000 A 
ATOM     14  N   UNL     1      -0.900  11.809  19.893  0.00  0.00    +0.000 NA
ATOM     15  C   UNL     1      -0.089  12.016  21.004  0.00  0.00    +0.000 A 
ATOM     16  C   UNL     1       0.382  10.847  21.576  0.00  0.00    +0.000 A 
ATOM     17  S   UNL     1       0.023   9.511  20.551  0.00  0.00    +0.000 S 
ATOM     18  H   UNL     1      -1.048   9.046  18.179  0.00  0.00    +0.000 HD
ENDBRANCH   1  15
BRANCH   7  19
ATOM     19  C   UNL     1      -3.998  13.127  24.023  0.00  0.00    +0.000 A 
ATOM     20  C   UNL     1      -5.168  13.856  23.701  0.00  0.00    +0.000 A 
ATOM     21  C   UNL     1      -6.217  13.034  24.047  0.00  0.00    +0.000 A 
ATOM     22  C   UNL     1      -7.682  13.210  23.967  0.00  0.00    +0.000 C 
ATOM     23  N   UNL     1      -5.641  11.897  24.538  0.00  0.00    +0.000 N 
ATOM     24  N   UNL     1      -4.300  11.927  24.539  0.00  0.00    +0.000 NA
ATOM     25  H   UNL     1      -6.100  11.067  24.895  0.00  0.00    +0.000 HD
ENDBRANCH   7  19
TORSDOF 2
ENDMDL
MODEL 9
REMARK VINA RESULT:      -6.4      7.769     11.135
REMARK  Name = 
REMARK  4 active torsions:
REMARK  status: ('A' for Active; 'I' for Inactive)
REMARK    1  A    between atoms: C_1  and  C_2
REMARK    2  A    between atoms: C_7  and  C_8
REMARK    3  A    between atoms: C_14  and  C_15
REMARK    4  A    between atoms: C_17  and  C_18
REMARK                            x       y       z     vdW  Elec       q    Type
REMARK                         _______ _______ _______ _____ _____    ______ ____
ROOT
ATOM      1  C   UNL     1       0.412  12.314  20.812  0.00  0.00    +0.000 C 
ATOM      2  O   UNL     1       1.532  12.048  21.254  0.00  0.00    +0.000 OA
ATOM      3  N   UNL     1      -0.297  11.419  19.999  0.00  0.00    +0.000 N 
ATOM      4  C   UNL     1       0.317  10.161  19.600  0.00  0.00    +0.000 C 
ATOM      5  C   UNL     1       0.137   9.921  18.102  0.00  0.00    +0.000 C 
ATOM      6  C   UNL     1      -1.325  10.059  17.660  0.00  0.00    +0.000 C 
ATOM      7  C   UNL     1      -1.946  11.381  18.152  0.00  0.00    +0.000 C 
ATOM      8  C   UNL     1      -1.729  11.515  19.665  0.00  0.00    +0.000 C 
ENDROOT
BRANCH   1  15
ATOM      9  C   UNL     1      -1.773  18.281  18.359  0.00  0.00    +0.000 C 
ATOM     10  C   UNL     1      -1.055  17.076  18.911  0.00  0.00    +0.000 C 
ATOM     11  O   UNL     1      -0.116  16.579  18.299  0.00  0.00    +0.000 OA
ATOM     12  N   UNL     1      -1.568  16.681  20.129  0.00  0.00    +0.000 N 
ATOM     13  C   UNL     1      -1.109  15.563  20.765  0.00  0.00    +0.000 A 
ATOM     14  N   UNL     1      -0.268  14.673  20.320  0.00  0.00    +0.000 NA
ATOM     15  C   UNL     1      -0.246  13.574  21.172  0.00  0.00    +0.000 A 
ATOM     16  C   UNL     1      -0.902  13.786  22.372  0.00  0.00    +0.000 A 
ATOM     17  S   UNL     1      -1.771  15.271  22.307  0.00  0.00    +0.000 S 
ATOM     18  H   UNL     1      -2.316  17.191  20.573  0.00  0.00    +0.000 HD
ENDBRANCH   1  15
BRANCH   7  19
ATOM     19  C   UNL     1      -3.399  11.493  17.802  0.00  0.00    +0.000 A 
ATOM     20  C   UNL     1      -4.473  11.810  18.667  0.00  0.00    +0.000 A 
ATOM     21  C   UNL     1      -5.602  11.757  17.881  0.00  0.00    +0.000 A 
ATOM     22  C   UNL     1      -7.032  11.979  18.183  0.00  0.00    +0.000 C 
ATOM     23  N   UNL     1      -5.160  11.426  16.632  0.00  0.00    +0.000 N 
ATOM     24  N   UNL     1      -3.832  11.255  16.556  0.00  0.00    +0.000 NA
ATOM     25  H   UNL     1      -5.707  11.292  15.789  0.00  0.00    +0.000 HD
ENDBRANCH   7  19
TORSDOF 2
ENDMDL
