MODEL 1
REMARK VINA RESULT:      -6.9      0.000      0.000
REMARK  Name = 
REMARK  7 active torsions:
REMARK  status: ('A' for Active; 'I' for Inactive)
REMARK    1  A    between atoms: C_2  and  C_3
REMARK    2  A    between atoms: N_9  and  C_10
REMARK    3  A    between atoms: N_9  and  C_22
REMARK    4  A    between atoms: C_10  and  C_11
REMARK    5  A    between atoms: C_14  and  O_15
REMARK    6  A    between atoms: O_15  and  C_16
REMARK    7  A    between atoms: C_27  and  N_28
REMARK                            x       y       z     vdW  Elec       q    Type
REMARK                         _______ _______ _______ _____ _____    ______ ____
ROOT
ATOM      1  O   UNL     1       1.374  13.116  19.448  0.00  0.00    +0.000 OA
ATOM      2  C   UNL     1       0.517  13.817  19.978  0.00  0.00    +0.000 C 
ATOM      3  N   UNL     1      -0.538  13.274  20.754  0.00  0.00    +0.000 N 
ENDROOT
BRANCH   3   4
ATOM      4  C   UNL     1      -1.435  14.056  21.672  0.00  0.00    +0.000 C 
ATOM      5  C   UNL     1      -1.427  13.635  23.167  0.00  0.00    +0.000 C 
ATOM      6  O   UNL     1      -2.564  12.970  23.723  0.00  0.00    +0.000 OA
ATOM      7  C   UNL     1      -3.722  13.045  23.087  0.00  0.00    +0.000 A 
ATOM      8  N   UNL     1      -4.839  12.531  23.536  0.00  0.00    +0.000 NA
ATOM      9  C   UNL     1      -5.767  12.763  22.534  0.00  0.00    +0.000 A 
ATOM     10  C   UNL     1      -5.191  13.436  21.481  0.00  0.00    +0.000 A 
ATOM     11  N   UNL     1      -3.891  13.595  21.860  0.00  0.00    +0.000 N 
ATOM     12  C   UNL     1      -2.850  14.211  21.093  0.00  0.00    +0.000 C 
BRANCH   9  13
ATOM     13  N   UNL     1      -7.129  12.302  22.632  0.00  0.00    +0.000 N 
ATOM     14  O   UNL     1      -7.834  12.851  23.510  0.00  0.00    +0.000 OA
ATOM     15  O   UNL     1      -7.512  11.419  21.867  0.00  0.00    +0.000 OA
ENDBRANCH   9  13
ENDBRANCH   3   4
BRANCH   2  16
ATOM     16  C   UNL     1       0.651  15.286  19.778  0.00  0.00    +0.000 A 
ATOM     17  C   UNL     1      -0.105  15.939  18.805  0.00  0.00    +0.000 A 
ATOM     18  C   UNL     1       0.042  17.303  18.574  0.00  0.00    +0.000 A 
ATOM     19  C   UNL     1       1.020  18.015  19.255  0.00  0.00    +0.000 A 
ATOM     20  C   UNL     1       1.834  17.364  20.184  0.00  0.00    +0.000 A 
ATOM     21  C   UNL     1       1.646  16.002  20.457  0.00  0.00    +0.000 A 
ENDBRANCH   2  16
BRANCH   3  22
ATOM     22  C   UNL     1      -0.640  11.808  20.748  0.00  0.00    +0.000 C 
BRANCH  22  23
ATOM     23  C   UNL     1      -1.219  11.216  19.475  0.00  0.00    +0.000 A 
ATOM     24  C   UNL     1      -0.478  10.391  18.612  0.00  0.00    +0.000 A 
ATOM     25  C   UNL     1      -1.069   9.807  17.495  0.00  0.00    +0.000 A 
ATOM     26  C   UNL     1      -2.413  10.039  17.209  0.00  0.00    +0.000 A 
ATOM     27  C   UNL     1      -3.129  10.935  17.997  0.00  0.00    +0.000 A 
ATOM     28  C   UNL     1      -2.547  11.501  19.135  0.00  0.00    +0.000 A 
BRANCH  26  29
ATOM     29  O   UNL     1      -2.883   9.405  16.101  0.00  0.00    +0.000 OA
BRANCH  29  30
ATOM     30  C   UNL     1      -3.096  10.168  14.920  0.00  0.00    +0.000 C 
ATOM     31  F   UNL     1      -2.519   9.665  13.809  0.00  0.00    +0.000 F 
ATOM     32  F   UNL     1      -4.426  10.266  14.705  0.00  0.00    +0.000 F 
ATOM     33  F   UNL     1      -2.607  11.415  15.112  0.00  0.00    +0.000 F 
ENDBRANCH  29  30
ENDBRANCH  26  29
ENDBRANCH  22  23
ENDBRANCH   3  22
TORSDOF 7
ENDMDL
MODEL 2
REMARK VINA RESULT:      -6.8      3.801      4.670
REMARK  Name = 
REMARK  7 active torsions:
REMARK  status: ('A' for Active; 'I' for Inactive)
REMARK    1  A    between atoms: C_2  and  C_3
REMARK    2  A    between atoms: N_9  and  C_10
REMARK    3  A    between atoms: N_9  and  C_22
REMARK    4  A    between atoms: C_10  and  C_11
REMARK    5  A    between atoms: C_14  and  O_15
REMARK    6  A    between atoms: O_15  and  C_16
REMARK    7  A    between atoms: C_27  and  N_28
REMARK                            x       y       z     vdW  Elec       q    Type
REMARK                         _______ _______ _______ _____ _____    ______ ____
ROOT
ATOM      1  O   UNL     1       2.065  11.637  21.263  0.00  0.00    +0.000 OA
ATOM      2  C   UNL     1       1.394  12.302  20.479  0.00  0.00    +0.000 C 
ATOM      3  N   UNL     1       0.153  11.849  19.964  0.00  0.00    +0.000 N 
ENDROOT
BRANCH   3   4
ATOM      4  C   UNL     1      -0.859  12.703  19.253  0.00  0.00    +0.000 C 
ATOM      5  C   UNL     1      -1.662  13.698  20.137  0.00  0.00    +0.000 C 
ATOM      6  O   UNL     1      -3.047  13.457  20.397  0.00  0.00    +0.000 OA
ATOM      7  C   UNL     1      -3.708  12.622  19.612  0.00  0.00    +0.000 A 
ATOM      8  N   UNL     1      -4.990  12.377  19.718  0.00  0.00    +0.000 NA
ATOM      9  C   UNL     1      -5.246  11.398  18.771  0.00  0.00    +0.000 A 
ATOM     10  C   UNL     1      -4.099  11.069  18.087  0.00  0.00    +0.000 A 
ATOM     11  N   UNL     1      -3.139  11.858  18.647  0.00  0.00    +0.000 N 
ATOM     12  C   UNL     1      -1.747  11.876  18.312  0.00  0.00    +0.000 C 
BRANCH   9  13
ATOM     13  N   UNL     1      -6.556  10.821  18.604  0.00  0.00    +0.000 N 
ATOM     14  O   UNL     1      -7.428  11.571  18.106  0.00  0.00    +0.000 OA
ATOM     15  O   UNL     1      -6.738   9.655  18.948  0.00  0.00    +0.000 OA
ENDBRANCH   9  13
ENDBRANCH   3   4
BRANCH   2  16
ATOM     16  C   UNL     1       1.946  13.631  20.102  0.00  0.00    +0.000 A 
ATOM     17  C   UNL     1       1.800  14.726  20.953  0.00  0.00    +0.000 A 
ATOM     18  C   UNL     1       2.269  15.985  20.594  0.00  0.00    +0.000 A 
ATOM     19  C   UNL     1       2.811  16.184  19.332  0.00  0.00    +0.000 A 
ATOM     20  C   UNL     1       2.904  15.114  18.439  0.00  0.00    +0.000 A 
ATOM     21  C   UNL     1       2.483  13.835  18.823  0.00  0.00    +0.000 A 
ENDBRANCH   2  16
BRANCH   3  22
ATOM     22  C   UNL     1      -0.203  10.462  20.296  0.00  0.00    +0.000 C 
BRANCH  22  23
ATOM     23  C   UNL     1       0.760   9.414  19.770  0.00  0.00    +0.000 A 
ATOM     24  C   UNL     1       1.261   8.370  20.566  0.00  0.00    +0.000 A 
ATOM     25  C   UNL     1       2.083   7.385  20.024  0.00  0.00    +0.000 A 
ATOM     26  C   UNL     1       2.429   7.423  18.676  0.00  0.00    +0.000 A 
ATOM     27  C   UNL     1       2.025   8.506  17.901  0.00  0.00    +0.000 A 
ATOM     28  C   UNL     1       1.177   9.482  18.435  0.00  0.00    +0.000 A 
BRANCH  26  29
ATOM     29  O   UNL     1       3.225   6.403  18.257  0.00  0.00    +0.000 OA
BRANCH  29  30
ATOM     30  C   UNL     1       2.629   5.139  17.992  0.00  0.00    +0.000 C 
ATOM     31  F   UNL     1       3.272   4.391  17.072  0.00  0.00    +0.000 F 
ATOM     32  F   UNL     1       2.570   4.441  19.147  0.00  0.00    +0.000 F 
ATOM     33  F   UNL     1       1.364   5.337  17.555  0.00  0.00    +0.000 F 
ENDBRANCH  29  30
ENDBRANCH  26  29
ENDBRANCH  22  23
ENDBRANCH   3  22
TORSDOF 7
ENDMDL
MODEL 3
REMARK VINA RESULT:      -6.8      7.719     10.508
REMARK  Name = 
REMARK  7 active torsions:
REMARK  status: ('A' for Active; 'I' for Inactive)
REMARK    1  A    between atoms: C_2  and  C_3
REMARK    2  A    between atoms: N_9  and  C_10
REMARK    3  A    between atoms: N_9  and  C_22
REMARK    4  A    between atoms: C_10  and  C_11
REMARK    5  A    between atoms: C_14  and  O_15
REMARK    6  A    between atoms: O_15  and  C_16
REMARK    7  A    between atoms: C_27  and  N_28
REMARK                            x       y       z     vdW  Elec       q    Type
REMARK                         _______ _______ _______ _____ _____    ______ ____
ROOT
ATOM      1  O   UNL     1       5.215   4.138  18.895  0.00  0.00    +0.000 OA
ATOM      2  C   UNL     1       4.139   4.720  18.998  0.00  0.00    +0.000 C 
ATOM      3  N   UNL     1       3.892   5.979  18.395  0.00  0.00    +0.000 N 
ENDROOT
BRANCH   3   4
ATOM      4  C   UNL     1       2.539   6.608  18.216  0.00  0.00    +0.000 C 
ATOM      5  C   UNL     1       2.505   7.962  17.455  0.00  0.00    +0.000 C 
ATOM      6  O   UNL     1       2.226   9.170  18.167  0.00  0.00    +0.000 OA
ATOM      7  C   UNL     1       1.653   9.092  19.357  0.00  0.00    +0.000 A 
ATOM      8  N   UNL     1       1.296  10.132  20.067  0.00  0.00    +0.000 NA
ATOM      9  C   UNL     1       0.823   9.605  21.259  0.00  0.00    +0.000 A 
ATOM     10  C   UNL     1       0.892   8.231  21.247  0.00  0.00    +0.000 A 
ATOM     11  N   UNL     1       1.428   7.936  20.029  0.00  0.00    +0.000 N 
ATOM     12  C   UNL     1       1.741   6.631  19.529  0.00  0.00    +0.000 C 
BRANCH   9  13
ATOM     13  N   UNL     1       0.368  10.445  22.338  0.00  0.00    +0.000 N 
ATOM     14  O   UNL     1       0.337   9.915  23.472  0.00  0.00    +0.000 OA
ATOM     15  O   UNL     1       0.047  11.606  22.090  0.00  0.00    +0.000 OA
ENDBRANCH   9  13
ENDBRANCH   3   4
BRANCH   2  16
ATOM     16  C   UNL     1       3.086   4.021  19.784  0.00  0.00    +0.000 A 
ATOM     17  C   UNL     1       3.070   4.103  21.176  0.00  0.00    +0.000 A 
ATOM     18  C   UNL     1       2.120   3.419  21.928  0.00  0.00    +0.000 A 
ATOM     19  C   UNL     1       1.227   2.565  21.295  0.00  0.00    +0.000 A 
ATOM     20  C   UNL     1       1.271   2.417  19.907  0.00  0.00    +0.000 A 
ATOM     21  C   UNL     1       2.191   3.151  19.147  0.00  0.00    +0.000 A 
ENDBRANCH   2  16
BRANCH   3  22
ATOM     22  C   UNL     1       5.059   6.625  17.777  0.00  0.00    +0.000 C 
BRANCH  22  23
ATOM     23  C   UNL     1       5.651   5.877  16.597  0.00  0.00    +0.000 A 
ATOM     24  C   UNL     1       7.032   5.683  16.431  0.00  0.00    +0.000 A 
ATOM     25  C   UNL     1       7.530   4.925  15.374  0.00  0.00    +0.000 A 
ATOM     26  C   UNL     1       6.658   4.349  14.453  0.00  0.00    +0.000 A 
ATOM     27  C   UNL     1       5.296   4.619  14.546  0.00  0.00    +0.000 A 
ATOM     28  C   UNL     1       4.791   5.356  15.621  0.00  0.00    +0.000 A 
BRANCH  26  29
ATOM     29  O   UNL     1       7.256   3.621  13.472  0.00  0.00    +0.000 OA
BRANCH  29  30
ATOM     30  C   UNL     1       6.909   3.886  12.119  0.00  0.00    +0.000 C 
ATOM     31  F   UNL     1       7.291   5.097  11.663  0.00  0.00    +0.000 F 
ATOM     32  F   UNL     1       7.471   2.939  11.337  0.00  0.00    +0.000 F 
ATOM     33  F   UNL     1       5.566   3.799  11.988  0.00  0.00    +0.000 F 
ENDBRANCH  29  30
ENDBRANCH  26  29
ENDBRANCH  22  23
ENDBRANCH   3  22
TORSDOF 7
ENDMDL
MODEL 4
REMARK VINA RESULT:      -6.7      7.752     10.595
REMARK  Name = 
REMARK  7 active torsions:
REMARK  status: ('A' for Active; 'I' for Inactive)
REMARK    1  A    between atoms: C_2  and  C_3
REMARK    2  A    between atoms: N_9  and  C_10
REMARK    3  A    between atoms: N_9  and  C_22
REMARK    4  A    between atoms: C_10  and  C_11
REMARK    5  A    between atoms: C_14  and  O_15
REMARK    6  A    between atoms: O_15  and  C_16
REMARK    7  A    between atoms: C_27  and  N_28
REMARK                            x       y       z     vdW  Elec       q    Type
REMARK                         _______ _______ _______ _____ _____    ______ ____
ROOT
ATOM      1  O   UNL     1       5.355   3.964  19.099  0.00  0.00    +0.000 OA
ATOM      2  C   UNL     1       4.279   4.555  19.139  0.00  0.00    +0.000 C 
ATOM      3  N   UNL     1       4.079   5.816  18.524  0.00  0.00    +0.000 N 
ENDROOT
BRANCH   3   4
ATOM      4  C   UNL     1       2.744   6.457  18.267  0.00  0.00    +0.000 C 
ATOM      5  C   UNL     1       2.761   7.784  17.459  0.00  0.00    +0.000 C 
ATOM      6  O   UNL     1       2.471   9.020  18.116  0.00  0.00    +0.000 OA
ATOM      7  C   UNL     1       1.848   8.991  19.283  0.00  0.00    +0.000 A 
ATOM      8  N   UNL     1       1.477  10.060  19.941  0.00  0.00    +0.000 NA
ATOM      9  C   UNL     1       0.947   9.582  21.130  0.00  0.00    +0.000 A 
ATOM     10  C   UNL     1       0.996   8.208  21.167  0.00  0.00    +0.000 A 
ATOM     11  N   UNL     1       1.578   7.862  19.984  0.00  0.00    +0.000 N 
ATOM     12  C   UNL     1       1.892   6.536  19.543  0.00  0.00    +0.000 C 
BRANCH   9  13
ATOM     13  N   UNL     1       0.460  10.465  22.159  0.00  0.00    +0.000 N 
ATOM     14  O   UNL     1       0.362  11.673  21.846  0.00  0.00    +0.000 OA
ATOM     15  O   UNL     1       0.174   9.993  23.258  0.00  0.00    +0.000 OA
ENDBRANCH   9  13
ENDBRANCH   3   4
BRANCH   2  16
ATOM     16  C   UNL     1       3.176   3.865  19.862  0.00  0.00    +0.000 A 
ATOM     17  C   UNL     1       3.054   3.982  21.246  0.00  0.00    +0.000 A 
ATOM     18  C   UNL     1       2.057   3.306  21.941  0.00  0.00    +0.000 A 
ATOM     19  C   UNL     1       1.222   2.427  21.265  0.00  0.00    +0.000 A 
ATOM     20  C   UNL     1       1.372   2.244  19.889  0.00  0.00    +0.000 A 
ATOM     21  C   UNL     1       2.340   2.969  19.182  0.00  0.00    +0.000 A 
ENDBRANCH   2  16
BRANCH   3  22
ATOM     22  C   UNL     1       5.285   6.454  17.976  0.00  0.00    +0.000 C 
BRANCH  22  23
ATOM     23  C   UNL     1       5.780   5.862  16.669  0.00  0.00    +0.000 A 
ATOM     24  C   UNL     1       4.918   5.502  15.619  0.00  0.00    +0.000 A 
ATOM     25  C   UNL     1       5.418   5.034  14.407  0.00  0.00    +0.000 A 
ATOM     26  C   UNL     1       6.792   4.906  14.218  0.00  0.00    +0.000 A 
ATOM     27  C   UNL     1       7.651   5.161  15.283  0.00  0.00    +0.000 A 
ATOM     28  C   UNL     1       7.154   5.658  16.492  0.00  0.00    +0.000 A 
BRANCH  26  29
ATOM     29  O   UNL     1       7.164   4.452  12.991  0.00  0.00    +0.000 OA
BRANCH  29  30
ATOM     30  C   UNL     1       6.398   3.417  12.387  0.00  0.00    +0.000 C 
ATOM     31  F   UNL     1       5.797   2.577  13.254  0.00  0.00    +0.000 F 
ATOM     32  F   UNL     1       5.448   3.984  11.611  0.00  0.00    +0.000 F 
ATOM     33  F   UNL     1       7.209   2.682  11.592  0.00  0.00    +0.000 F 
ENDBRANCH  29  30
ENDBRANCH  26  29
ENDBRANCH  22  23
ENDBRANCH   3  22
TORSDOF 7
ENDMDL
MODEL 5
REMARK VINA RESULT:      -6.7      0.734      1.122
REMARK  Name = 
REMARK  7 active torsions:
REMARK  status: ('A' for Active; 'I' for Inactive)
REMARK    1  A    between atoms: C_2  and  C_3
REMARK    2  A    between atoms: N_9  and  C_10
REMARK    3  A    between atoms: N_9  and  C_22
REMARK    4  A    between atoms: C_10  and  C_11
REMARK    5  A    between atoms: C_14  and  O_15
REMARK    6  A    between atoms: O_15  and  C_16
REMARK    7  A    between atoms: C_27  and  N_28
REMARK                            x       y       z     vdW  Elec       q    Type
REMARK                         _______ _______ _______ _____ _____    ______ ____
ROOT
ATOM      1  O   UNL     1       1.815  12.388  19.133  0.00  0.00    +0.000 OA
ATOM      2  C   UNL     1       1.060  13.143  19.739  0.00  0.00    +0.000 C 
ATOM      3  N   UNL     1      -0.023  12.670  20.523  0.00  0.00    +0.000 N 
ENDROOT
BRANCH   3   4
ATOM      4  C   UNL     1      -0.795  13.485  21.522  0.00  0.00    +0.000 C 
ATOM      5  C   UNL     1      -0.953  12.868  22.939  0.00  0.00    +0.000 C 
ATOM      6  O   UNL     1      -2.228  12.380  23.363  0.00  0.00    +0.000 OA
ATOM      7  C   UNL     1      -3.311  12.777  22.715  0.00  0.00    +0.000 A 
ATOM      8  N   UNL     1      -4.531  12.446  23.055  0.00  0.00    +0.000 NA
ATOM      9  C   UNL     1      -5.339  12.999  22.074  0.00  0.00    +0.000 A 
ATOM     10  C   UNL     1      -4.583  13.678  21.146  0.00  0.00    +0.000 A 
ATOM     11  N   UNL     1      -3.300  13.515  21.577  0.00  0.00    +0.000 N 
ATOM     12  C   UNL     1      -2.117  14.004  20.936  0.00  0.00    +0.000 C 
BRANCH   9  13
ATOM     13  N   UNL     1      -6.768  12.817  22.070  0.00  0.00    +0.000 N 
ATOM     14  O   UNL     1      -7.439  13.720  22.620  0.00  0.00    +0.000 OA
ATOM     15  O   UNL     1      -7.236  11.813  21.537  0.00  0.00    +0.000 OA
ENDBRANCH   9  13
ENDBRANCH   3   4
BRANCH   2  16
ATOM     16  C   UNL     1       1.351  14.597  19.622  0.00  0.00    +0.000 A 
ATOM     17  C   UNL     1       2.300  15.198  20.448  0.00  0.00    +0.000 A 
ATOM     18  C   UNL     1       2.549  16.565  20.384  0.00  0.00    +0.000 A 
ATOM     19  C   UNL     1       1.780  17.367  19.551  0.00  0.00    +0.000 A 
ATOM     20  C   UNL     1       0.778  16.793  18.766  0.00  0.00    +0.000 A 
ATOM     21  C   UNL     1       0.567  15.408  18.790  0.00  0.00    +0.000 A 
ENDBRANCH   2  16
BRANCH   3  22
ATOM     22  C   UNL     1      -0.289  11.227  20.432  0.00  0.00    +0.000 C 
BRANCH  22  23
ATOM     23  C   UNL     1      -1.077  10.801  19.207  0.00  0.00    +0.000 A 
ATOM     24  C   UNL     1      -0.515  10.049  18.161  0.00  0.00    +0.000 A 
ATOM     25  C   UNL     1      -1.293   9.614  17.091  0.00  0.00    +0.000 A 
ATOM     26  C   UNL     1      -2.649   9.926  17.036  0.00  0.00    +0.000 A 
ATOM     27  C   UNL     1      -3.194  10.756  18.011  0.00  0.00    +0.000 A 
ATOM     28  C   UNL     1      -2.423  11.172  19.101  0.00  0.00    +0.000 A 
BRANCH  26  29
ATOM     29  O   UNL     1      -3.309   9.437  15.952  0.00  0.00    +0.000 OA
BRANCH  29  30
ATOM     30  C   UNL     1      -3.310  10.203  14.754  0.00  0.00    +0.000 C 
ATOM     31  F   UNL     1      -2.368   9.850  13.855  0.00  0.00    +0.000 F 
ATOM     32  F   UNL     1      -4.523  10.086  14.170  0.00  0.00    +0.000 F 
ATOM     33  F   UNL     1      -3.117  11.504  15.067  0.00  0.00    +0.000 F 
ENDBRANCH  29  30
ENDBRANCH  26  29
ENDBRANCH  22  23
ENDBRANCH   3  22
TORSDOF 7
ENDMDL
MODEL 6
REMARK VINA RESULT:      -6.5      7.978     11.135
REMARK  Name = 
REMARK  7 active torsions:
REMARK  status: ('A' for Active; 'I' for Inactive)
REMARK    1  A    between atoms: C_2  and  C_3
REMARK    2  A    between atoms: N_9  and  C_10
REMARK    3  A    between atoms: N_9  and  C_22
REMARK    4  A    between atoms: C_10  and  C_11
REMARK    5  A    between atoms: C_14  and  O_15
REMARK    6  A    between atoms: O_15  and  C_16
REMARK    7  A    between atoms: C_27  and  N_28
REMARK                            x       y       z     vdW  Elec       q    Type
REMARK                         _______ _______ _______ _____ _____    ______ ____
ROOT
ATOM      1  O   UNL     1      10.266  14.122  21.646  0.00  0.00    +0.000 OA
ATOM      2  C   UNL     1       9.654  14.240  20.589  0.00  0.00    +0.000 C 
ATOM      3  N   UNL     1       8.607  15.181  20.416  0.00  0.00    +0.000 N 
ENDROOT
BRANCH   3   4
ATOM      4  C   UNL     1       8.020  15.597  19.096  0.00  0.00    +0.000 C 
ATOM      5  C   UNL     1       7.789  17.120  18.895  0.00  0.00    +0.000 C 
ATOM      6  O   UNL     1       6.458  17.641  18.885  0.00  0.00    +0.000 OA
ATOM      7  C   UNL     1       5.448  16.809  18.683  0.00  0.00    +0.000 A 
ATOM      8  N   UNL     1       4.198  17.185  18.591  0.00  0.00    +0.000 NA
ATOM      9  C   UNL     1       3.479  16.006  18.466  0.00  0.00    +0.000 A 
ATOM     10  C   UNL     1       4.321  14.919  18.474  0.00  0.00    +0.000 A 
ATOM     11  N   UNL     1       5.564  15.460  18.618  0.00  0.00    +0.000 N 
ATOM     12  C   UNL     1       6.800  14.743  18.718  0.00  0.00    +0.000 C 
BRANCH   9  13
ATOM     13  N   UNL     1       2.041  15.994  18.381  0.00  0.00    +0.000 N 
ATOM     14  O   UNL     1       1.502  17.067  18.024  0.00  0.00    +0.000 OA
ATOM     15  O   UNL     1       1.440  14.957  18.655  0.00  0.00    +0.000 OA
ENDBRANCH   9  13
ENDBRANCH   3   4
BRANCH   2  16
ATOM     16  C   UNL     1      10.081  13.348  19.477  0.00  0.00    +0.000 A 
ATOM     17  C   UNL     1       9.461  12.115  19.282  0.00  0.00    +0.000 A 
ATOM     18  C   UNL     1       9.879  11.249  18.276  0.00  0.00    +0.000 A 
ATOM     19  C   UNL     1      10.991  11.570  17.510  0.00  0.00    +0.000 A 
ATOM     20  C   UNL     1      11.667  12.771  17.736  0.00  0.00    +0.000 A 
ATOM     21  C   UNL     1      11.210  13.667  18.711  0.00  0.00    +0.000 A 
ENDBRANCH   2  16
BRANCH   3  22
ATOM     22  C   UNL     1       8.185  15.891  21.631  0.00  0.00    +0.000 C 
BRANCH  22  23
ATOM     23  C   UNL     1       7.399  15.051  22.620  0.00  0.00    +0.000 A 
ATOM     24  C   UNL     1       6.310  14.246  22.242  0.00  0.00    +0.000 A 
ATOM     25  C   UNL     1       5.664  13.431  23.168  0.00  0.00    +0.000 A 
ATOM     26  C   UNL     1       6.085  13.406  24.495  0.00  0.00    +0.000 A 
ATOM     27  C   UNL     1       7.093  14.273  24.904  0.00  0.00    +0.000 A 
ATOM     28  C   UNL     1       7.763  15.072  23.972  0.00  0.00    +0.000 A 
BRANCH  26  29
ATOM     29  O   UNL     1       5.387  12.564  25.304  0.00  0.00    +0.000 OA
BRANCH  29  30
ATOM     30  C   UNL     1       5.825  11.217  25.424  0.00  0.00    +0.000 C 
ATOM     31  F   UNL     1       4.978  10.298  24.917  0.00  0.00    +0.000 F 
ATOM     32  F   UNL     1       7.015  11.094  24.795  0.00  0.00    +0.000 F 
ATOM     33  F   UNL     1       6.009  10.932  26.733  0.00  0.00    +0.000 F 
ENDBRANCH  29  30
ENDBRANCH  26  29
ENDBRANCH  22  23
ENDBRANCH   3  22
TORSDOF 7
ENDMDL
MODEL 7
REMARK VINA RESULT:      -6.5      3.763      4.477
REMARK  Name = 
REMARK  7 active torsions:
REMARK  status: ('A' for Active; 'I' for Inactive)
REMARK    1  A    between atoms: C_2  and  C_3
REMARK    2  A    between atoms: N_9  and  C_10
REMARK    3  A    between atoms: N_9  and  C_22
REMARK    4  A    between atoms: C_10  and  C_11
REMARK    5  A    between atoms: C_14  and  O_15
REMARK    6  A    between atoms: O_15  and  C_16
REMARK    7  A    between atoms: C_27  and  N_28
REMARK                            x       y       z     vdW  Elec       q    Type
REMARK                         _______ _______ _______ _____ _____    ______ ____
ROOT
ATOM      1  O   UNL     1       2.553  11.937  17.870  0.00  0.00    +0.000 OA
ATOM      2  C   UNL     1       2.010  12.735  18.629  0.00  0.00    +0.000 C 
ATOM      3  N   UNL     1       0.734  12.496  19.200  0.00  0.00    +0.000 N 
ENDROOT
BRANCH   3   4
ATOM      4  C   UNL     1       0.139  13.257  20.351  0.00  0.00    +0.000 C 
ATOM      5  C   UNL     1       0.179  12.553  21.736  0.00  0.00    +0.000 C 
ATOM      6  O   UNL     1      -1.031  12.059  22.316  0.00  0.00    +0.000 OA
ATOM      7  C   UNL     1      -2.188  12.513  21.862  0.00  0.00    +0.000 A 
ATOM      8  N   UNL     1      -3.352  12.179  22.361  0.00  0.00    +0.000 NA
ATOM      9  C   UNL     1      -4.282  12.807  21.548  0.00  0.00    +0.000 A 
ATOM     10  C   UNL     1      -3.656  13.533  20.561  0.00  0.00    +0.000 A 
ATOM     11  N   UNL     1      -2.328  13.322  20.784  0.00  0.00    +0.000 N 
ATOM     12  C   UNL     1      -1.241  13.833  20.003  0.00  0.00    +0.000 C 
BRANCH   9  13
ATOM     13  N   UNL     1      -5.700  12.648  21.747  0.00  0.00    +0.000 N 
ATOM     14  O   UNL     1      -6.215  11.625  21.241  0.00  0.00    +0.000 OA
ATOM     15  O   UNL     1      -6.309  13.504  22.387  0.00  0.00    +0.000 OA
ENDBRANCH   9  13
ENDBRANCH   3   4
BRANCH   2  16
ATOM     16  C   UNL     1       2.773  13.974  18.938  0.00  0.00    +0.000 A 
ATOM     17  C   UNL     1       3.343  14.160  20.197  0.00  0.00    +0.000 A 
ATOM     18  C   UNL     1       4.019  15.333  20.517  0.00  0.00    +0.000 A 
ATOM     19  C   UNL     1       4.053  16.378  19.604  0.00  0.00    +0.000 A 
ATOM     20  C   UNL     1       3.430  16.237  18.363  0.00  0.00    +0.000 A 
ATOM     21  C   UNL     1       2.798  15.034  18.021  0.00  0.00    +0.000 A 
ENDBRANCH   2  16
BRANCH   3  22
ATOM     22  C   UNL     1       0.026  11.310  18.697  0.00  0.00    +0.000 C 
BRANCH  22  23
ATOM     23  C   UNL     1       0.725   9.990  18.966  0.00  0.00    +0.000 A 
ATOM     24  C   UNL     1       1.289   9.203  17.947  0.00  0.00    +0.000 A 
ATOM     25  C   UNL     1       1.988   8.036  18.245  0.00  0.00    +0.000 A 
ATOM     26  C   UNL     1       2.133   7.623  19.567  0.00  0.00    +0.000 A 
ATOM     27  C   UNL     1       1.492   8.336  20.576  0.00  0.00    +0.000 A 
ATOM     28  C   UNL     1       0.813   9.523  20.283  0.00  0.00    +0.000 A 
BRANCH  26  29
ATOM     29  O   UNL     1       2.845   6.476  19.737  0.00  0.00    +0.000 OA
BRANCH  29  30
ATOM     30  C   UNL     1       2.138   5.256  19.919  0.00  0.00    +0.000 C 
ATOM     31  F   UNL     1       1.086   5.331  20.761  0.00  0.00    +0.000 F 
ATOM     32  F   UNL     1       1.693   4.834  18.715  0.00  0.00    +0.000 F 
ATOM     33  F   UNL     1       2.991   4.325  20.404  0.00  0.00    +0.000 F 
ENDBRANCH  29  30
ENDBRANCH  26  29
ENDBRANCH  22  23
ENDBRANCH   3  22
TORSDOF 7
ENDMDL
MODEL 8
REMARK VINA RESULT:      -6.5      3.327      3.924
REMARK  Name = 
REMARK  7 active torsions:
REMARK  status: ('A' for Active; 'I' for Inactive)
REMARK    1  A    between atoms: C_2  and  C_3
REMARK    2  A    between atoms: N_9  and  C_10
REMARK    3  A    between atoms: N_9  and  C_22
REMARK    4  A    between atoms: C_10  and  C_11
REMARK    5  A    between atoms: C_14  and  O_15
REMARK    6  A    between atoms: O_15  and  C_16
REMARK    7  A    between atoms: C_27  and  N_28
REMARK                            x       y       z     vdW  Elec       q    Type
REMARK                         _______ _______ _______ _____ _____    ______ ____
ROOT
ATOM      1  O   UNL     1       0.402  12.633  18.104  0.00  0.00    +0.000 OA
ATOM      2  C   UNL     1       0.015  13.217  19.112  0.00  0.00    +0.000 C 
ATOM      3  N   UNL     1      -0.758  12.576  20.114  0.00  0.00    +0.000 N 
ENDROOT
BRANCH   3   4
ATOM      4  C   UNL     1      -1.011  13.114  21.494  0.00  0.00    +0.000 C 
ATOM      5  C   UNL     1      -0.845  12.108  22.666  0.00  0.00    +0.000 C 
ATOM      6  O   UNL     1      -1.998  11.640  23.369  0.00  0.00    +0.000 OA
ATOM      7  C   UNL     1      -3.128  12.321  23.268  0.00  0.00    +0.000 A 
ATOM      8  N   UNL     1      -4.225  12.021  23.916  0.00  0.00    +0.000 NA
ATOM      9  C   UNL     1      -5.169  12.927  23.459  0.00  0.00    +0.000 A 
ATOM     10  C   UNL     1      -4.617  13.783  22.534  0.00  0.00    +0.000 A 
ATOM     11  N   UNL     1      -3.322  13.370  22.430  0.00  0.00    +0.000 N 
ATOM     12  C   UNL     1      -2.320  13.915  21.564  0.00  0.00    +0.000 C 
BRANCH   9  13
ATOM     13  N   UNL     1      -6.537  12.896  23.909  0.00  0.00    +0.000 N 
ATOM     14  O   UNL     1      -7.048  11.760  24.041  0.00  0.00    +0.000 OA
ATOM     15  O   UNL     1      -7.111  13.960  24.135  0.00  0.00    +0.000 OA
ENDBRANCH   9  13
ENDBRANCH   3   4
BRANCH   2  16
ATOM     16  C   UNL     1       0.416  14.644  19.242  0.00  0.00    +0.000 A 
ATOM     17  C   UNL     1      -0.416  15.658  18.771  0.00  0.00    +0.000 A 
ATOM     18  C   UNL     1      -0.035  16.995  18.842  0.00  0.00    +0.000 A 
ATOM     19  C   UNL     1       1.231  17.325  19.305  0.00  0.00    +0.000 A 
ATOM     20  C   UNL     1       2.105  16.318  19.719  0.00  0.00    +0.000 A 
ATOM     21  C   UNL     1       1.698  14.977  19.699  0.00  0.00    +0.000 A 
ENDBRANCH   2  16
BRANCH   3  22
ATOM     22  C   UNL     1      -1.210  11.215  19.792  0.00  0.00    +0.000 C 
BRANCH  22  23
ATOM     23  C   UNL     1      -0.132  10.150  19.874  0.00  0.00    +0.000 A 
ATOM     24  C   UNL     1       0.219   9.510  21.075  0.00  0.00    +0.000 A 
ATOM     25  C   UNL     1       1.160   8.484  21.094  0.00  0.00    +0.000 A 
ATOM     26  C   UNL     1       1.778   8.078  19.914  0.00  0.00    +0.000 A 
ATOM     27  C   UNL     1       1.516   8.771  18.736  0.00  0.00    +0.000 A 
ATOM     28  C   UNL     1       0.551   9.783  18.709  0.00  0.00    +0.000 A 
BRANCH  26  29
ATOM     29  O   UNL     1       2.669   7.059  20.052  0.00  0.00    +0.000 OA
BRANCH  29  30
ATOM     30  C   UNL     1       2.236   5.733  19.775  0.00  0.00    +0.000 C 
ATOM     31  F   UNL     1       3.171   4.780  19.966  0.00  0.00    +0.000 F 
ATOM     32  F   UNL     1       1.175   5.455  20.563  0.00  0.00    +0.000 F 
ATOM     33  F   UNL     1       1.833   5.667  18.486  0.00  0.00    +0.000 F 
ENDBRANCH  29  30
ENDBRANCH  26  29
ENDBRANCH  22  23
ENDBRANCH   3  22
TORSDOF 7
ENDMDL
MODEL 9
REMARK VINA RESULT:      -6.4      3.907      4.738
REMARK  Name = 
REMARK  7 active torsions:
REMARK  status: ('A' for Active; 'I' for Inactive)
REMARK    1  A    between atoms: C_2  and  C_3
REMARK    2  A    between atoms: N_9  and  C_10
REMARK    3  A    between atoms: N_9  and  C_22
REMARK    4  A    between atoms: C_10  and  C_11
REMARK    5  A    between atoms: C_14  and  O_15
REMARK    6  A    between atoms: O_15  and  C_16
REMARK    7  A    between atoms: C_27  and  N_28
REMARK                            x       y       z     vdW  Elec       q    Type
REMARK                         _______ _______ _______ _____ _____    ______ ____
ROOT
ATOM      1  O   UNL     1       2.312  11.941  21.122  0.00  0.00    +0.000 OA
ATOM      2  C   UNL     1       1.596  12.544  20.327  0.00  0.00    +0.000 C 
ATOM      3  N   UNL     1       0.324  12.060  19.927  0.00  0.00    +0.000 N 
ENDROOT
BRANCH   3   4
ATOM      4  C   UNL     1      -0.727  12.861  19.212  0.00  0.00    +0.000 C 
ATOM      5  C   UNL     1      -1.562  13.837  20.086  0.00  0.00    +0.000 C 
ATOM      6  O   UNL     1      -2.934  13.546  20.363  0.00  0.00    +0.000 OA
ATOM      7  C   UNL     1      -3.568  12.671  19.599  0.00  0.00    +0.000 A 
ATOM      8  N   UNL     1      -4.838  12.377  19.721  0.00  0.00    +0.000 NA
ATOM      9  C   UNL     1      -5.062  11.373  18.792  0.00  0.00    +0.000 A 
ATOM     10  C   UNL     1      -3.908  11.078  18.104  0.00  0.00    +0.000 A 
ATOM     11  N   UNL     1      -2.976  11.915  18.641  0.00  0.00    +0.000 N 
ATOM     12  C   UNL     1      -1.589  11.982  18.293  0.00  0.00    +0.000 C 
BRANCH   9  13
ATOM     13  N   UNL     1      -6.349  10.742  18.647  0.00  0.00    +0.000 N 
ATOM     14  O   UNL     1      -6.435   9.565  19.067  0.00  0.00    +0.000 OA
ATOM     15  O   UNL     1      -7.267  11.379  18.134  0.00  0.00    +0.000 OA
ENDBRANCH   9  13
ENDBRANCH   3   4
BRANCH   2  16
ATOM     16  C   UNL     1       2.127  13.834  19.810  0.00  0.00    +0.000 A 
ATOM     17  C   UNL     1       2.720  13.901  18.549  0.00  0.00    +0.000 A 
ATOM     18  C   UNL     1       3.263  15.088  18.070  0.00  0.00    +0.000 A 
ATOM     19  C   UNL     1       3.302  16.207  18.890  0.00  0.00    +0.000 A 
ATOM     20  C   UNL     1       2.774  16.141  20.182  0.00  0.00    +0.000 A 
ATOM     21  C   UNL     1       2.177  14.960  20.641  0.00  0.00    +0.000 A 
ENDBRANCH   2  16
BRANCH   3  22
ATOM     22  C   UNL     1      -0.014  10.707  20.394  0.00  0.00    +0.000 C 
BRANCH  22  23
ATOM     23  C   UNL     1       0.802   9.594  19.763  0.00  0.00    +0.000 A 
ATOM     24  C   UNL     1       1.328   8.520  20.501  0.00  0.00    +0.000 A 
ATOM     25  C   UNL     1       2.006   7.479  19.872  0.00  0.00    +0.000 A 
ATOM     26  C   UNL     1       2.181   7.490  18.490  0.00  0.00    +0.000 A 
ATOM     27  C   UNL     1       1.756   8.596  17.760  0.00  0.00    +0.000 A 
ATOM     28  C   UNL     1       1.050   9.629  18.385  0.00  0.00    +0.000 A 
BRANCH  26  29
ATOM     29  O   UNL     1       2.846   6.416  17.986  0.00  0.00    +0.000 OA
BRANCH  29  30
ATOM     30  C   UNL     1       4.237   6.542  17.717  0.00  0.00    +0.000 C 
ATOM     31  F   UNL     1       5.044   5.928  18.606  0.00  0.00    +0.000 F 
ATOM     32  F   UNL     1       4.485   6.032  16.491  0.00  0.00    +0.000 F 
ATOM     33  F   UNL     1       4.561   7.855  17.701  0.00  0.00    +0.000 F 
ENDBRANCH  29  30
ENDBRANCH  26  29
ENDBRANCH  22  23
ENDBRANCH   3  22
TORSDOF 7
ENDMDL
