MODEL 1
REMARK VINA RESULT:      -6.9      0.000      0.000
REMARK  Name = 
REMARK  13 active torsions:
REMARK  status: ('A' for Active; 'I' for Inactive)
REMARK    1  A    between atoms: S_2  and  O_4
REMARK    2  A    between atoms: S_2  and  O_5
REMARK    3  A    between atoms: O_5  and  C_6
REMARK    4  A    between atoms: C_6  and  C_7
REMARK    5  A    between atoms: C_11  and  O_12
REMARK    6  A    between atoms: O_12  and  C_13
REMARK    7  A    between atoms: C_13  and  C_14
REMARK    8  A    between atoms: C_14  and  C_15
REMARK    9  A    between atoms: C_15  and  O_16
REMARK   10  A    between atoms: O_16  and  C_17
REMARK   11  A    between atoms: C_23  and  O_24
REMARK   12  A    between atoms: O_24  and  S_25
REMARK   13  A    between atoms: S_25  and  O_28
REMARK                            x       y       z     vdW  Elec       q    Type
REMARK                         _______ _______ _______ _____ _____    ______ ____
ROOT
ATOM      1  C   UNL     1       3.815   4.564  17.861  0.00  0.00    +0.000 C 
ATOM      2  O   UNL     1       4.530   3.713  18.782  0.00  0.00    +0.000 OA
ATOM      3  C   UNL     1       5.357   4.435  19.691  0.00  0.00    +0.000 C 
ATOM      4  C   UNL     1       6.394   5.268  18.951  0.00  0.00    +0.000 C 
ATOM      5  C   UNL     1       5.679   6.214  17.982  0.00  0.00    +0.000 C 
ATOM      6  C   UNL     1       4.820   5.375  17.007  0.00  0.00    +0.000 C 
ENDROOT
BRANCH   1   7
ATOM      7  C   UNL     1       2.900   3.667  17.011  0.00  0.00    +0.000 C 
BRANCH   7   8
ATOM      8  O   UNL     1       1.582   3.669  17.563  0.00  0.00    +0.000 OA
BRANCH   8  10
ATOM      9  O   UNL     1       0.064   1.865  18.403  0.00  0.00    +0.000 OA
ATOM     10  S   UNL     1       1.265   2.602  18.735  0.00  0.00    +0.000 S 
ATOM     11  O   UNL     1       1.395   3.265  20.013  0.00  0.00    +0.000 OA
BRANCH  10  12
ATOM     12  O   UNL     1       2.483   1.553  18.639  0.00  0.00    +0.000 OA
ATOM     13  H   UNL     1       2.112   0.654  18.707  0.00  0.00    +0.000 HD
ENDBRANCH  10  12
ENDBRANCH   8  10
ENDBRANCH   7   8
ENDBRANCH   1   7
BRANCH   5  14
ATOM     14  O   UNL     1       6.542   7.038  17.206  0.00  0.00    +0.000 OA
BRANCH  14  15
ATOM     15  C   UNL     1       7.726   7.487  17.854  0.00  0.00    +0.000 C 
BRANCH  15  16
ATOM     16  C   UNL     1       7.843   8.998  17.680  0.00  0.00    +0.000 C 
BRANCH  16  17
ATOM     17  C   UNL     1       8.843   9.609  18.651  0.00  0.00    +0.000 C 
BRANCH  17  18
ATOM     18  O   UNL     1       9.589  10.608  17.950  0.00  0.00    +0.000 OA
BRANCH  18  19
ATOM     19  C   UNL     1      10.129  11.582  18.740  0.00  0.00    +0.000 A 
ATOM     20  C   UNL     1      11.045  12.430  18.116  0.00  0.00    +0.000 A 
ATOM     21  C   UNL     1      11.661  13.451  18.841  0.00  0.00    +0.000 A 
ATOM     22  C   UNL     1      11.338  13.643  20.184  0.00  0.00    +0.000 A 
ATOM     23  C   UNL     1      10.397  12.818  20.798  0.00  0.00    +0.000 A 
ATOM     24  C   UNL     1       9.796  11.788  20.078  0.00  0.00    +0.000 A 
ENDBRANCH  18  19
ENDBRANCH  17  18
ENDBRANCH  16  17
ENDBRANCH  15  16
ENDBRANCH  14  15
ENDBRANCH   5  14
BRANCH   6  25
ATOM     25  O   UNL     1       5.614   4.446  16.251  0.00  0.00    +0.000 OA
BRANCH  25  26
ATOM     26  S   UNL     1       6.181   4.823  14.770  0.00  0.00    +0.000 S 
ATOM     27  O   UNL     1       6.308   3.604  14.000  0.00  0.00    +0.000 OA
ATOM     28  O   UNL     1       5.537   6.012  14.265  0.00  0.00    +0.000 OA
BRANCH  26  29
ATOM     29  O   UNL     1       7.691   5.254  15.100  0.00  0.00    +0.000 OA
ATOM     30  H   UNL     1       8.135   4.482  15.503  0.00  0.00    +0.000 HD
ENDBRANCH  26  29
ENDBRANCH  25  26
ENDBRANCH   6  25
TORSDOF 13
ENDMDL
MODEL 2
REMARK VINA RESULT:      -6.9      5.204      7.339
REMARK  Name = 
REMARK  13 active torsions:
REMARK  status: ('A' for Active; 'I' for Inactive)
REMARK    1  A    between atoms: S_2  and  O_4
REMARK    2  A    between atoms: S_2  and  O_5
REMARK    3  A    between atoms: O_5  and  C_6
REMARK    4  A    between atoms: C_6  and  C_7
REMARK    5  A    between atoms: C_11  and  O_12
REMARK    6  A    between atoms: O_12  and  C_13
REMARK    7  A    between atoms: C_13  and  C_14
REMARK    8  A    between atoms: C_14  and  C_15
REMARK    9  A    between atoms: C_15  and  O_16
REMARK   10  A    between atoms: O_16  and  C_17
REMARK   11  A    between atoms: C_23  and  O_24
REMARK   12  A    between atoms: O_24  and  S_25
REMARK   13  A    between atoms: S_25  and  O_28
REMARK                            x       y       z     vdW  Elec       q    Type
REMARK                         _______ _______ _______ _____ _____    ______ ____
ROOT
ATOM      1  C   UNL     1       4.215   3.860  16.725  0.00  0.00    +0.000 C 
ATOM      2  O   UNL     1       3.549   2.871  17.538  0.00  0.00    +0.000 OA
ATOM      3  C   UNL     1       2.292   3.313  18.045  0.00  0.00    +0.000 C 
ATOM      4  C   UNL     1       2.449   4.563  18.898  0.00  0.00    +0.000 C 
ATOM      5  C   UNL     1       3.125   5.656  18.065  0.00  0.00    +0.000 C 
ATOM      6  C   UNL     1       4.491   5.132  17.566  0.00  0.00    +0.000 C 
ENDROOT
BRANCH   1   7
ATOM      7  C   UNL     1       5.501   3.222  16.174  0.00  0.00    +0.000 C 
BRANCH   7   8
ATOM      8  O   UNL     1       5.676   3.602  14.807  0.00  0.00    +0.000 OA
BRANCH   8  10
ATOM      9  O   UNL     1       7.086   4.725  13.071  0.00  0.00    +0.000 OA
ATOM     10  S   UNL     1       6.778   4.739  14.486  0.00  0.00    +0.000 S 
ATOM     11  O   UNL     1       7.831   4.656  15.472  0.00  0.00    +0.000 OA
BRANCH  10  12
ATOM     12  O   UNL     1       5.998   6.121  14.767  0.00  0.00    +0.000 OA
ATOM     13  H   UNL     1       6.116   6.347  15.708  0.00  0.00    +0.000 HD
ENDBRANCH  10  12
ENDBRANCH   8  10
ENDBRANCH   7   8
ENDBRANCH   1   7
BRANCH   5  14
ATOM     14  O   UNL     1       3.353   6.879  18.757  0.00  0.00    +0.000 OA
BRANCH  14  15
ATOM     15  C   UNL     1       2.193   7.634  19.090  0.00  0.00    +0.000 C 
BRANCH  15  16
ATOM     16  C   UNL     1       2.097   8.831  18.151  0.00  0.00    +0.000 C 
BRANCH  16  17
ATOM     17  C   UNL     1       1.284   9.967  18.756  0.00  0.00    +0.000 C 
BRANCH  17  18
ATOM     18  O   UNL     1       0.082   9.412  19.298  0.00  0.00    +0.000 OA
BRANCH  18  19
ATOM     19  C   UNL     1      -0.288   9.917  20.512  0.00  0.00    +0.000 A 
ATOM     20  C   UNL     1      -0.114   9.063  21.602  0.00  0.00    +0.000 A 
ATOM     21  C   UNL     1      -0.472   9.482  22.884  0.00  0.00    +0.000 A 
ATOM     22  C   UNL     1      -0.976  10.767  23.080  0.00  0.00    +0.000 A 
ATOM     23  C   UNL     1      -1.117  11.633  21.997  0.00  0.00    +0.000 A 
ATOM     24  C   UNL     1      -0.776  11.208  20.714  0.00  0.00    +0.000 A 
ENDBRANCH  18  19
ENDBRANCH  17  18
ENDBRANCH  16  17
ENDBRANCH  15  16
ENDBRANCH  14  15
ENDBRANCH   5  14
BRANCH   6  25
ATOM     25  O   UNL     1       5.360   4.769  18.651  0.00  0.00    +0.000 OA
BRANCH  25  26
ATOM     26  S   UNL     1       6.838   5.436  18.814  0.00  0.00    +0.000 S 
ATOM     27  O   UNL     1       6.935   6.570  17.920  0.00  0.00    +0.000 OA
ATOM     28  O   UNL     1       7.221   5.492  20.205  0.00  0.00    +0.000 OA
BRANCH  26  29
ATOM     29  O   UNL     1       7.776   4.315  18.150  0.00  0.00    +0.000 OA
ATOM     30  H   UNL     1       7.972   4.601  17.236  0.00  0.00    +0.000 HD
ENDBRANCH  26  29
ENDBRANCH  25  26
ENDBRANCH   6  25
TORSDOF 13
ENDMDL
MODEL 3
REMARK VINA RESULT:      -6.8      5.009      8.227
REMARK  Name = 
REMARK  13 active torsions:
REMARK  status: ('A' for Active; 'I' for Inactive)
REMARK    1  A    between atoms: S_2  and  O_4
REMARK    2  A    between atoms: S_2  and  O_5
REMARK    3  A    between atoms: O_5  and  C_6
REMARK    4  A    between atoms: C_6  and  C_7
REMARK    5  A    between atoms: C_11  and  O_12
REMARK    6  A    between atoms: O_12  and  C_13
REMARK    7  A    between atoms: C_13  and  C_14
REMARK    8  A    between atoms: C_14  and  C_15
REMARK    9  A    between atoms: C_15  and  O_16
REMARK   10  A    between atoms: O_16  and  C_17
REMARK   11  A    between atoms: C_23  and  O_24
REMARK   12  A    between atoms: O_24  and  S_25
REMARK   13  A    between atoms: S_25  and  O_28
REMARK                            x       y       z     vdW  Elec       q    Type
REMARK                         _______ _______ _______ _____ _____    ______ ____
ROOT
ATOM      1  C   UNL     1       4.554   5.929  18.764  0.00  0.00    +0.000 C 
ATOM      2  O   UNL     1       4.155   6.348  17.442  0.00  0.00    +0.000 OA
ATOM      3  C   UNL     1       3.424   7.572  17.436  0.00  0.00    +0.000 C 
ATOM      4  C   UNL     1       2.159   7.464  18.274  0.00  0.00    +0.000 C 
ATOM      5  C   UNL     1       2.536   7.052  19.700  0.00  0.00    +0.000 C 
ATOM      6  C   UNL     1       3.301   5.710  19.647  0.00  0.00    +0.000 C 
ENDROOT
BRANCH   1   7
ATOM      7  C   UNL     1       5.406   4.658  18.614  0.00  0.00    +0.000 C 
BRANCH   7   8
ATOM      8  O   UNL     1       5.797   4.502  17.249  0.00  0.00    +0.000 OA
BRANCH   8  10
ATOM      9  O   UNL     1       7.536   6.300  17.342  0.00  0.00    +0.000 OA
ATOM     10  S   UNL     1       7.293   4.961  16.846  0.00  0.00    +0.000 S 
ATOM     11  O   UNL     1       7.520   4.636  15.456  0.00  0.00    +0.000 OA
BRANCH  10  12
ATOM     12  O   UNL     1       8.240   3.980  17.705  0.00  0.00    +0.000 OA
ATOM     13  H   UNL     1       8.645   4.503  18.420  0.00  0.00    +0.000 HD
ENDBRANCH  10  12
ENDBRANCH   8  10
ENDBRANCH   7   8
ENDBRANCH   1   7
BRANCH   5  14
ATOM     14  O   UNL     1       1.434   6.893  20.587  0.00  0.00    +0.000 OA
BRANCH  14  15
ATOM     15  C   UNL     1       1.257   7.921  21.554  0.00  0.00    +0.000 C 
BRANCH  15  16
ATOM     16  C   UNL     1       0.148   8.857  21.083  0.00  0.00    +0.000 C 
BRANCH  16  17
ATOM     17  C   UNL     1       0.668  10.260  20.801  0.00  0.00    +0.000 C 
BRANCH  17  18
ATOM     18  O   UNL     1       0.712  10.440  19.383  0.00  0.00    +0.000 OA
BRANCH  18  19
ATOM     19  C   UNL     1      -0.502  10.642  18.791  0.00  0.00    +0.000 A 
ATOM     20  C   UNL     1      -1.268  11.683  19.319  0.00  0.00    +0.000 A 
ATOM     21  C   UNL     1      -2.529  11.962  18.790  0.00  0.00    +0.000 A 
ATOM     22  C   UNL     1      -3.012  11.220  17.713  0.00  0.00    +0.000 A 
ATOM     23  C   UNL     1      -2.232  10.204  17.163  0.00  0.00    +0.000 A 
ATOM     24  C   UNL     1      -0.981   9.914  17.703  0.00  0.00    +0.000 A 
ENDBRANCH  18  19
ENDBRANCH  17  18
ENDBRANCH  16  17
ENDBRANCH  15  16
ENDBRANCH  14  15
ENDBRANCH   5  14
BRANCH   6  25
ATOM     25  O   UNL     1       2.515   4.664  19.052  0.00  0.00    +0.000 OA
BRANCH  25  26
ATOM     26  S   UNL     1       1.944   3.422  19.940  0.00  0.00    +0.000 S 
ATOM     27  O   UNL     1       1.673   2.308  19.056  0.00  0.00    +0.000 OA
ATOM     28  O   UNL     1       2.687   3.291  21.170  0.00  0.00    +0.000 OA
BRANCH  26  29
ATOM     29  O   UNL     1       0.494   3.965  20.364  0.00  0.00    +0.000 OA
ATOM     30  H   UNL     1       0.363   3.745  21.307  0.00  0.00    +0.000 HD
ENDBRANCH  26  29
ENDBRANCH  25  26
ENDBRANCH   6  25
TORSDOF 13
ENDMDL
MODEL 4
REMARK VINA RESULT:      -6.8      5.007      8.046
REMARK  Name = 
REMARK  13 active torsions:
REMARK  status: ('A' for Active; 'I' for Inactive)
REMARK    1  A    between atoms: S_2  and  O_4
REMARK    2  A    between atoms: S_2  and  O_5
REMARK    3  A    between atoms: O_5  and  C_6
REMARK    4  A    between atoms: C_6  and  C_7
REMARK    5  A    between atoms: C_11  and  O_12
REMARK    6  A    between atoms: O_12  and  C_13
REMARK    7  A    between atoms: C_13  and  C_14
REMARK    8  A    between atoms: C_14  and  C_15
REMARK    9  A    between atoms: C_15  and  O_16
REMARK   10  A    between atoms: O_16  and  C_17
REMARK   11  A    between atoms: C_23  and  O_24
REMARK   12  A    between atoms: O_24  and  S_25
REMARK   13  A    between atoms: S_25  and  O_28
REMARK                            x       y       z     vdW  Elec       q    Type
REMARK                         _______ _______ _______ _____ _____    ______ ____
ROOT
ATOM      1  C   UNL     1       4.494   5.809  18.443  0.00  0.00    +0.000 C 
ATOM      2  O   UNL     1       4.027   6.532  17.285  0.00  0.00    +0.000 OA
ATOM      3  C   UNL     1       3.393   7.767  17.610  0.00  0.00    +0.000 C 
ATOM      4  C   UNL     1       2.192   7.549  18.518  0.00  0.00    +0.000 C 
ATOM      5  C   UNL     1       2.645   6.810  19.781  0.00  0.00    +0.000 C 
ATOM      6  C   UNL     1       3.299   5.471  19.369  0.00  0.00    +0.000 C 
ENDROOT
BRANCH   1   7
ATOM      7  C   UNL     1       5.232   4.555  17.945  0.00  0.00    +0.000 C 
BRANCH   7   8
ATOM      8  O   UNL     1       5.584   4.722  16.570  0.00  0.00    +0.000 OA
BRANCH   8  10
ATOM      9  O   UNL     1       7.406   6.437  16.613  0.00  0.00    +0.000 OA
ATOM     10  S   UNL     1       7.127   5.068  16.234  0.00  0.00    +0.000 S 
ATOM     11  O   UNL     1       7.429   4.594  14.902  0.00  0.00    +0.000 OA
BRANCH  10  12
ATOM     12  O   UNL     1       7.959   4.136  17.251  0.00  0.00    +0.000 OA
ATOM     13  H   UNL     1       7.424   3.345  17.440  0.00  0.00    +0.000 HD
ENDBRANCH  10  12
ENDBRANCH   8  10
ENDBRANCH   7   8
ENDBRANCH   1   7
BRANCH   5  14
ATOM     14  O   UNL     1       1.606   6.523  20.710  0.00  0.00    +0.000 OA
BRANCH  14  15
ATOM     15  C   UNL     1       0.668   7.567  20.941  0.00  0.00    +0.000 C 
BRANCH  15  16
ATOM     16  C   UNL     1       1.352   8.682  21.724  0.00  0.00    +0.000 C 
BRANCH  16  17
ATOM     17  C   UNL     1       0.469   9.916  21.850  0.00  0.00    +0.000 C 
BRANCH  17  18
ATOM     18  O   UNL     1       0.726  10.762  20.726  0.00  0.00    +0.000 OA
BRANCH  18  19
ATOM     19  C   UNL     1      -0.358  11.011  19.934  0.00  0.00    +0.000 A 
ATOM     20  C   UNL     1      -0.439  10.256  18.763  0.00  0.00    +0.000 A 
ATOM     21  C   UNL     1      -1.504  10.444  17.880  0.00  0.00    +0.000 A 
ATOM     22  C   UNL     1      -2.505  11.365  18.185  0.00  0.00    +0.000 A 
ATOM     23  C   UNL     1      -2.443  12.094  19.371  0.00  0.00    +0.000 A 
ATOM     24  C   UNL     1      -1.370  11.919  20.243  0.00  0.00    +0.000 A 
ENDBRANCH  18  19
ENDBRANCH  17  18
ENDBRANCH  16  17
ENDBRANCH  15  16
ENDBRANCH  14  15
ENDBRANCH   5  14
BRANCH   6  25
ATOM     25  O   UNL     1       2.392   4.630  18.638  0.00  0.00    +0.000 OA
BRANCH  25  26
ATOM     26  S   UNL     1       1.779   3.270  19.294  0.00  0.00    +0.000 S 
ATOM     27  O   UNL     1       1.064   2.543  18.267  0.00  0.00    +0.000 OA
ATOM     28  O   UNL     1       2.741   2.652  20.176  0.00  0.00    +0.000 OA
BRANCH  26  29
ATOM     29  O   UNL     1       0.631   3.859  20.249  0.00  0.00    +0.000 OA
ATOM     30  H   UNL     1       0.490   4.793  19.997  0.00  0.00    +0.000 HD
ENDBRANCH  26  29
ENDBRANCH  25  26
ENDBRANCH   6  25
TORSDOF 13
ENDMDL
MODEL 5
REMARK VINA RESULT:      -6.8      1.383      2.143
REMARK  Name = 
REMARK  13 active torsions:
REMARK  status: ('A' for Active; 'I' for Inactive)
REMARK    1  A    between atoms: S_2  and  O_4
REMARK    2  A    between atoms: S_2  and  O_5
REMARK    3  A    between atoms: O_5  and  C_6
REMARK    4  A    between atoms: C_6  and  C_7
REMARK    5  A    between atoms: C_11  and  O_12
REMARK    6  A    between atoms: O_12  and  C_13
REMARK    7  A    between atoms: C_13  and  C_14
REMARK    8  A    between atoms: C_14  and  C_15
REMARK    9  A    between atoms: C_15  and  O_16
REMARK   10  A    between atoms: O_16  and  C_17
REMARK   11  A    between atoms: C_23  and  O_24
REMARK   12  A    between atoms: O_24  and  S_25
REMARK   13  A    between atoms: S_25  and  O_28
REMARK                            x       y       z     vdW  Elec       q    Type
REMARK                         _______ _______ _______ _____ _____    ______ ____
ROOT
ATOM      1  C   UNL     1       5.461   5.079  18.238  0.00  0.00    +0.000 C 
ATOM      2  O   UNL     1       6.369   4.348  19.090  0.00  0.00    +0.000 OA
ATOM      3  C   UNL     1       7.215   5.192  19.867  0.00  0.00    +0.000 C 
ATOM      4  C   UNL     1       8.059   6.095  18.981  0.00  0.00    +0.000 C 
ATOM      5  C   UNL     1       7.135   6.918  18.077  0.00  0.00    +0.000 C 
ATOM      6  C   UNL     1       6.264   5.953  17.242  0.00  0.00    +0.000 C 
ENDROOT
BRANCH   1   7
ATOM      7  C   UNL     1       4.554   4.055  17.534  0.00  0.00    +0.000 C 
BRANCH   7   8
ATOM      8  O   UNL     1       3.891   3.252  18.512  0.00  0.00    +0.000 OA
BRANCH   8  10
ATOM      9  O   UNL     1       1.851   1.905  19.046  0.00  0.00    +0.000 OA
ATOM     10  S   UNL     1       2.283   3.131  18.409  0.00  0.00    +0.000 S 
ATOM     11  O   UNL     1       1.880   3.442  17.056  0.00  0.00    +0.000 OA
BRANCH  10  12
ATOM     12  O   UNL     1       1.747   4.337  19.334  0.00  0.00    +0.000 OA
ATOM     13  H   UNL     1       2.483   4.958  19.474  0.00  0.00    +0.000 HD
ENDBRANCH  10  12
ENDBRANCH   8  10
ENDBRANCH   7   8
ENDBRANCH   1   7
BRANCH   5  14
ATOM     14  O   UNL     1       7.805   7.793  17.177  0.00  0.00    +0.000 OA
BRANCH  14  15
ATOM     15  C   UNL     1       7.843   9.165  17.551  0.00  0.00    +0.000 C 
BRANCH  15  16
ATOM     16  C   UNL     1       8.906   9.354  18.629  0.00  0.00    +0.000 C 
BRANCH  16  17
ATOM     17  C   UNL     1       9.022  10.807  19.067  0.00  0.00    +0.000 C 
BRANCH  17  18
ATOM     18  O   UNL     1       8.876  11.633  17.908  0.00  0.00    +0.000 OA
BRANCH  18  19
ATOM     19  C   UNL     1       9.876  12.544  17.721  0.00  0.00    +0.000 A 
ATOM     20  C   UNL     1       9.531  13.877  17.947  0.00  0.00    +0.000 A 
ATOM     21  C   UNL     1      10.480  14.885  17.772  0.00  0.00    +0.000 A 
ATOM     22  C   UNL     1      11.784  14.557  17.403  0.00  0.00    +0.000 A 
ATOM     23  C   UNL     1      12.138  13.222  17.211  0.00  0.00    +0.000 A 
ATOM     24  C   UNL     1      11.185  12.218  17.368  0.00  0.00    +0.000 A 
ENDBRANCH  18  19
ENDBRANCH  17  18
ENDBRANCH  16  17
ENDBRANCH  15  16
ENDBRANCH  14  15
ENDBRANCH   5  14
BRANCH   6  25
ATOM     25  O   UNL     1       7.058   5.079  16.423  0.00  0.00    +0.000 OA
BRANCH  25  26
ATOM     26  S   UNL     1       6.834   4.990  14.811  0.00  0.00    +0.000 S 
ATOM     27  O   UNL     1       7.967   5.604  14.153  0.00  0.00    +0.000 OA
ATOM     28  O   UNL     1       6.311   3.696  14.440  0.00  0.00    +0.000 OA
BRANCH  26  29
ATOM     29  O   UNL     1       5.627   6.025  14.593  0.00  0.00    +0.000 OA
ATOM     30  H   UNL     1       5.778   6.782  15.192  0.00  0.00    +0.000 HD
ENDBRANCH  26  29
ENDBRANCH  25  26
ENDBRANCH   6  25
TORSDOF 13
ENDMDL
MODEL 6
REMARK VINA RESULT:      -6.7      5.174      8.032
REMARK  Name = 
REMARK  13 active torsions:
REMARK  status: ('A' for Active; 'I' for Inactive)
REMARK    1  A    between atoms: S_2  and  O_4
REMARK    2  A    between atoms: S_2  and  O_5
REMARK    3  A    between atoms: O_5  and  C_6
REMARK    4  A    between atoms: C_6  and  C_7
REMARK    5  A    between atoms: C_11  and  O_12
REMARK    6  A    between atoms: O_12  and  C_13
REMARK    7  A    between atoms: C_13  and  C_14
REMARK    8  A    between atoms: C_14  and  C_15
REMARK    9  A    between atoms: C_15  and  O_16
REMARK   10  A    between atoms: O_16  and  C_17
REMARK   11  A    between atoms: C_23  and  O_24
REMARK   12  A    between atoms: O_24  and  S_25
REMARK   13  A    between atoms: S_25  and  O_28
REMARK                            x       y       z     vdW  Elec       q    Type
REMARK                         _______ _______ _______ _____ _____    ______ ____
ROOT
ATOM      1  C   UNL     1       5.218   5.275  18.379  0.00  0.00    +0.000 C 
ATOM      2  O   UNL     1       5.811   5.619  17.109  0.00  0.00    +0.000 OA
ATOM      3  C   UNL     1       5.708   7.006  16.797  0.00  0.00    +0.000 C 
ATOM      4  C   UNL     1       4.255   7.456  16.751  0.00  0.00    +0.000 C 
ATOM      5  C   UNL     1       3.590   7.139  18.094  0.00  0.00    +0.000 C 
ATOM      6  C   UNL     1       3.709   5.622  18.366  0.00  0.00    +0.000 C 
ENDROOT
BRANCH   1   7
ATOM      7  C   UNL     1       5.482   3.780  18.628  0.00  0.00    +0.000 C 
BRANCH   7   8
ATOM      8  O   UNL     1       5.341   3.495  20.021  0.00  0.00    +0.000 OA
BRANCH   8  10
ATOM      9  O   UNL     1       3.194   2.490  20.822  0.00  0.00    +0.000 OA
ATOM     10  S   UNL     1       4.545   2.149  20.427  0.00  0.00    +0.000 S 
ATOM     11  O   UNL     1       5.388   1.355  21.292  0.00  0.00    +0.000 OA
BRANCH  10  12
ATOM     12  O   UNL     1       4.423   1.340  19.039  0.00  0.00    +0.000 OA
ATOM     13  H   UNL     1       3.828   1.840  18.451  0.00  0.00    +0.000 HD
ENDBRANCH  10  12
ENDBRANCH   8  10
ENDBRANCH   7   8
ENDBRANCH   1   7
BRANCH   5  14
ATOM     14  O   UNL     1       2.213   7.492  18.176  0.00  0.00    +0.000 OA
BRANCH  14  15
ATOM     15  C   UNL     1       1.898   8.850  17.892  0.00  0.00    +0.000 C 
BRANCH  15  16
ATOM     16  C   UNL     1       1.115   9.431  19.064  0.00  0.00    +0.000 C 
BRANCH  16  17
ATOM     17  C   UNL     1       0.214  10.581  18.635  0.00  0.00    +0.000 C 
BRANCH  17  18
ATOM     18  O   UNL     1      -1.123  10.273  19.039  0.00  0.00    +0.000 OA
BRANCH  18  19
ATOM     19  C   UNL     1      -2.078  10.511  18.092  0.00  0.00    +0.000 A 
ATOM     20  C   UNL     1      -1.879   9.887  16.859  0.00  0.00    +0.000 A 
ATOM     21  C   UNL     1      -2.794  10.077  15.823  0.00  0.00    +0.000 A 
ATOM     22  C   UNL     1      -3.925  10.865  16.030  0.00  0.00    +0.000 A 
ATOM     23  C   UNL     1      -4.143  11.459  17.271  0.00  0.00    +0.000 A 
ATOM     24  C   UNL     1      -3.220  11.284  18.300  0.00  0.00    +0.000 A 
ENDBRANCH  18  19
ENDBRANCH  17  18
ENDBRANCH  16  17
ENDBRANCH  15  16
ENDBRANCH  14  15
ENDBRANCH   5  14
BRANCH   6  25
ATOM     25  O   UNL     1       3.080   4.838  17.339  0.00  0.00    +0.000 OA
BRANCH  25  26
ATOM     26  S   UNL     1       1.843   3.833  17.676  0.00  0.00    +0.000 S 
ATOM     27  O   UNL     1       0.637   4.368  17.079  0.00  0.00    +0.000 OA
ATOM     28  O   UNL     1       2.251   2.456  17.532  0.00  0.00    +0.000 OA
BRANCH  26  29
ATOM     29  O   UNL     1       1.653   4.067  19.253  0.00  0.00    +0.000 OA
ATOM     30  H   UNL     1       1.453   3.199  19.656  0.00  0.00    +0.000 HD
ENDBRANCH  26  29
ENDBRANCH  25  26
ENDBRANCH   6  25
TORSDOF 13
ENDMDL
MODEL 7
REMARK VINA RESULT:      -6.7      1.925      3.133
REMARK  Name = 
REMARK  13 active torsions:
REMARK  status: ('A' for Active; 'I' for Inactive)
REMARK    1  A    between atoms: S_2  and  O_4
REMARK    2  A    between atoms: S_2  and  O_5
REMARK    3  A    between atoms: O_5  and  C_6
REMARK    4  A    between atoms: C_6  and  C_7
REMARK    5  A    between atoms: C_11  and  O_12
REMARK    6  A    between atoms: O_12  and  C_13
REMARK    7  A    between atoms: C_13  and  C_14
REMARK    8  A    between atoms: C_14  and  C_15
REMARK    9  A    between atoms: C_15  and  O_16
REMARK   10  A    between atoms: O_16  and  C_17
REMARK   11  A    between atoms: C_23  and  O_24
REMARK   12  A    between atoms: O_24  and  S_25
REMARK   13  A    between atoms: S_25  and  O_28
REMARK                            x       y       z     vdW  Elec       q    Type
REMARK                         _______ _______ _______ _____ _____    ______ ____
ROOT
ATOM      1  C   UNL     1       5.046   3.737  17.741  0.00  0.00    +0.000 C 
ATOM      2  O   UNL     1       5.046   3.425  16.332  0.00  0.00    +0.000 OA
ATOM      3  C   UNL     1       6.231   3.849  15.662  0.00  0.00    +0.000 C 
ATOM      4  C   UNL     1       6.430   5.352  15.790  0.00  0.00    +0.000 C 
ATOM      5  C   UNL     1       6.469   5.728  17.274  0.00  0.00    +0.000 C 
ATOM      6  C   UNL     1       5.152   5.269  17.941  0.00  0.00    +0.000 C 
ENDROOT
BRANCH   1   7
ATOM      7  C   UNL     1       3.763   3.145  18.350  0.00  0.00    +0.000 C 
BRANCH   7   8
ATOM      8  O   UNL     1       3.847   3.189  19.776  0.00  0.00    +0.000 OA
BRANCH   8  10
ATOM      9  O   UNL     1       2.794   2.524  21.947  0.00  0.00    +0.000 OA
ATOM     10  S   UNL     1       2.478   2.977  20.608  0.00  0.00    +0.000 S 
ATOM     11  O   UNL     1       1.542   2.248  19.783  0.00  0.00    +0.000 OA
BRANCH  10  12
ATOM     12  O   UNL     1       1.887   4.468  20.761  0.00  0.00    +0.000 OA
ATOM     13  H   UNL     1       0.939   4.440  20.542  0.00  0.00    +0.000 HD
ENDBRANCH  10  12
ENDBRANCH   8  10
ENDBRANCH   7   8
ENDBRANCH   1   7
BRANCH   5  14
ATOM     14  O   UNL     1       6.629   7.119  17.533  0.00  0.00    +0.000 OA
BRANCH  14  15
ATOM     15  C   UNL     1       7.968   7.599  17.561  0.00  0.00    +0.000 C 
BRANCH  15  16
ATOM     16  C   UNL     1       7.947   9.105  17.798  0.00  0.00    +0.000 C 
BRANCH  16  17
ATOM     17  C   UNL     1       8.910   9.522  18.902  0.00  0.00    +0.000 C 
BRANCH  17  18
ATOM     18  O   UNL     1       8.798  10.937  19.078  0.00  0.00    +0.000 OA
BRANCH  18  19
ATOM     19  C   UNL     1       9.911  11.649  18.730  0.00  0.00    +0.000 A 
ATOM     20  C   UNL     1      11.030  11.458  19.542  0.00  0.00    +0.000 A 
ATOM     21  C   UNL     1      12.213  12.149  19.277  0.00  0.00    +0.000 A 
ATOM     22  C   UNL     1      12.287  13.007  18.180  0.00  0.00    +0.000 A 
ATOM     23  C   UNL     1      11.180  13.170  17.349  0.00  0.00    +0.000 A 
ATOM     24  C   UNL     1       9.993  12.494  17.625  0.00  0.00    +0.000 A 
ENDBRANCH  18  19
ENDBRANCH  17  18
ENDBRANCH  16  17
ENDBRANCH  15  16
ENDBRANCH  14  15
ENDBRANCH   5  14
BRANCH   6  25
ATOM     25  O   UNL     1       3.999   5.877  17.336  0.00  0.00    +0.000 OA
BRANCH  25  26
ATOM     26  S   UNL     1       2.911   6.703  18.225  0.00  0.00    +0.000 S 
ATOM     27  O   UNL     1       3.235   6.534  19.626  0.00  0.00    +0.000 OA
ATOM     28  O   UNL     1       2.635   7.988  17.628  0.00  0.00    +0.000 OA
BRANCH  26  29
ATOM     29  O   UNL     1       1.582   5.829  18.007  0.00  0.00    +0.000 OA
ATOM     30  H   UNL     1       1.721   4.969  18.451  0.00  0.00    +0.000 HD
ENDBRANCH  26  29
ENDBRANCH  25  26
ENDBRANCH   6  25
TORSDOF 13
ENDMDL
MODEL 8
REMARK VINA RESULT:      -6.6      0.980      1.471
REMARK  Name = 
REMARK  13 active torsions:
REMARK  status: ('A' for Active; 'I' for Inactive)
REMARK    1  A    between atoms: S_2  and  O_4
REMARK    2  A    between atoms: S_2  and  O_5
REMARK    3  A    between atoms: O_5  and  C_6
REMARK    4  A    between atoms: C_6  and  C_7
REMARK    5  A    between atoms: C_11  and  O_12
REMARK    6  A    between atoms: O_12  and  C_13
REMARK    7  A    between atoms: C_13  and  C_14
REMARK    8  A    between atoms: C_14  and  C_15
REMARK    9  A    between atoms: C_15  and  O_16
REMARK   10  A    between atoms: O_16  and  C_17
REMARK   11  A    between atoms: C_23  and  O_24
REMARK   12  A    between atoms: O_24  and  S_25
REMARK   13  A    between atoms: S_25  and  O_28
REMARK                            x       y       z     vdW  Elec       q    Type
REMARK                         _______ _______ _______ _____ _____    ______ ____
ROOT
ATOM      1  C   UNL     1       4.133   4.813  17.939  0.00  0.00    +0.000 C 
ATOM      2  O   UNL     1       4.936   4.091  18.896  0.00  0.00    +0.000 OA
ATOM      3  C   UNL     1       5.768   4.938  19.686  0.00  0.00    +0.000 C 
ATOM      4  C   UNL     1       6.721   5.742  18.815  0.00  0.00    +0.000 C 
ATOM      5  C   UNL     1       5.911   6.553  17.800  0.00  0.00    +0.000 C 
ATOM      6  C   UNL     1       5.050   5.583  16.958  0.00  0.00    +0.000 C 
ENDROOT
BRANCH   1   7
ATOM      7  C   UNL     1       3.225   3.795  17.229  0.00  0.00    +0.000 C 
BRANCH   7   8
ATOM      8  O   UNL     1       1.910   3.857  17.785  0.00  0.00    +0.000 OA
BRANCH   8  10
ATOM      9  O   UNL     1       1.191   3.473  20.151  0.00  0.00    +0.000 OA
ATOM     10  S   UNL     1       1.534   2.778  18.928  0.00  0.00    +0.000 S 
ATOM     11  O   UNL     1       2.533   1.734  18.927  0.00  0.00    +0.000 OA
BRANCH  10  12
ATOM     12  O   UNL     1       0.172   2.107  18.389  0.00  0.00    +0.000 OA
ATOM     13  H   UNL     1       0.341   1.160  18.240  0.00  0.00    +0.000 HD
ENDBRANCH  10  12
ENDBRANCH   8  10
ENDBRANCH   7   8
ENDBRANCH   1   7
BRANCH   5  14
ATOM     14  O   UNL     1       6.690   7.338  16.903  0.00  0.00    +0.000 OA
BRANCH  14  15
ATOM     15  C   UNL     1       7.977   7.725  17.369  0.00  0.00    +0.000 C 
BRANCH  15  16
ATOM     16  C   UNL     1       7.901   9.152  17.901  0.00  0.00    +0.000 C 
BRANCH  16  17
ATOM     17  C   UNL     1       9.082   9.489  18.801  0.00  0.00    +0.000 C 
BRANCH  17  18
ATOM     18  O   UNL     1       8.905  10.824  19.285  0.00  0.00    +0.000 OA
BRANCH  18  19
ATOM     19  C   UNL     1       9.603  11.779  18.603  0.00  0.00    +0.000 A 
ATOM     20  C   UNL     1       9.001  13.037  18.536  0.00  0.00    +0.000 A 
ATOM     21  C   UNL     1       9.630  14.079  17.852  0.00  0.00    +0.000 A 
ATOM     22  C   UNL     1      10.875  13.871  17.261  0.00  0.00    +0.000 A 
ATOM     23  C   UNL     1      11.492  12.625  17.358  0.00  0.00    +0.000 A 
ATOM     24  C   UNL     1      10.856  11.580  18.025  0.00  0.00    +0.000 A 
ENDBRANCH  18  19
ENDBRANCH  17  18
ENDBRANCH  16  17
ENDBRANCH  15  16
ENDBRANCH  14  15
ENDBRANCH   5  14
BRANCH   6  25
ATOM     25  O   UNL     1       5.853   4.623  16.252  0.00  0.00    +0.000 OA
BRANCH  25  26
ATOM     26  S   UNL     1       6.262   4.843  14.690  0.00  0.00    +0.000 S 
ATOM     27  O   UNL     1       6.356   3.548  14.050  0.00  0.00    +0.000 OA
ATOM     28  O   UNL     1       5.533   5.953  14.124  0.00  0.00    +0.000 OA
BRANCH  26  29
ATOM     29  O   UNL     1       7.782   5.342  14.819  0.00  0.00    +0.000 OA
ATOM     30  H   UNL     1       8.278   4.650  15.299  0.00  0.00    +0.000 HD
ENDBRANCH  26  29
ENDBRANCH  25  26
ENDBRANCH   6  25
TORSDOF 13
ENDMDL
MODEL 9
REMARK VINA RESULT:      -6.6      4.783      7.241
REMARK  Name = 
REMARK  13 active torsions:
REMARK  status: ('A' for Active; 'I' for Inactive)
REMARK    1  A    between atoms: S_2  and  O_4
REMARK    2  A    between atoms: S_2  and  O_5
REMARK    3  A    between atoms: O_5  and  C_6
REMARK    4  A    between atoms: C_6  and  C_7
REMARK    5  A    between atoms: C_11  and  O_12
REMARK    6  A    between atoms: O_12  and  C_13
REMARK    7  A    between atoms: C_13  and  C_14
REMARK    8  A    between atoms: C_14  and  C_15
REMARK    9  A    between atoms: C_15  and  O_16
REMARK   10  A    between atoms: O_16  and  C_17
REMARK   11  A    between atoms: C_23  and  O_24
REMARK   12  A    between atoms: O_24  and  S_25
REMARK   13  A    between atoms: S_25  and  O_28
REMARK                            x       y       z     vdW  Elec       q    Type
REMARK                         _______ _______ _______ _____ _____    ______ ____
ROOT
ATOM      1  C   UNL     1       4.437   5.773  18.495  0.00  0.00    +0.000 C 
ATOM      2  O   UNL     1       4.081   6.426  17.257  0.00  0.00    +0.000 OA
ATOM      3  C   UNL     1       3.545   7.733  17.443  0.00  0.00    +0.000 C 
ATOM      4  C   UNL     1       2.294   7.699  18.308  0.00  0.00    +0.000 C 
ATOM      5  C   UNL     1       2.630   7.042  19.650  0.00  0.00    +0.000 C 
ATOM      6  C   UNL     1       3.180   5.622  19.388  0.00  0.00    +0.000 C 
ENDROOT
BRANCH   1   7
ATOM      7  C   UNL     1       5.083   4.423  18.143  0.00  0.00    +0.000 C 
BRANCH   7   8
ATOM      8  O   UNL     1       5.261   4.333  16.728  0.00  0.00    +0.000 OA
BRANCH   8  10
ATOM      9  O   UNL     1       6.860   4.090  14.819  0.00  0.00    +0.000 OA
ATOM     10  S   UNL     1       6.729   4.667  16.140  0.00  0.00    +0.000 S 
ATOM     11  O   UNL     1       7.711   4.396  17.165  0.00  0.00    +0.000 OA
BRANCH  10  12
ATOM     12  O   UNL     1       6.708   6.265  15.939  0.00  0.00    +0.000 OA
ATOM     13  H   UNL     1       6.246   6.456  15.103  0.00  0.00    +0.000 HD
ENDBRANCH  10  12
ENDBRANCH   8  10
ENDBRANCH   7   8
ENDBRANCH   1   7
BRANCH   5  14
ATOM     14  O   UNL     1       1.532   6.926  20.550  0.00  0.00    +0.000 OA
BRANCH  14  15
ATOM     15  C   UNL     1       1.311   8.037  21.410  0.00  0.00    +0.000 C 
BRANCH  15  16
ATOM     16  C   UNL     1      -0.139   8.490  21.269  0.00  0.00    +0.000 C 
BRANCH  16  17
ATOM     17  C   UNL     1      -0.241   9.934  20.795  0.00  0.00    +0.000 C 
BRANCH  17  18
ATOM     18  O   UNL     1       0.923  10.229  20.019  0.00  0.00    +0.000 OA
BRANCH  18  19
ATOM     19  C   UNL     1       1.012  11.521  19.584  0.00  0.00    +0.000 A 
ATOM     20  C   UNL     1       0.155  12.430  20.208  0.00  0.00    +0.000 A 
ATOM     21  C   UNL     1       0.162  13.773  19.827  0.00  0.00    +0.000 A 
ATOM     22  C   UNL     1       1.047  14.213  18.844  0.00  0.00    +0.000 A 
ATOM     23  C   UNL     1       1.927  13.312  18.246  0.00  0.00    +0.000 A 
ATOM     24  C   UNL     1       1.907  11.968  18.614  0.00  0.00    +0.000 A 
ENDBRANCH  18  19
ENDBRANCH  17  18
ENDBRANCH  16  17
ENDBRANCH  15  16
ENDBRANCH  14  15
ENDBRANCH   5  14
BRANCH   6  25
ATOM     25  O   UNL     1       2.235   4.796  18.689  0.00  0.00    +0.000 OA
BRANCH  25  26
ATOM     26  S   UNL     1       1.640   3.434  19.358  0.00  0.00    +0.000 S 
ATOM     27  O   UNL     1       0.869   2.726  18.358  0.00  0.00    +0.000 OA
ATOM     28  O   UNL     1       2.636   2.795  20.185  0.00  0.00    +0.000 OA
BRANCH  26  29
ATOM     29  O   UNL     1       0.545   4.022  20.374  0.00  0.00    +0.000 OA
ATOM     30  H   UNL     1       0.997   4.668  20.951  0.00  0.00    +0.000 HD
ENDBRANCH  26  29
ENDBRANCH  25  26
ENDBRANCH   6  25
TORSDOF 13
ENDMDL
