MODEL 1
REMARK VINA RESULT:      -7.6      0.000      0.000
REMARK  Name = 
REMARK  8 active torsions:
REMARK  status: ('A' for Active; 'I' for Inactive)
REMARK    1  A    between atoms: C_1  and  C_2
REMARK    2  A    between atoms: C_2  and  C_3
REMARK    3  A    between atoms: C_4  and  C_5
REMARK    4  A    between atoms: C_5  and  O_6
REMARK    5  A    between atoms: O_6  and  C_7
REMARK    6  A    between atoms: C_9  and  O_10
REMARK    7  A    between atoms: C_14  and  O_15
REMARK    8  A    between atoms: C_17  and  C_18
REMARK                            x       y       z     vdW  Elec       q    Type
REMARK                         _______ _______ _______ _____ _____    ______ ____
ROOT
ATOM      1  C   UNL     1       4.449   4.590  17.579  0.00  0.00    +0.000 A 
ATOM      2  C   UNL     1       4.758   3.283  18.039  0.00  0.00    +0.000 A 
ATOM      3  C   UNL     1       4.246   2.790  19.235  0.00  0.00    +0.000 A 
ATOM      4  C   UNL     1       3.426   3.637  19.960  0.00  0.00    +0.000 A 
ATOM      5  C   UNL     1       3.178   4.911  19.511  0.00  0.00    +0.000 A 
ATOM      6  C   UNL     1       2.341   5.455  20.450  0.00  0.00    +0.000 A 
ATOM      7  C   UNL     1       1.865   6.744  20.324  0.00  0.00    +0.000 A 
ATOM      8  C   UNL     1       2.294   7.469  19.231  0.00  0.00    +0.000 A 
ATOM      9  C   UNL     1       3.189   6.919  18.273  0.00  0.00    +0.000 A 
ATOM     10  C   UNL     1       3.597   7.920  17.219  0.00  0.00    +0.000 C 
ATOM     11  C   UNL     1       3.643   5.518  18.370  0.00  0.00    +0.000 A 
ATOM     12  O   UNL     1       2.033   4.598  21.487  0.00  0.00    +0.000 OA
ATOM     13  C   UNL     1       2.723   3.413  21.197  0.00  0.00    +0.000 C 
ATOM     14  O   UNL     1       2.651   2.442  21.943  0.00  0.00    +0.000 OA
ENDROOT
BRANCH   3  15
ATOM     15  O   UNL     1       4.513   1.523  19.660  0.00  0.00    +0.000 OA
ATOM     16  H   UNL     1       3.915   1.293  20.390  0.00  0.00    +0.000 HD
ENDBRANCH   3  15
BRANCH   7  17
ATOM     17  O   UNL     1       1.020   7.329  21.227  0.00  0.00    +0.000 OA
ATOM     18  H   UNL     1       0.157   6.894  21.118  0.00  0.00    +0.000 HD
ENDBRANCH   7  17
BRANCH   1  19
ATOM     19  O   UNL     1       4.980   4.763  16.317  0.00  0.00    +0.000 OA
BRANCH  19  20
ATOM     20  C   UNL     1       6.389   4.790  16.263  0.00  0.00    +0.000 C 
BRANCH  20  24
ATOM     21  C   UNL     1       7.728   8.125  17.663  0.00  0.00    +0.000 C 
ATOM     22  C   UNL     1       7.445   6.657  17.562  0.00  0.00    +0.000 C 
ATOM     23  C   UNL     1       7.641   5.827  18.806  0.00  0.00    +0.000 C 
ATOM     24  C   UNL     1       6.969   6.157  16.404  0.00  0.00    +0.000 C 
ENDBRANCH  20  24
ENDBRANCH  19  20
ENDBRANCH   1  19
TORSDOF 5
ENDMDL
MODEL 2
REMARK VINA RESULT:      -7.4      1.226      3.459
REMARK  Name = 
REMARK  8 active torsions:
REMARK  status: ('A' for Active; 'I' for Inactive)
REMARK    1  A    between atoms: C_1  and  C_2
REMARK    2  A    between atoms: C_2  and  C_3
REMARK    3  A    between atoms: C_4  and  C_5
REMARK    4  A    between atoms: C_5  and  O_6
REMARK    5  A    between atoms: O_6  and  C_7
REMARK    6  A    between atoms: C_9  and  O_10
REMARK    7  A    between atoms: C_14  and  O_15
REMARK    8  A    between atoms: C_17  and  C_18
REMARK                            x       y       z     vdW  Elec       q    Type
REMARK                         _______ _______ _______ _____ _____    ______ ____
ROOT
ATOM      1  C   UNL     1       4.021   5.003  17.344  0.00  0.00    +0.000 A 
ATOM      2  C   UNL     1       3.797   6.397  17.189  0.00  0.00    +0.000 A 
ATOM      3  C   UNL     1       3.079   7.129  18.128  0.00  0.00    +0.000 A 
ATOM      4  C   UNL     1       2.586   6.434  19.218  0.00  0.00    +0.000 A 
ATOM      5  C   UNL     1       2.783   5.079  19.321  0.00  0.00    +0.000 A 
ATOM      6  C   UNL     1       2.181   4.727  20.501  0.00  0.00    +0.000 A 
ATOM      7  C   UNL     1       2.186   3.422  20.947  0.00  0.00    +0.000 A 
ATOM      8  C   UNL     1       2.795   2.483  20.137  0.00  0.00    +0.000 A 
ATOM      9  C   UNL     1       3.390   2.839  18.896  0.00  0.00    +0.000 A 
ATOM     10  C   UNL     1       3.908   1.641  18.137  0.00  0.00    +0.000 C 
ATOM     11  C   UNL     1       3.446   4.245  18.453  0.00  0.00    +0.000 A 
ATOM     12  O   UNL     1       1.602   5.787  21.170  0.00  0.00    +0.000 OA
ATOM     13  C   UNL     1       1.847   6.905  20.362  0.00  0.00    +0.000 C 
ATOM     14  O   UNL     1       1.452   8.019  20.689  0.00  0.00    +0.000 OA
ENDROOT
BRANCH   3  15
ATOM     15  O   UNL     1       2.893   8.473  17.998  0.00  0.00    +0.000 OA
ATOM     16  H   UNL     1       2.109   8.743  18.505  0.00  0.00    +0.000 HD
ENDBRANCH   3  15
BRANCH   7  17
ATOM     17  O   UNL     1       1.609   3.021  22.121  0.00  0.00    +0.000 OA
ATOM     18  H   UNL     1       2.296   2.545  22.616  0.00  0.00    +0.000 HD
ENDBRANCH   7  17
BRANCH   1  19
ATOM     19  O   UNL     1       4.866   4.567  16.343  0.00  0.00    +0.000 OA
BRANCH  19  20
ATOM     20  C   UNL     1       6.227   4.496  16.702  0.00  0.00    +0.000 C 
BRANCH  20  24
ATOM     21  C   UNL     1       7.841   7.869  17.649  0.00  0.00    +0.000 C 
ATOM     22  C   UNL     1       7.426   6.433  17.751  0.00  0.00    +0.000 C 
ATOM     23  C   UNL     1       7.519   5.780  19.108  0.00  0.00    +0.000 C 
ATOM     24  C   UNL     1       6.928   5.812  16.662  0.00  0.00    +0.000 C 
ENDBRANCH  20  24
ENDBRANCH  19  20
ENDBRANCH   1  19
TORSDOF 5
ENDMDL
MODEL 3
REMARK VINA RESULT:      -7.1      2.189      5.734
REMARK  Name = 
REMARK  8 active torsions:
REMARK  status: ('A' for Active; 'I' for Inactive)
REMARK    1  A    between atoms: C_1  and  C_2
REMARK    2  A    between atoms: C_2  and  C_3
REMARK    3  A    between atoms: C_4  and  C_5
REMARK    4  A    between atoms: C_5  and  O_6
REMARK    5  A    between atoms: O_6  and  C_7
REMARK    6  A    between atoms: C_9  and  O_10
REMARK    7  A    between atoms: C_14  and  O_15
REMARK    8  A    between atoms: C_17  and  C_18
REMARK                            x       y       z     vdW  Elec       q    Type
REMARK                         _______ _______ _______ _____ _____    ______ ____
ROOT
ATOM      1  C   UNL     1       2.969   6.669  18.319  0.00  0.00    +0.000 A 
ATOM      2  C   UNL     1       3.894   7.240  17.406  0.00  0.00    +0.000 A 
ATOM      3  C   UNL     1       4.756   6.452  16.652  0.00  0.00    +0.000 A 
ATOM      4  C   UNL     1       4.675   5.083  16.837  0.00  0.00    +0.000 A 
ATOM      5  C   UNL     1       3.799   4.560  17.757  0.00  0.00    +0.000 A 
ATOM      6  C   UNL     1       3.975   3.204  17.675  0.00  0.00    +0.000 A 
ATOM      7  C   UNL     1       3.243   2.338  18.461  0.00  0.00    +0.000 A 
ATOM      8  C   UNL     1       2.351   2.899  19.353  0.00  0.00    +0.000 A 
ATOM      9  C   UNL     1       2.191   4.308  19.464  0.00  0.00    +0.000 A 
ATOM     10  C   UNL     1       1.237   4.697  20.568  0.00  0.00    +0.000 C 
ATOM     11  C   UNL     1       2.923   5.231  18.576  0.00  0.00    +0.000 A 
ATOM     12  O   UNL     1       4.922   2.818  16.748  0.00  0.00    +0.000 OA
ATOM     13  C   UNL     1       5.394   4.015  16.190  0.00  0.00    +0.000 C 
ATOM     14  O   UNL     1       6.257   4.008  15.320  0.00  0.00    +0.000 OA
ENDROOT
BRANCH   3  15
ATOM     15  O   UNL     1       5.621   6.997  15.750  0.00  0.00    +0.000 OA
ATOM     16  H   UNL     1       6.452   7.228  16.195  0.00  0.00    +0.000 HD
ENDBRANCH   3  15
BRANCH   7  17
ATOM     17  O   UNL     1       3.373   0.977  18.410  0.00  0.00    +0.000 OA
ATOM     18  H   UNL     1       2.480   0.611  18.525  0.00  0.00    +0.000 HD
ENDBRANCH   7  17
BRANCH   1  19
ATOM     19  O   UNL     1       2.160   7.665  18.826  0.00  0.00    +0.000 OA
BRANCH  19  20
ATOM     20  C   UNL     1       2.210   8.887  18.124  0.00  0.00    +0.000 C 
BRANCH  20  24
ATOM     21  C   UNL     1      -1.318  10.400  18.502  0.00  0.00    +0.000 C 
ATOM     22  C   UNL     1       0.122  10.105  18.794  0.00  0.00    +0.000 C 
ATOM     23  C   UNL     1       0.637  10.458  20.166  0.00  0.00    +0.000 C 
ATOM     24  C   UNL     1       0.868   9.482  17.858  0.00  0.00    +0.000 C 
ENDBRANCH  20  24
ENDBRANCH  19  20
ENDBRANCH   1  19
TORSDOF 5
ENDMDL
MODEL 4
REMARK VINA RESULT:      -7.1      1.731      2.384
REMARK  Name = 
REMARK  8 active torsions:
REMARK  status: ('A' for Active; 'I' for Inactive)
REMARK    1  A    between atoms: C_1  and  C_2
REMARK    2  A    between atoms: C_2  and  C_3
REMARK    3  A    between atoms: C_4  and  C_5
REMARK    4  A    between atoms: C_5  and  O_6
REMARK    5  A    between atoms: O_6  and  C_7
REMARK    6  A    between atoms: C_9  and  O_10
REMARK    7  A    between atoms: C_14  and  O_15
REMARK    8  A    between atoms: C_17  and  C_18
REMARK                            x       y       z     vdW  Elec       q    Type
REMARK                         _______ _______ _______ _____ _____    ______ ____
ROOT
ATOM      1  C   UNL     1       3.932   3.988  16.994  0.00  0.00    +0.000 A 
ATOM      2  C   UNL     1       3.636   2.654  17.383  0.00  0.00    +0.000 A 
ATOM      3  C   UNL     1       2.889   2.376  18.523  0.00  0.00    +0.000 A 
ATOM      4  C   UNL     1       2.451   3.460  19.264  0.00  0.00    +0.000 A 
ATOM      5  C   UNL     1       2.788   4.737  18.886  0.00  0.00    +0.000 A 
ATOM      6  C   UNL     1       2.195   5.545  19.821  0.00  0.00    +0.000 A 
ATOM      7  C   UNL     1       2.310   6.918  19.757  0.00  0.00    +0.000 A 
ATOM      8  C   UNL     1       3.073   7.438  18.730  0.00  0.00    +0.000 A 
ATOM      9  C   UNL     1       3.717   6.601  17.778  0.00  0.00    +0.000 A 
ATOM     10  C   UNL     1       4.574   7.378  16.808  0.00  0.00    +0.000 C 
ATOM     11  C   UNL     1       3.537   5.137  17.806  0.00  0.00    +0.000 A 
ATOM     12  O   UNL     1       1.491   4.856  20.788  0.00  0.00    +0.000 OA
ATOM     13  C   UNL     1       1.640   3.504  20.454  0.00  0.00    +0.000 C 
ATOM     14  O   UNL     1       1.122   2.625  21.133  0.00  0.00    +0.000 OA
ENDROOT
BRANCH   3  15
ATOM     15  O   UNL     1       2.574   1.098  18.878  0.00  0.00    +0.000 OA
ATOM     16  H   UNL     1       1.882   0.758  18.288  0.00  0.00    +0.000 HD
ENDBRANCH   3  15
BRANCH   7  17
ATOM     17  O   UNL     1       1.730   7.768  20.658  0.00  0.00    +0.000 OA
ATOM     18  H   UNL     1       2.233   8.598  20.616  0.00  0.00    +0.000 HD
ENDBRANCH   7  17
BRANCH   1  19
ATOM     19  O   UNL     1       4.568   3.970  15.769  0.00  0.00    +0.000 OA
BRANCH  19  20
ATOM     20  C   UNL     1       5.965   3.792  15.826  0.00  0.00    +0.000 C 
BRANCH  20  24
ATOM     21  C   UNL     1       7.879   5.336  12.854  0.00  0.00    +0.000 C 
ATOM     22  C   UNL     1       6.861   4.530  13.603  0.00  0.00    +0.000 C 
ATOM     23  C   UNL     1       6.093   3.490  12.826  0.00  0.00    +0.000 C 
ATOM     24  C   UNL     1       6.725   4.713  14.932  0.00  0.00    +0.000 C 
ENDBRANCH  20  24
ENDBRANCH  19  20
ENDBRANCH   1  19
TORSDOF 5
ENDMDL
MODEL 5
REMARK VINA RESULT:      -7.0      2.105      6.198
REMARK  Name = 
REMARK  8 active torsions:
REMARK  status: ('A' for Active; 'I' for Inactive)
REMARK    1  A    between atoms: C_1  and  C_2
REMARK    2  A    between atoms: C_2  and  C_3
REMARK    3  A    between atoms: C_4  and  C_5
REMARK    4  A    between atoms: C_5  and  O_6
REMARK    5  A    between atoms: O_6  and  C_7
REMARK    6  A    between atoms: C_9  and  O_10
REMARK    7  A    between atoms: C_14  and  O_15
REMARK    8  A    between atoms: C_17  and  C_18
REMARK                            x       y       z     vdW  Elec       q    Type
REMARK                         _______ _______ _______ _____ _____    ______ ____
ROOT
ATOM      1  C   UNL     1       2.272   5.915  19.884  0.00  0.00    +0.000 A 
ATOM      2  C   UNL     1       2.782   6.939  19.042  0.00  0.00    +0.000 A 
ATOM      3  C   UNL     1       3.584   6.648  17.944  0.00  0.00    +0.000 A 
ATOM      4  C   UNL     1       3.866   5.314  17.711  0.00  0.00    +0.000 A 
ATOM      5  C   UNL     1       3.393   4.348  18.565  0.00  0.00    +0.000 A 
ATOM      6  C   UNL     1       3.848   3.166  18.042  0.00  0.00    +0.000 A 
ATOM      7  C   UNL     1       3.555   1.958  18.640  0.00  0.00    +0.000 A 
ATOM      8  C   UNL     1       2.812   1.995  19.803  0.00  0.00    +0.000 A 
ATOM      9  C   UNL     1       2.367   3.223  20.367  0.00  0.00    +0.000 A 
ATOM     10  C   UNL     1       1.658   3.031  21.686  0.00  0.00    +0.000 C 
ATOM     11  C   UNL     1       2.622   4.509  19.691  0.00  0.00    +0.000 A 
ATOM     12  O   UNL     1       4.594   3.316  16.890  0.00  0.00    +0.000 OA
ATOM     13  C   UNL     1       4.624   4.696  16.652  0.00  0.00    +0.000 C 
ATOM     14  O   UNL     1       5.219   5.157  15.685  0.00  0.00    +0.000 OA
ENDROOT
BRANCH   3  15
ATOM     15  O   UNL     1       4.045   7.628  17.115  0.00  0.00    +0.000 OA
ATOM     16  H   UNL     1       3.695   7.487  16.220  0.00  0.00    +0.000 HD
ENDBRANCH   3  15
BRANCH   7  17
ATOM     17  O   UNL     1       3.975   0.751  18.152  0.00  0.00    +0.000 OA
ATOM     18  H   UNL     1       4.459   0.940  17.330  0.00  0.00    +0.000 HD
ENDBRANCH   7  17
BRANCH   1  19
ATOM     19  O   UNL     1       1.411   6.475  20.805  0.00  0.00    +0.000 OA
BRANCH  19  20
ATOM     20  C   UNL     1       1.385   7.884  20.817  0.00  0.00    +0.000 C 
BRANCH  20  24
ATOM     21  C   UNL     1      -0.743  10.260  22.985  0.00  0.00    +0.000 C 
ATOM     22  C   UNL     1       0.115   9.781  21.853  0.00  0.00    +0.000 C 
ATOM     23  C   UNL     1       0.747  10.830  20.973  0.00  0.00    +0.000 C 
ATOM     24  C   UNL     1       0.340   8.459  21.712  0.00  0.00    +0.000 C 
ENDBRANCH  20  24
ENDBRANCH  19  20
ENDBRANCH   1  19
TORSDOF 5
ENDMDL
MODEL 6
REMARK VINA RESULT:      -6.9      2.390      3.344
REMARK  Name = 
REMARK  8 active torsions:
REMARK  status: ('A' for Active; 'I' for Inactive)
REMARK    1  A    between atoms: C_1  and  C_2
REMARK    2  A    between atoms: C_2  and  C_3
REMARK    3  A    between atoms: C_4  and  C_5
REMARK    4  A    between atoms: C_5  and  O_6
REMARK    5  A    between atoms: O_6  and  C_7
REMARK    6  A    between atoms: C_9  and  O_10
REMARK    7  A    between atoms: C_14  and  O_15
REMARK    8  A    between atoms: C_17  and  C_18
REMARK                            x       y       z     vdW  Elec       q    Type
REMARK                         _______ _______ _______ _____ _____    ______ ____
ROOT
ATOM      1  C   UNL     1       4.675   3.804  16.878  0.00  0.00    +0.000 A 
ATOM      2  C   UNL     1       4.164   2.542  17.283  0.00  0.00    +0.000 A 
ATOM      3  C   UNL     1       3.103   2.437  18.175  0.00  0.00    +0.000 A 
ATOM      4  C   UNL     1       2.570   3.620  18.655  0.00  0.00    +0.000 A 
ATOM      5  C   UNL     1       3.110   4.825  18.278  0.00  0.00    +0.000 A 
ATOM      6  C   UNL     1       2.350   5.766  18.922  0.00  0.00    +0.000 A 
ATOM      7  C   UNL     1       2.598   7.114  18.770  0.00  0.00    +0.000 A 
ATOM      8  C   UNL     1       3.663   7.471  17.968  0.00  0.00    +0.000 A 
ATOM      9  C   UNL     1       4.476   6.497  17.325  0.00  0.00    +0.000 A 
ATOM     10  C   UNL     1       5.637   7.110  16.581  0.00  0.00    +0.000 C 
ATOM     11  C   UNL     1       4.167   5.058  17.432  0.00  0.00    +0.000 A 
ATOM     12  O   UNL     1       1.342   5.232  19.700  0.00  0.00    +0.000 OA
ATOM     13  C   UNL     1       1.461   3.844  19.548  0.00  0.00    +0.000 C 
ATOM     14  O   UNL     1       0.696   3.078  20.123  0.00  0.00    +0.000 OA
ENDROOT
BRANCH   3  15
ATOM     15  O   UNL     1       2.589   1.227  18.538  0.00  0.00    +0.000 OA
ATOM     16  H   UNL     1       3.313   0.629  18.785  0.00  0.00    +0.000 HD
ENDBRANCH   3  15
BRANCH   7  17
ATOM     17  O   UNL     1       1.862   8.092  19.382  0.00  0.00    +0.000 OA
ATOM     18  H   UNL     1       1.777   7.830  20.314  0.00  0.00    +0.000 HD
ENDBRANCH   7  17
BRANCH   1  19
ATOM     19  O   UNL     1       5.628   3.613  15.898  0.00  0.00    +0.000 OA
BRANCH  19  20
ATOM     20  C   UNL     1       5.290   4.127  14.630  0.00  0.00    +0.000 C 
BRANCH  20  24
ATOM     21  C   UNL     1       7.039   2.791  11.462  0.00  0.00    +0.000 C 
ATOM     22  C   UNL     1       5.963   3.353  12.342  0.00  0.00    +0.000 C 
ATOM     23  C   UNL     1       4.548   3.301  11.823  0.00  0.00    +0.000 C 
ATOM     24  C   UNL     1       6.288   3.811  13.568  0.00  0.00    +0.000 C 
ENDBRANCH  20  24
ENDBRANCH  19  20
ENDBRANCH   1  19
TORSDOF 5
ENDMDL
MODEL 7
REMARK VINA RESULT:      -6.9      2.157      5.577
REMARK  Name = 
REMARK  8 active torsions:
REMARK  status: ('A' for Active; 'I' for Inactive)
REMARK    1  A    between atoms: C_1  and  C_2
REMARK    2  A    between atoms: C_2  and  C_3
REMARK    3  A    between atoms: C_4  and  C_5
REMARK    4  A    between atoms: C_5  and  O_6
REMARK    5  A    between atoms: O_6  and  C_7
REMARK    6  A    between atoms: C_9  and  O_10
REMARK    7  A    between atoms: C_14  and  O_15
REMARK    8  A    between atoms: C_17  and  C_18
REMARK                            x       y       z     vdW  Elec       q    Type
REMARK                         _______ _______ _______ _____ _____    ______ ____
ROOT
ATOM      1  C   UNL     1       3.095   6.779  18.199  0.00  0.00    +0.000 A 
ATOM      2  C   UNL     1       4.090   7.418  17.413  0.00  0.00    +0.000 A 
ATOM      3  C   UNL     1       5.333   6.834  17.194  0.00  0.00    +0.000 A 
ATOM      4  C   UNL     1       5.558   5.603  17.785  0.00  0.00    +0.000 A 
ATOM      5  C   UNL     1       4.593   5.028  18.575  0.00  0.00    +0.000 A 
ATOM      6  C   UNL     1       5.138   3.839  18.982  0.00  0.00    +0.000 A 
ATOM      7  C   UNL     1       4.438   2.971  19.795  0.00  0.00    +0.000 A 
ATOM      8  C   UNL     1       3.181   3.369  20.206  0.00  0.00    +0.000 A 
ATOM      9  C   UNL     1       2.627   4.618  19.812  0.00  0.00    +0.000 A 
ATOM     10  C   UNL     1       1.287   4.885  20.455  0.00  0.00    +0.000 C 
ATOM     11  C   UNL     1       3.346   5.514  18.886  0.00  0.00    +0.000 A 
ATOM     12  O   UNL     1       6.410   3.612  18.497  0.00  0.00    +0.000 OA
ATOM     13  C   UNL     1       6.710   4.739  17.719  0.00  0.00    +0.000 C 
ATOM     14  O   UNL     1       7.787   4.840  17.143  0.00  0.00    +0.000 OA
ENDROOT
BRANCH   3  15
ATOM     15  O   UNL     1       6.276   7.430  16.410  0.00  0.00    +0.000 OA
ATOM     16  H   UNL     1       6.830   8.012  16.956  0.00  0.00    +0.000 HD
ENDBRANCH   3  15
BRANCH   7  17
ATOM     17  O   UNL     1       4.933   1.769  20.221  0.00  0.00    +0.000 OA
ATOM     18  H   UNL     1       5.659   1.541  19.616  0.00  0.00    +0.000 HD
ENDBRANCH   7  17
BRANCH   1  19
ATOM     19  O   UNL     1       1.929   7.515  18.138  0.00  0.00    +0.000 OA
BRANCH  19  20
ATOM     20  C   UNL     1       2.105   8.888  17.870  0.00  0.00    +0.000 C 
BRANCH  20  24
ATOM     21  C   UNL     1      -1.168  10.480  19.147  0.00  0.00    +0.000 C 
ATOM     22  C   UNL     1       0.223   9.922  19.165  0.00  0.00    +0.000 C 
ATOM     23  C   UNL     1       0.813   9.576  20.509  0.00  0.00    +0.000 C 
ATOM     24  C   UNL     1       0.854   9.690  17.996  0.00  0.00    +0.000 C 
ENDBRANCH  20  24
ENDBRANCH  19  20
ENDBRANCH   1  19
TORSDOF 5
ENDMDL
MODEL 8
REMARK VINA RESULT:      -6.9      0.857      1.142
REMARK  Name = 
REMARK  8 active torsions:
REMARK  status: ('A' for Active; 'I' for Inactive)
REMARK    1  A    between atoms: C_1  and  C_2
REMARK    2  A    between atoms: C_2  and  C_3
REMARK    3  A    between atoms: C_4  and  C_5
REMARK    4  A    between atoms: C_5  and  O_6
REMARK    5  A    between atoms: O_6  and  C_7
REMARK    6  A    between atoms: C_9  and  O_10
REMARK    7  A    between atoms: C_14  and  O_15
REMARK    8  A    between atoms: C_17  and  C_18
REMARK                            x       y       z     vdW  Elec       q    Type
REMARK                         _______ _______ _______ _____ _____    ______ ____
ROOT
ATOM      1  C   UNL     1       4.030   4.344  17.186  0.00  0.00    +0.000 A 
ATOM      2  C   UNL     1       3.986   2.955  17.477  0.00  0.00    +0.000 A 
ATOM      3  C   UNL     1       3.289   2.461  18.575  0.00  0.00    +0.000 A 
ATOM      4  C   UNL     1       2.646   3.388  19.375  0.00  0.00    +0.000 A 
ATOM      5  C   UNL     1       2.740   4.729  19.093  0.00  0.00    +0.000 A 
ATOM      6  C   UNL     1       1.993   5.343  20.064  0.00  0.00    +0.000 A 
ATOM      7  C   UNL     1       1.847   6.715  20.095  0.00  0.00    +0.000 A 
ATOM      8  C   UNL     1       2.511   7.440  19.127  0.00  0.00    +0.000 A 
ATOM      9  C   UNL     1       3.315   6.808  18.138  0.00  0.00    +0.000 A 
ATOM     10  C   UNL     1       4.022   7.799  17.245  0.00  0.00    +0.000 C 
ATOM     11  C   UNL     1       3.414   5.338  18.063  0.00  0.00    +0.000 A 
ATOM     12  O   UNL     1       1.418   4.468  20.964  0.00  0.00    +0.000 OA
ATOM     13  C   UNL     1       1.825   3.194  20.544  0.00  0.00    +0.000 C 
ATOM     14  O   UNL     1       1.472   2.188  21.148  0.00  0.00    +0.000 OA
ENDROOT
BRANCH   3  15
ATOM     15  O   UNL     1       3.217   1.125  18.836  0.00  0.00    +0.000 OA
ATOM     16  H   UNL     1       4.071   0.708  18.634  0.00  0.00    +0.000 HD
ENDBRANCH   3  15
BRANCH   7  17
ATOM     17  O   UNL     1       1.104   7.375  21.036  0.00  0.00    +0.000 OA
ATOM     18  H   UNL     1       0.897   8.247  20.660  0.00  0.00    +0.000 HD
ENDBRANCH   7  17
BRANCH   1  19
ATOM     19  O   UNL     1       4.674   4.533  15.980  0.00  0.00    +0.000 OA
BRANCH  19  20
ATOM     20  C   UNL     1       6.030   4.904  16.081  0.00  0.00    +0.000 C 
BRANCH  20  24
ATOM     21  C   UNL     1       7.992   5.693  19.307  0.00  0.00    +0.000 C 
ATOM     22  C   UNL     1       7.274   5.914  18.010  0.00  0.00    +0.000 C 
ATOM     23  C   UNL     1       7.471   7.245  17.328  0.00  0.00    +0.000 C 
ATOM     24  C   UNL     1       6.549   4.908  17.479  0.00  0.00    +0.000 C 
ENDBRANCH  20  24
ENDBRANCH  19  20
ENDBRANCH   1  19
TORSDOF 5
ENDMDL
MODEL 9
REMARK VINA RESULT:      -6.9      2.038      5.653
REMARK  Name = 
REMARK  8 active torsions:
REMARK  status: ('A' for Active; 'I' for Inactive)
REMARK    1  A    between atoms: C_1  and  C_2
REMARK    2  A    between atoms: C_2  and  C_3
REMARK    3  A    between atoms: C_4  and  C_5
REMARK    4  A    between atoms: C_5  and  O_6
REMARK    5  A    between atoms: O_6  and  C_7
REMARK    6  A    between atoms: C_9  and  O_10
REMARK    7  A    between atoms: C_14  and  O_15
REMARK    8  A    between atoms: C_17  and  C_18
REMARK                            x       y       z     vdW  Elec       q    Type
REMARK                         _______ _______ _______ _____ _____    ______ ____
ROOT
ATOM      1  C   UNL     1       2.998   6.722  18.190  0.00  0.00    +0.000 A 
ATOM      2  C   UNL     1       3.975   7.387  17.402  0.00  0.00    +0.000 A 
ATOM      3  C   UNL     1       5.233   6.837  17.184  0.00  0.00    +0.000 A 
ATOM      4  C   UNL     1       5.492   5.614  17.776  0.00  0.00    +0.000 A 
ATOM      5  C   UNL     1       4.543   5.013  18.567  0.00  0.00    +0.000 A 
ATOM      6  C   UNL     1       5.121   3.840  18.975  0.00  0.00    +0.000 A 
ATOM      7  C   UNL     1       4.445   2.955  19.790  0.00  0.00    +0.000 A 
ATOM      8  C   UNL     1       3.178   3.319  20.200  0.00  0.00    +0.000 A 
ATOM      9  C   UNL     1       2.590   4.552  19.806  0.00  0.00    +0.000 A 
ATOM     10  C   UNL     1       1.244   4.783  20.449  0.00  0.00    +0.000 C 
ATOM     11  C   UNL     1       3.284   5.465  18.878  0.00  0.00    +0.000 A 
ATOM     12  O   UNL     1       6.398   3.647  18.489  0.00  0.00    +0.000 OA
ATOM     13  C   UNL     1       6.667   4.781  17.711  0.00  0.00    +0.000 C 
ATOM     14  O   UNL     1       7.741   4.911  17.134  0.00  0.00    +0.000 OA
ENDROOT
BRANCH   3  15
ATOM     15  O   UNL     1       6.160   7.457  16.399  0.00  0.00    +0.000 OA
ATOM     16  H   UNL     1       7.020   7.458  16.850  0.00  0.00    +0.000 HD
ENDBRANCH   3  15
BRANCH   7  17
ATOM     17  O   UNL     1       4.973   1.767  20.217  0.00  0.00    +0.000 OA
ATOM     18  H   UNL     1       4.945   1.786  21.188  0.00  0.00    +0.000 HD
ENDBRANCH   7  17
BRANCH   1  19
ATOM     19  O   UNL     1       1.812   7.426  18.128  0.00  0.00    +0.000 OA
BRANCH  19  20
ATOM     20  C   UNL     1       1.805   8.643  18.840  0.00  0.00    +0.000 C 
BRANCH  20  24
ATOM     21  C   UNL     1       0.382   9.220  22.378  0.00  0.00    +0.000 C 
ATOM     22  C   UNL     1       0.476   9.235  20.882  0.00  0.00    +0.000 C 
ATOM     23  C   UNL     1      -0.465  10.149  20.138  0.00  0.00    +0.000 C 
ATOM     24  C   UNL     1       1.428   8.498  20.276  0.00  0.00    +0.000 C 
ENDBRANCH  20  24
ENDBRANCH  19  20
ENDBRANCH   1  19
TORSDOF 5
ENDMDL
