MODEL 1
REMARK VINA RESULT:      -7.5      0.000      0.000
REMARK  Name = 
REMARK  2 active torsions:
REMARK  status: ('A' for Active; 'I' for Inactive)
REMARK    1  A    between atoms: C_1  and  C_2
REMARK    2  A    between atoms: C_6  and  C_7
REMARK                            x       y       z     vdW  Elec       q    Type
REMARK                         _______ _______ _______ _____ _____    ______ ____
ROOT
ATOM      1  C   UNL     1       4.999   4.210  17.726  0.00  0.00    +0.000 C 
ATOM      2  O   UNL     1       5.600   3.925  18.760  0.00  0.00    +0.000 OA
ATOM      3  N   UNL     1       3.623   4.318  17.644  0.00  0.00    +0.000 N 
ATOM      4  C   UNL     1       2.810   4.057  18.750  0.00  0.00    +0.000 A 
ATOM      5  C   UNL     1       3.008   4.658  19.994  0.00  0.00    +0.000 A 
ATOM      6  N   UNL     1       2.217   4.402  21.071  0.00  0.00    +0.000 NA
ATOM      7  C   UNL     1       1.254   3.479  20.863  0.00  0.00    +0.000 A 
ATOM      8  C   UNL     1       1.057   2.882  19.628  0.00  0.00    +0.000 A 
ATOM      9  N   UNL     1       1.794   3.193  18.535  0.00  0.00    +0.000 NA
ATOM     10  H   UNL     1       3.185   4.056  16.771  0.00  0.00    +0.000 HD
ENDROOT
BRANCH   1  16
ATOM     11  C   UNL     1       5.867   3.483  12.784  0.00  0.00    +0.000 C 
ATOM     12  C   UNL     1       6.195   4.105  14.103  0.00  0.00    +0.000 A 
ATOM     13  C   UNL     1       7.228   5.030  14.225  0.00  0.00    +0.000 A 
ATOM     14  N   UNL     1       7.571   5.624  15.389  0.00  0.00    +0.000 NA
ATOM     15  C   UNL     1       6.834   5.300  16.482  0.00  0.00    +0.000 A 
ATOM     16  C   UNL     1       5.771   4.402  16.469  0.00  0.00    +0.000 A 
ATOM     17  C   UNL     1       5.460   3.789  15.260  0.00  0.00    +0.000 A 
ENDBRANCH   1  16
TORSDOF 1
ENDMDL
MODEL 2
REMARK VINA RESULT:      -7.4      1.259      1.393
REMARK  Name = 
REMARK  2 active torsions:
REMARK  status: ('A' for Active; 'I' for Inactive)
REMARK    1  A    between atoms: C_1  and  C_2
REMARK    2  A    between atoms: C_6  and  C_7
REMARK                            x       y       z     vdW  Elec       q    Type
REMARK                         _______ _______ _______ _____ _____    ______ ____
ROOT
ATOM      1  C   UNL     1       4.185   4.595  17.345  0.00  0.00    +0.000 C 
ATOM      2  O   UNL     1       3.569   5.625  17.613  0.00  0.00    +0.000 OA
ATOM      3  N   UNL     1       3.996   3.394  18.003  0.00  0.00    +0.000 N 
ATOM      4  C   UNL     1       3.100   3.289  19.071  0.00  0.00    +0.000 A 
ATOM      5  C   UNL     1       1.773   3.712  18.990  0.00  0.00    +0.000 A 
ATOM      6  N   UNL     1       0.902   3.611  20.030  0.00  0.00    +0.000 NA
ATOM      7  C   UNL     1       1.431   3.116  21.170  0.00  0.00    +0.000 A 
ATOM      8  C   UNL     1       2.749   2.695  21.250  0.00  0.00    +0.000 A 
ATOM      9  N   UNL     1       3.596   2.725  20.193  0.00  0.00    +0.000 NA
ATOM     10  H   UNL     1       4.798   2.787  18.110  0.00  0.00    +0.000 HD
ENDROOT
BRANCH   1  16
ATOM     11  C   UNL     1       6.044   3.529  12.750  0.00  0.00    +0.000 C 
ATOM     12  C   UNL     1       6.142   4.174  14.095  0.00  0.00    +0.000 A 
ATOM     13  C   UNL     1       7.227   4.978  14.430  0.00  0.00    +0.000 A 
ATOM     14  N   UNL     1       7.371   5.585  15.628  0.00  0.00    +0.000 NA
ATOM     15  C   UNL     1       6.373   5.403  16.530  0.00  0.00    +0.000 A 
ATOM     16  C   UNL     1       5.238   4.634  16.294  0.00  0.00    +0.000 A 
ATOM     17  C   UNL     1       5.132   4.002  15.060  0.00  0.00    +0.000 A 
ENDBRANCH   1  16
TORSDOF 1
ENDMDL
MODEL 3
REMARK VINA RESULT:      -7.0      1.352      1.465
REMARK  Name = 
REMARK  2 active torsions:
REMARK  status: ('A' for Active; 'I' for Inactive)
REMARK    1  A    between atoms: C_1  and  C_2
REMARK    2  A    between atoms: C_6  and  C_7
REMARK                            x       y       z     vdW  Elec       q    Type
REMARK                         _______ _______ _______ _____ _____    ______ ____
ROOT
ATOM      1  C   UNL     1       4.690   3.639  17.345  0.00  0.00    +0.000 C 
ATOM      2  O   UNL     1       3.974   2.651  17.192  0.00  0.00    +0.000 OA
ATOM      3  N   UNL     1       4.675   4.430  18.478  0.00  0.00    +0.000 N 
ATOM      4  C   UNL     1       3.787   4.172  19.527  0.00  0.00    +0.000 A 
ATOM      5  C   UNL     1       3.669   2.917  20.127  0.00  0.00    +0.000 A 
ATOM      6  N   UNL     1       2.804   2.667  21.146  0.00  0.00    +0.000 NA
ATOM      7  C   UNL     1       2.027   3.712  21.504  0.00  0.00    +0.000 A 
ATOM      8  C   UNL     1       2.145   4.958  20.909  0.00  0.00    +0.000 A 
ATOM      9  N   UNL     1       3.059   5.229  19.946  0.00  0.00    +0.000 NA
ATOM     10  H   UNL     1       4.861   5.417  18.362  0.00  0.00    +0.000 HD
ENDROOT
BRANCH   1  16
ATOM     11  C   UNL     1       6.277   3.599  12.529  0.00  0.00    +0.000 C 
ATOM     12  C   UNL     1       6.355   4.090  13.939  0.00  0.00    +0.000 A 
ATOM     13  C   UNL     1       7.247   5.094  14.304  0.00  0.00    +0.000 A 
ATOM     14  N   UNL     1       7.362   5.576  15.560  0.00  0.00    +0.000 NA
ATOM     15  C   UNL     1       6.532   5.051  16.496  0.00  0.00    +0.000 A 
ATOM     16  C   UNL     1       5.593   4.057  16.238  0.00  0.00    +0.000 A 
ATOM     17  C   UNL     1       5.517   3.564  14.939  0.00  0.00    +0.000 A 
ENDBRANCH   1  16
TORSDOF 1
ENDMDL
MODEL 4
REMARK VINA RESULT:      -6.8      1.370      6.480
REMARK  Name = 
REMARK  2 active torsions:
REMARK  status: ('A' for Active; 'I' for Inactive)
REMARK    1  A    between atoms: C_1  and  C_2
REMARK    2  A    between atoms: C_6  and  C_7
REMARK                            x       y       z     vdW  Elec       q    Type
REMARK                         _______ _______ _______ _____ _____    ______ ____
ROOT
ATOM      1  C   UNL     1       4.060   4.443  17.412  0.00  0.00    +0.000 C 
ATOM      2  O   UNL     1       4.101   5.670  17.340  0.00  0.00    +0.000 OA
ATOM      3  N   UNL     1       4.881   3.603  16.684  0.00  0.00    +0.000 N 
ATOM      4  C   UNL     1       5.800   4.113  15.762  0.00  0.00    +0.000 A 
ATOM      5  C   UNL     1       6.726   5.106  16.085  0.00  0.00    +0.000 A 
ATOM      6  N   UNL     1       7.618   5.602  15.187  0.00  0.00    +0.000 NA
ATOM      7  C   UNL     1       7.510   5.099  13.939  0.00  0.00    +0.000 A 
ATOM      8  C   UNL     1       6.591   4.112  13.617  0.00  0.00    +0.000 A 
ATOM      9  N   UNL     1       5.753   3.563  14.529  0.00  0.00    +0.000 NA
ATOM     10  H   UNL     1       4.502   2.710  16.399  0.00  0.00    +0.000 HD
ENDROOT
BRANCH   1  16
ATOM     11  C   UNL     1       2.126   3.141  21.915  0.00  0.00    +0.000 C 
ATOM     12  C   UNL     1       2.070   3.198  20.422  0.00  0.00    +0.000 A 
ATOM     13  C   UNL     1       0.960   2.729  19.725  0.00  0.00    +0.000 A 
ATOM     14  N   UNL     1       0.854   2.752  18.379  0.00  0.00    +0.000 NA
ATOM     15  C   UNL     1       1.892   3.292  17.692  0.00  0.00    +0.000 A 
ATOM     16  C   UNL     1       3.041   3.804  18.288  0.00  0.00    +0.000 A 
ATOM     17  C   UNL     1       3.130   3.741  19.674  0.00  0.00    +0.000 A 
ENDBRANCH   1  16
TORSDOF 1
ENDMDL
MODEL 5
REMARK VINA RESULT:      -6.8      1.680      6.496
REMARK  Name = 
REMARK  2 active torsions:
REMARK  status: ('A' for Active; 'I' for Inactive)
REMARK    1  A    between atoms: C_1  and  C_2
REMARK    2  A    between atoms: C_6  and  C_7
REMARK                            x       y       z     vdW  Elec       q    Type
REMARK                         _______ _______ _______ _____ _____    ______ ____
ROOT
ATOM      1  C   UNL     1       4.650   4.382  16.802  0.00  0.00    +0.000 C 
ATOM      2  O   UNL     1       4.661   5.607  16.693  0.00  0.00    +0.000 OA
ATOM      3  N   UNL     1       5.386   3.533  15.997  0.00  0.00    +0.000 N 
ATOM      4  C   UNL     1       6.174   4.029  14.954  0.00  0.00    +0.000 A 
ATOM      5  C   UNL     1       7.116   5.042  15.133  0.00  0.00    +0.000 A 
ATOM      6  N   UNL     1       7.881   5.525  14.117  0.00  0.00    +0.000 NA
ATOM      7  C   UNL     1       7.625   4.986  12.906  0.00  0.00    +0.000 A 
ATOM      8  C   UNL     1       6.689   3.980  12.728  0.00  0.00    +0.000 A 
ATOM      9  N   UNL     1       5.981   3.445  13.752  0.00  0.00    +0.000 NA
ATOM     10  H   UNL     1       4.988   2.628  15.785  0.00  0.00    +0.000 HD
ENDROOT
BRANCH   1  16
ATOM     11  C   UNL     1       1.160   4.522  20.478  0.00  0.00    +0.000 C 
ATOM     12  C   UNL     1       2.066   3.782  19.547  0.00  0.00    +0.000 A 
ATOM     13  C   UNL     1       2.059   2.392  19.489  0.00  0.00    +0.000 A 
ATOM     14  N   UNL     1       2.855   1.670  18.671  0.00  0.00    +0.000 NA
ATOM     15  C   UNL     1       3.682   2.366  17.851  0.00  0.00    +0.000 A 
ATOM     16  C   UNL     1       3.758   3.754  17.814  0.00  0.00    +0.000 A 
ATOM     17  C   UNL     1       2.944   4.468  18.688  0.00  0.00    +0.000 A 
ENDBRANCH   1  16
TORSDOF 1
ENDMDL
MODEL 6
REMARK VINA RESULT:      -6.8      1.814      6.352
REMARK  Name = 
REMARK  2 active torsions:
REMARK  status: ('A' for Active; 'I' for Inactive)
REMARK    1  A    between atoms: C_1  and  C_2
REMARK    2  A    between atoms: C_6  and  C_7
REMARK                            x       y       z     vdW  Elec       q    Type
REMARK                         _______ _______ _______ _____ _____    ______ ____
ROOT
ATOM      1  C   UNL     1       4.892   4.417  16.730  0.00  0.00    +0.000 C 
ATOM      2  O   UNL     1       4.855   5.636  16.569  0.00  0.00    +0.000 OA
ATOM      3  N   UNL     1       5.597   3.556  15.910  0.00  0.00    +0.000 N 
ATOM      4  C   UNL     1       6.291   4.029  14.792  0.00  0.00    +0.000 A 
ATOM      5  C   UNL     1       7.209   5.077  14.859  0.00  0.00    +0.000 A 
ATOM      6  N   UNL     1       7.883   5.537  13.770  0.00  0.00    +0.000 NA
ATOM      7  C   UNL     1       7.558   4.937  12.605  0.00  0.00    +0.000 A 
ATOM      8  C   UNL     1       6.646   3.896  12.538  0.00  0.00    +0.000 A 
ATOM      9  N   UNL     1       6.032   3.386  13.633  0.00  0.00    +0.000 NA
ATOM     10  H   UNL     1       5.215   2.630  15.766  0.00  0.00    +0.000 HD
ENDROOT
BRANCH   1  16
ATOM     11  C   UNL     1       0.655   2.469  18.720  0.00  0.00    +0.000 C 
ATOM     12  C   UNL     1       2.101   2.839  18.801  0.00  0.00    +0.000 A 
ATOM     13  C   UNL     1       2.862   2.528  19.924  0.00  0.00    +0.000 A 
ATOM     14  N   UNL     1       4.170   2.837  20.055  0.00  0.00    +0.000 NA
ATOM     15  C   UNL     1       4.758   3.465  19.006  0.00  0.00    +0.000 A 
ATOM     16  C   UNL     1       4.097   3.808  17.831  0.00  0.00    +0.000 A 
ATOM     17  C   UNL     1       2.744   3.499  17.738  0.00  0.00    +0.000 A 
ENDBRANCH   1  16
TORSDOF 1
ENDMDL
MODEL 7
REMARK VINA RESULT:      -6.7      1.411      1.740
REMARK  Name = 
REMARK  2 active torsions:
REMARK  status: ('A' for Active; 'I' for Inactive)
REMARK    1  A    between atoms: C_1  and  C_2
REMARK    2  A    between atoms: C_6  and  C_7
REMARK                            x       y       z     vdW  Elec       q    Type
REMARK                         _______ _______ _______ _____ _____    ______ ____
ROOT
ATOM      1  C   UNL     1       4.526   4.362  16.921  0.00  0.00    +0.000 C 
ATOM      2  O   UNL     1       3.668   3.482  16.876  0.00  0.00    +0.000 OA
ATOM      3  N   UNL     1       4.595   5.317  17.918  0.00  0.00    +0.000 N 
ATOM      4  C   UNL     1       3.639   5.367  18.937  0.00  0.00    +0.000 A 
ATOM      5  C   UNL     1       3.300   4.258  19.712  0.00  0.00    +0.000 A 
ATOM      6  N   UNL     1       2.369   4.307  20.703  0.00  0.00    +0.000 NA
ATOM      7  C   UNL     1       1.756   5.501  20.848  0.00  0.00    +0.000 A 
ATOM      8  C   UNL     1       2.092   6.603  20.079  0.00  0.00    +0.000 A 
ATOM      9  N   UNL     1       3.073   6.576  19.144  0.00  0.00    +0.000 NA
ATOM     10  H   UNL     1       4.939   6.234  17.665  0.00  0.00    +0.000 HD
ENDROOT
BRANCH   1  16
ATOM     11  C   UNL     1       6.214   3.401  12.237  0.00  0.00    +0.000 C 
ATOM     12  C   UNL     1       6.344   4.047  13.579  0.00  0.00    +0.000 A 
ATOM     13  C   UNL     1       7.402   4.904  13.866  0.00  0.00    +0.000 A 
ATOM     14  N   UNL     1       7.572   5.515  15.059  0.00  0.00    +0.000 NA
ATOM     15  C   UNL     1       6.629   5.281  16.006  0.00  0.00    +0.000 A 
ATOM     16  C   UNL     1       5.524   4.456  15.821  0.00  0.00    +0.000 A 
ATOM     17  C   UNL     1       5.392   3.822  14.590  0.00  0.00    +0.000 A 
ENDBRANCH   1  16
TORSDOF 1
ENDMDL
MODEL 8
REMARK VINA RESULT:      -6.7      1.494      6.273
REMARK  Name = 
REMARK  2 active torsions:
REMARK  status: ('A' for Active; 'I' for Inactive)
REMARK    1  A    between atoms: C_1  and  C_2
REMARK    2  A    between atoms: C_6  and  C_7
REMARK                            x       y       z     vdW  Elec       q    Type
REMARK                         _______ _______ _______ _____ _____    ______ ____
ROOT
ATOM      1  C   UNL     1       4.184   5.324  17.257  0.00  0.00    +0.000 C 
ATOM      2  O   UNL     1       4.473   6.501  17.047  0.00  0.00    +0.000 OA
ATOM      3  N   UNL     1       4.762   4.261  16.589  0.00  0.00    +0.000 N 
ATOM      4  C   UNL     1       5.701   4.469  15.575  0.00  0.00    +0.000 A 
ATOM      5  C   UNL     1       6.832   5.269  15.743  0.00  0.00    +0.000 A 
ATOM      6  N   UNL     1       7.745   5.473  14.756  0.00  0.00    +0.000 NA
ATOM      7  C   UNL     1       7.450   4.884  13.578  0.00  0.00    +0.000 A 
ATOM      8  C   UNL     1       6.327   4.089  13.410  0.00  0.00    +0.000 A 
ATOM      9  N   UNL     1       5.458   3.823  14.414  0.00  0.00    +0.000 NA
ATOM     10  H   UNL     1       4.187   3.445  16.422  0.00  0.00    +0.000 HD
ENDROOT
BRANCH   1  16
ATOM     11  C   UNL     1       0.475   2.428  19.147  0.00  0.00    +0.000 C 
ATOM     12  C   UNL     1       1.365   3.629  19.194  0.00  0.00    +0.000 A 
ATOM     13  C   UNL     1       1.324   4.514  20.267  0.00  0.00    +0.000 A 
ATOM     14  N   UNL     1       2.100   5.615  20.363  0.00  0.00    +0.000 NA
ATOM     15  C   UNL     1       2.980   5.833  19.353  0.00  0.00    +0.000 A 
ATOM     16  C   UNL     1       3.116   5.006  18.243  0.00  0.00    +0.000 A 
ATOM     17  C   UNL     1       2.283   3.894  18.162  0.00  0.00    +0.000 A 
ENDBRANCH   1  16
TORSDOF 1
ENDMDL
MODEL 9
REMARK VINA RESULT:      -6.2      4.252      7.164
REMARK  Name = 
REMARK  2 active torsions:
REMARK  status: ('A' for Active; 'I' for Inactive)
REMARK    1  A    between atoms: C_1  and  C_2
REMARK    2  A    between atoms: C_6  and  C_7
REMARK                            x       y       z     vdW  Elec       q    Type
REMARK                         _______ _______ _______ _____ _____    ______ ____
ROOT
ATOM      1  C   UNL     1       2.222   7.354  19.597  0.00  0.00    +0.000 C 
ATOM      2  O   UNL     1       2.641   7.404  18.442  0.00  0.00    +0.000 OA
ATOM      3  N   UNL     1       2.443   6.288  20.448  0.00  0.00    +0.000 N 
ATOM      4  C   UNL     1       3.137   5.152  20.019  0.00  0.00    +0.000 A 
ATOM      5  C   UNL     1       4.391   5.217  19.410  0.00  0.00    +0.000 A 
ATOM      6  N   UNL     1       5.064   4.112  18.992  0.00  0.00    +0.000 NA
ATOM      7  C   UNL     1       4.406   2.945  19.162  0.00  0.00    +0.000 A 
ATOM      8  C   UNL     1       3.161   2.881  19.767  0.00  0.00    +0.000 A 
ATOM      9  N   UNL     1       2.523   3.972  20.253  0.00  0.00    +0.000 NA
ATOM     10  H   UNL     1       1.720   6.068  21.121  0.00  0.00    +0.000 HD
ENDROOT
BRANCH   1  16
ATOM     11  C   UNL     1      -0.367   9.784  23.217  0.00  0.00    +0.000 C 
ATOM     12  C   UNL     1       0.166   9.674  21.824  0.00  0.00    +0.000 A 
ATOM     13  C   UNL     1      -0.007  10.704  20.904  0.00  0.00    +0.000 A 
ATOM     14  N   UNL     1       0.451  10.661  19.634  0.00  0.00    +0.000 NA
ATOM     15  C   UNL     1       1.136   9.549  19.268  0.00  0.00    +0.000 A 
ATOM     16  C   UNL     1       1.380   8.469  20.110  0.00  0.00    +0.000 A 
ATOM     17  C   UNL     1       0.874   8.533  21.404  0.00  0.00    +0.000 A 
ENDBRANCH   1  16
TORSDOF 1
ENDMDL
