MODEL 1
REMARK VINA RESULT:      -7.0      0.000      0.000
REMARK  Name = 
REMARK  2 active torsions:
REMARK  status: ('A' for Active; 'I' for Inactive)
REMARK    1  A    between atoms: C_1  and  C_2
REMARK    2  A    between atoms: C_13  and  C_14
REMARK                            x       y       z     vdW  Elec       q    Type
REMARK                         _______ _______ _______ _____ _____    ______ ____
ROOT
ATOM      1  C   UNL     1       6.822   4.931  16.811  0.00  0.00    +0.000 C 
ATOM      2  C   UNL     1       5.673   4.846  17.765  0.00  0.00    +0.000 A 
ATOM      3  C   UNL     1       4.798   5.849  17.916  0.00  0.00    +0.000 A 
ATOM      4  C   UNL     1       3.713   5.715  18.856  0.00  0.00    +0.000 A 
ATOM      5  C   UNL     1       3.572   4.612  19.588  0.00  0.00    +0.000 A 
ATOM      6  C   UNL     1       4.510   3.482  19.444  0.00  0.00    +0.000 A 
ATOM      7  S   UNL     1       4.487   2.024  20.259  0.00  0.00    +0.000 S 
ATOM      8  N   UNL     1       5.522   3.693  18.512  0.00  0.00    +0.000 N 
ATOM      9  C   UNL     1       2.408   4.838  20.446  0.00  0.00    +0.000 C 
ATOM     10  O   UNL     1       1.951   4.059  21.262  0.00  0.00    +0.000 OA
ATOM     11  O   UNL     1       1.888   6.091  20.206  0.00  0.00    +0.000 OA
ATOM     12  C   UNL     1       2.681   6.636  19.208  0.00  0.00    +0.000 C 
ATOM     13  C   UNL     1       2.488   7.839  18.639  0.00  0.00    +0.000 C 
ATOM     14  H   UNL     1       6.187   2.934  18.392  0.00  0.00    +0.000 HD
ENDROOT
BRANCH  13  15
ATOM     15  C   UNL     1       1.501   8.813  18.966  0.00  0.00    +0.000 A 
ATOM     16  C   UNL     1       1.065   9.177  20.273  0.00  0.00    +0.000 A 
ATOM     17  C   UNL     1       0.130  10.188  20.244  0.00  0.00    +0.000 A 
ATOM     18  S   UNL     1      -0.222  10.697  18.651  0.00  0.00    +0.000 S 
ATOM     19  C   UNL     1       0.888   9.575  17.991  0.00  0.00    +0.000 A 
ENDBRANCH  13  15
TORSDOF 1
ENDMDL
MODEL 2
REMARK VINA RESULT:      -7.0      3.119      5.755
REMARK  Name = 
REMARK  2 active torsions:
REMARK  status: ('A' for Active; 'I' for Inactive)
REMARK    1  A    between atoms: C_1  and  C_2
REMARK    2  A    between atoms: C_13  and  C_14
REMARK                            x       y       z     vdW  Elec       q    Type
REMARK                         _______ _______ _______ _____ _____    ______ ____
ROOT
ATOM      1  C   UNL     1       1.674   7.853  20.419  0.00  0.00    +0.000 C 
ATOM      2  C   UNL     1       2.212   6.514  20.026  0.00  0.00    +0.000 A 
ATOM      3  C   UNL     1       2.991   6.347  18.949  0.00  0.00    +0.000 A 
ATOM      4  C   UNL     1       3.474   5.032  18.612  0.00  0.00    +0.000 A 
ATOM      5  C   UNL     1       3.150   3.972  19.350  0.00  0.00    +0.000 A 
ATOM      6  C   UNL     1       2.301   4.116  20.549  0.00  0.00    +0.000 A 
ATOM      7  S   UNL     1       1.802   2.915  21.598  0.00  0.00    +0.000 S 
ATOM      8  N   UNL     1       1.884   5.419  20.803  0.00  0.00    +0.000 N 
ATOM      9  C   UNL     1       3.773   2.818  18.703  0.00  0.00    +0.000 C 
ATOM     10  O   UNL     1       3.711   1.661  19.075  0.00  0.00    +0.000 OA
ATOM     11  O   UNL     1       4.452   3.225  17.575  0.00  0.00    +0.000 OA
ATOM     12  C   UNL     1       4.287   4.600  17.521  0.00  0.00    +0.000 C 
ATOM     13  C   UNL     1       4.833   5.409  16.595  0.00  0.00    +0.000 C 
ATOM     14  H   UNL     1       1.294   5.550  21.620  0.00  0.00    +0.000 HD
ENDROOT
BRANCH  13  15
ATOM     15  C   UNL     1       5.623   5.038  15.468  0.00  0.00    +0.000 A 
ATOM     16  C   UNL     1       7.014   5.282  15.286  0.00  0.00    +0.000 A 
ATOM     17  C   UNL     1       7.484   4.751  14.105  0.00  0.00    +0.000 A 
ATOM     18  S   UNL     1       6.254   3.961  13.218  0.00  0.00    +0.000 S 
ATOM     19  C   UNL     1       5.089   4.314  14.420  0.00  0.00    +0.000 A 
ENDBRANCH  13  15
TORSDOF 1
ENDMDL
MODEL 3
REMARK VINA RESULT:      -6.9      1.295      1.502
REMARK  Name = 
REMARK  2 active torsions:
REMARK  status: ('A' for Active; 'I' for Inactive)
REMARK    1  A    between atoms: C_1  and  C_2
REMARK    2  A    between atoms: C_13  and  C_14
REMARK                            x       y       z     vdW  Elec       q    Type
REMARK                         _______ _______ _______ _____ _____    ______ ____
ROOT
ATOM      1  C   UNL     1       6.540   4.665  15.726  0.00  0.00    +0.000 C 
ATOM      2  C   UNL     1       5.350   4.534  16.623  0.00  0.00    +0.000 A 
ATOM      3  C   UNL     1       4.619   5.593  16.995  0.00  0.00    +0.000 A 
ATOM      4  C   UNL     1       3.487   5.409  17.867  0.00  0.00    +0.000 A 
ATOM      5  C   UNL     1       3.160   4.200  18.322  0.00  0.00    +0.000 A 
ATOM      6  C   UNL     1       3.936   3.008  17.928  0.00  0.00    +0.000 A 
ATOM      7  S   UNL     1       3.674   1.423  18.383  0.00  0.00    +0.000 S 
ATOM      8  N   UNL     1       5.007   3.276  17.081  0.00  0.00    +0.000 N 
ATOM      9  C   UNL     1       2.004   4.393  19.197  0.00  0.00    +0.000 C 
ATOM     10  O   UNL     1       1.407   3.524  19.807  0.00  0.00    +0.000 OA
ATOM     11  O   UNL     1       1.676   5.730  19.250  0.00  0.00    +0.000 OA
ATOM     12  C   UNL     1       2.579   6.366  18.414  0.00  0.00    +0.000 C 
ATOM     13  C   UNL     1       2.583   7.682  18.137  0.00  0.00    +0.000 C 
ATOM     14  H   UNL     1       5.564   2.476  16.795  0.00  0.00    +0.000 HD
ENDROOT
BRANCH  13  15
ATOM     15  C   UNL     1       1.728   8.690  18.672  0.00  0.00    +0.000 A 
ATOM     16  C   UNL     1       0.959   9.634  17.934  0.00  0.00    +0.000 A 
ATOM     17  C   UNL     1       0.201  10.440  18.754  0.00  0.00    +0.000 A 
ATOM     18  S   UNL     1       0.416  10.062  20.407  0.00  0.00    +0.000 S 
ATOM     19  C   UNL     1       1.514   8.806  20.031  0.00  0.00    +0.000 A 
ENDBRANCH  13  15
TORSDOF 1
ENDMDL
MODEL 4
REMARK VINA RESULT:      -6.9      1.354      1.521
REMARK  Name = 
REMARK  2 active torsions:
REMARK  status: ('A' for Active; 'I' for Inactive)
REMARK    1  A    between atoms: C_1  and  C_2
REMARK    2  A    between atoms: C_13  and  C_14
REMARK                            x       y       z     vdW  Elec       q    Type
REMARK                         _______ _______ _______ _____ _____    ______ ____
ROOT
ATOM      1  C   UNL     1       6.087   5.420  15.453  0.00  0.00    +0.000 C 
ATOM      2  C   UNL     1       5.139   5.511  16.605  0.00  0.00    +0.000 A 
ATOM      3  C   UNL     1       4.361   6.584  16.805  0.00  0.00    +0.000 A 
ATOM      4  C   UNL     1       3.471   6.621  17.938  0.00  0.00    +0.000 A 
ATOM      5  C   UNL     1       3.415   5.607  18.800  0.00  0.00    +0.000 A 
ATOM      6  C   UNL     1       4.250   4.404  18.609  0.00  0.00    +0.000 A 
ATOM      7  S   UNL     1       4.307   3.039  19.569  0.00  0.00    +0.000 S 
ATOM      8  N   UNL     1       5.074   4.450  17.489  0.00  0.00    +0.000 N 
ATOM      9  C   UNL     1       2.450   5.999  19.828  0.00  0.00    +0.000 C 
ATOM     10  O   UNL     1       2.119   5.338  20.795  0.00  0.00    +0.000 OA
ATOM     11  O   UNL     1       1.960   7.256  19.552  0.00  0.00    +0.000 OA
ATOM     12  C   UNL     1       2.574   7.643  18.372  0.00  0.00    +0.000 C 
ATOM     13  C   UNL     1       2.339   8.795  17.719  0.00  0.00    +0.000 C 
ATOM     14  H   UNL     1       5.664   3.638  17.333  0.00  0.00    +0.000 HD
ENDROOT
BRANCH  13  15
ATOM     15  C   UNL     1       1.484   9.864  18.115  0.00  0.00    +0.000 A 
ATOM     16  C   UNL     1       0.067   9.815  18.253  0.00  0.00    +0.000 A 
ATOM     17  C   UNL     1      -0.452  11.010  18.700  0.00  0.00    +0.000 A 
ATOM     18  S   UNL     1       0.761  12.187  18.951  0.00  0.00    +0.000 S 
ATOM     19  C   UNL     1       1.991  11.096  18.477  0.00  0.00    +0.000 A 
ENDBRANCH  13  15
TORSDOF 1
ENDMDL
MODEL 5
REMARK VINA RESULT:      -6.9      3.143      5.882
REMARK  Name = 
REMARK  2 active torsions:
REMARK  status: ('A' for Active; 'I' for Inactive)
REMARK    1  A    between atoms: C_1  and  C_2
REMARK    2  A    between atoms: C_13  and  C_14
REMARK                            x       y       z     vdW  Elec       q    Type
REMARK                         _______ _______ _______ _____ _____    ______ ____
ROOT
ATOM      1  C   UNL     1       1.854   7.863  20.182  0.00  0.00    +0.000 C 
ATOM      2  C   UNL     1       2.301   6.496  19.769  0.00  0.00    +0.000 A 
ATOM      3  C   UNL     1       3.075   6.294  18.695  0.00  0.00    +0.000 A 
ATOM      4  C   UNL     1       3.470   4.956  18.339  0.00  0.00    +0.000 A 
ATOM      5  C   UNL     1       3.068   3.908  19.057  0.00  0.00    +0.000 A 
ATOM      6  C   UNL     1       2.222   4.090  20.253  0.00  0.00    +0.000 A 
ATOM      7  S   UNL     1       1.634   2.909  21.277  0.00  0.00    +0.000 S 
ATOM      8  N   UNL     1       1.893   5.414  20.526  0.00  0.00    +0.000 N 
ATOM      9  C   UNL     1       3.616   2.724  18.394  0.00  0.00    +0.000 C 
ATOM     10  O   UNL     1       3.472   1.568  18.747  0.00  0.00    +0.000 OA
ATOM     11  O   UNL     1       4.330   3.103  17.279  0.00  0.00    +0.000 OA
ATOM     12  C   UNL     1       4.260   4.487  17.246  0.00  0.00    +0.000 C 
ATOM     13  C   UNL     1       4.868   5.271  16.338  0.00  0.00    +0.000 C 
ATOM     14  H   UNL     1       1.307   5.572  21.341  0.00  0.00    +0.000 HD
ENDROOT
BRANCH  13  15
ATOM     15  C   UNL     1       5.639   4.865  15.210  0.00  0.00    +0.000 A 
ATOM     16  C   UNL     1       5.206   4.035  14.137  0.00  0.00    +0.000 A 
ATOM     17  C   UNL     1       6.182   3.874  13.179  0.00  0.00    +0.000 A 
ATOM     18  S   UNL     1       7.616   4.718  13.571  0.00  0.00    +0.000 S 
ATOM     19  C   UNL     1       6.930   5.317  15.019  0.00  0.00    +0.000 A 
ENDBRANCH  13  15
TORSDOF 1
ENDMDL
MODEL 6
REMARK VINA RESULT:      -6.8      1.421      1.586
REMARK  Name = 
REMARK  2 active torsions:
REMARK  status: ('A' for Active; 'I' for Inactive)
REMARK    1  A    between atoms: C_1  and  C_2
REMARK    2  A    between atoms: C_13  and  C_14
REMARK                            x       y       z     vdW  Elec       q    Type
REMARK                         _______ _______ _______ _____ _____    ______ ____
ROOT
ATOM      1  C   UNL     1       5.499   5.785  16.182  0.00  0.00    +0.000 C 
ATOM      2  C   UNL     1       4.530   5.392  17.252  0.00  0.00    +0.000 A 
ATOM      3  C   UNL     1       3.830   6.299  17.946  0.00  0.00    +0.000 A 
ATOM      4  C   UNL     1       2.916   5.864  18.971  0.00  0.00    +0.000 A 
ATOM      5  C   UNL     1       2.761   4.571  19.250  0.00  0.00    +0.000 A 
ATOM      6  C   UNL     1       3.508   3.541  18.501  0.00  0.00    +0.000 A 
ATOM      7  S   UNL     1       3.439   1.884  18.698  0.00  0.00    +0.000 S 
ATOM      8  N   UNL     1       4.363   4.048  17.527  0.00  0.00    +0.000 N 
ATOM      9  C   UNL     1       1.802   4.503  20.352  0.00  0.00    +0.000 C 
ATOM     10  O   UNL     1       1.396   3.491  20.894  0.00  0.00    +0.000 OA
ATOM     11  O   UNL     1       1.413   5.774  20.712  0.00  0.00    +0.000 OA
ATOM     12  C   UNL     1       2.086   6.625  19.849  0.00  0.00    +0.000 C 
ATOM     13  C   UNL     1       1.954   7.963  19.825  0.00  0.00    +0.000 C 
ATOM     14  H   UNL     1       4.895   3.364  16.997  0.00  0.00    +0.000 HD
ENDROOT
BRANCH  13  15
ATOM     15  C   UNL     1       1.171   8.780  20.691  0.00  0.00    +0.000 A 
ATOM     16  C   UNL     1       1.225   8.808  22.114  0.00  0.00    +0.000 A 
ATOM     17  C   UNL     1       0.370   9.746  22.647  0.00  0.00    +0.000 A 
ATOM     18  S   UNL     1      -0.496  10.591  21.439  0.00  0.00    +0.000 S 
ATOM     19  C   UNL     1       0.283   9.713  20.194  0.00  0.00    +0.000 A 
ENDBRANCH  13  15
TORSDOF 1
ENDMDL
MODEL 7
REMARK VINA RESULT:      -6.8      2.520      3.423
REMARK  Name = 
REMARK  2 active torsions:
REMARK  status: ('A' for Active; 'I' for Inactive)
REMARK    1  A    between atoms: C_1  and  C_2
REMARK    2  A    between atoms: C_13  and  C_14
REMARK                            x       y       z     vdW  Elec       q    Type
REMARK                         _______ _______ _______ _____ _____    ______ ____
ROOT
ATOM      1  C   UNL     1       3.238   1.583  18.492  0.00  0.00    +0.000 C 
ATOM      2  C   UNL     1       3.686   2.907  17.959  0.00  0.00    +0.000 A 
ATOM      3  C   UNL     1       3.145   4.061  18.371  0.00  0.00    +0.000 A 
ATOM      4  C   UNL     1       3.610   5.306  17.817  0.00  0.00    +0.000 A 
ATOM      5  C   UNL     1       4.566   5.331  16.889  0.00  0.00    +0.000 A 
ATOM      6  C   UNL     1       5.193   4.081  16.416  0.00  0.00    +0.000 A 
ATOM      7  S   UNL     1       6.405   3.914  15.278  0.00  0.00    +0.000 S 
ATOM      8  N   UNL     1       4.689   2.927  17.007  0.00  0.00    +0.000 N 
ATOM      9  C   UNL     1       4.754   6.738  16.534  0.00  0.00    +0.000 C 
ATOM     10  O   UNL     1       5.543   7.176  15.717  0.00  0.00    +0.000 OA
ATOM     11  O   UNL     1       3.886   7.522  17.260  0.00  0.00    +0.000 OA
ATOM     12  C   UNL     1       3.184   6.645  18.072  0.00  0.00    +0.000 C 
ATOM     13  C   UNL     1       2.262   7.004  18.983  0.00  0.00    +0.000 C 
ATOM     14  H   UNL     1       5.097   2.049  16.699  0.00  0.00    +0.000 HD
ENDROOT
BRANCH  13  15
ATOM     15  C   UNL     1       1.772   8.313  19.261  0.00  0.00    +0.000 A 
ATOM     16  C   UNL     1       1.561   9.361  18.320  0.00  0.00    +0.000 A 
ATOM     17  C   UNL     1       1.032  10.488  18.909  0.00  0.00    +0.000 A 
ATOM     18  S   UNL     1       0.791  10.286  20.589  0.00  0.00    +0.000 S 
ATOM     19  C   UNL     1       1.380   8.680  20.533  0.00  0.00    +0.000 A 
ENDBRANCH  13  15
TORSDOF 1
ENDMDL
MODEL 8
REMARK VINA RESULT:      -6.8      1.137      1.216
REMARK  Name = 
REMARK  2 active torsions:
REMARK  status: ('A' for Active; 'I' for Inactive)
REMARK    1  A    between atoms: C_1  and  C_2
REMARK    2  A    between atoms: C_13  and  C_14
REMARK                            x       y       z     vdW  Elec       q    Type
REMARK                         _______ _______ _______ _____ _____    ______ ____
ROOT
ATOM      1  C   UNL     1       5.904   4.383  15.607  0.00  0.00    +0.000 C 
ATOM      2  C   UNL     1       5.022   4.627  16.790  0.00  0.00    +0.000 A 
ATOM      3  C   UNL     1       4.321   5.760  16.934  0.00  0.00    +0.000 A 
ATOM      4  C   UNL     1       3.493   5.945  18.098  0.00  0.00    +0.000 A 
ATOM      5  C   UNL     1       3.420   5.010  19.044  0.00  0.00    +0.000 A 
ATOM      6  C   UNL     1       4.170   3.745  18.918  0.00  0.00    +0.000 A 
ATOM      7  S   UNL     1       4.194   2.461  19.985  0.00  0.00    +0.000 S 
ATOM      8  N   UNL     1       4.938   3.648  17.762  0.00  0.00    +0.000 N 
ATOM      9  C   UNL     1       2.532   5.544  20.077  0.00  0.00    +0.000 C 
ATOM     10  O   UNL     1       2.211   4.987  21.111  0.00  0.00    +0.000 OA
ATOM     11  O   UNL     1       2.104   6.804  19.720  0.00  0.00    +0.000 OA
ATOM     12  C   UNL     1       2.681   7.054  18.485  0.00  0.00    +0.000 C 
ATOM     13  C   UNL     1       2.483   8.162  17.749  0.00  0.00    +0.000 C 
ATOM     14  H   UNL     1       5.470   2.790  17.647  0.00  0.00    +0.000 HD
ENDROOT
BRANCH  13  15
ATOM     15  C   UNL     1       1.714   9.313  18.092  0.00  0.00    +0.000 A 
ATOM     16  C   UNL     1       2.206  10.633  18.301  0.00  0.00    +0.000 A 
ATOM     17  C   UNL     1       1.193  11.526  18.572  0.00  0.00    +0.000 A 
ATOM     18  S   UNL     1      -0.344  10.777  18.576  0.00  0.00    +0.000 S 
ATOM     19  C   UNL     1       0.339   9.255  18.199  0.00  0.00    +0.000 A 
ENDBRANCH  13  15
TORSDOF 1
ENDMDL
MODEL 9
REMARK VINA RESULT:      -6.8      3.118      6.097
REMARK  Name = 
REMARK  2 active torsions:
REMARK  status: ('A' for Active; 'I' for Inactive)
REMARK    1  A    between atoms: C_1  and  C_2
REMARK    2  A    between atoms: C_13  and  C_14
REMARK                            x       y       z     vdW  Elec       q    Type
REMARK                         _______ _______ _______ _____ _____    ______ ____
ROOT
ATOM      1  C   UNL     1       2.233   3.154  21.622  0.00  0.00    +0.000 C 
ATOM      2  C   UNL     1       2.469   4.293  20.682  0.00  0.00    +0.000 A 
ATOM      3  C   UNL     1       3.198   4.156  19.566  0.00  0.00    +0.000 A 
ATOM      4  C   UNL     1       3.399   5.290  18.700  0.00  0.00    +0.000 A 
ATOM      5  C   UNL     1       2.880   6.480  18.996  0.00  0.00    +0.000 A 
ATOM      6  C   UNL     1       2.064   6.669  20.211  0.00  0.00    +0.000 A 
ATOM      7  S   UNL     1       1.326   8.072  20.738  0.00  0.00    +0.000 S 
ATOM      8  N   UNL     1       1.916   5.523  20.986  0.00  0.00    +0.000 N 
ATOM      9  C   UNL     1       3.313   7.389  17.934  0.00  0.00    +0.000 C 
ATOM     10  O   UNL     1       3.043   8.573  17.844  0.00  0.00    +0.000 OA
ATOM     11  O   UNL     1       4.097   6.709  17.029  0.00  0.00    +0.000 OA
ATOM     12  C   UNL     1       4.142   5.402  17.486  0.00  0.00    +0.000 C 
ATOM     13  C   UNL     1       4.768   4.386  16.865  0.00  0.00    +0.000 C 
ATOM     14  H   UNL     1       1.362   5.621  21.832  0.00  0.00    +0.000 HD
ENDROOT
BRANCH  13  15
ATOM     15  C   UNL     1       5.549   4.439  15.674  0.00  0.00    +0.000 A 
ATOM     16  C   UNL     1       6.819   5.065  15.517  0.00  0.00    +0.000 A 
ATOM     17  C   UNL     1       7.328   4.893  14.248  0.00  0.00    +0.000 A 
ATOM     18  S   UNL     1       6.281   3.981  13.251  0.00  0.00    +0.000 S 
ATOM     19  C   UNL     1       5.147   3.800  14.518  0.00  0.00    +0.000 A 
ENDBRANCH  13  15
TORSDOF 1
ENDMDL
