MODEL 1
REMARK VINA RESULT:      -7.8      0.000      0.000
REMARK  Name = 
REMARK  6 active torsions:
REMARK  status: ('A' for Active; 'I' for Inactive)
REMARK    1  A    between atoms: C_1  and  C_2
REMARK    2  A    between atoms: C_3  and  C_4
REMARK    3  A    between atoms: N_6  and  C_7
REMARK    4  A    between atoms: N_6  and  C_8
REMARK    5  A    between atoms: C_8  and  C_9
REMARK    6  A    between atoms: C_23  and  C_24
REMARK                            x       y       z     vdW  Elec       q    Type
REMARK                         _______ _______ _______ _____ _____    ______ ____
ROOT
ATOM      1  C   UNL     1       1.104  11.646  20.393  0.00  0.00    +0.000 C 
ATOM      2  C   UNL     1      -0.110  11.143  19.656  0.00  0.00    +0.000 A 
ATOM      3  C   UNL     1      -0.008  10.084  18.729  0.00  0.00    +0.000 A 
ATOM      4  N   UNL     1      -1.007   9.758  17.879  0.00  0.00    +0.000 NA
ATOM      5  C   UNL     1      -2.139  10.453  17.907  0.00  0.00    +0.000 A 
ATOM      6  C   UNL     1      -3.097  10.099  16.963  0.00  0.00    +0.000 A 
ATOM      7  C   UNL     1      -4.317  10.746  16.862  0.00  0.00    +0.000 A 
ATOM      8  C   UNL     1      -4.591  11.799  17.719  0.00  0.00    +0.000 A 
ATOM      9  C   UNL     1      -3.642  12.168  18.675  0.00  0.00    +0.000 A 
ATOM     10  C   UNL     1      -2.399  11.492  18.825  0.00  0.00    +0.000 A 
ATOM     11  C   UNL     1      -1.383  11.797  19.804  0.00  0.00    +0.000 A 
ENDROOT
BRANCH  11  12
ATOM     12  C   UNL     1      -1.708  12.704  20.984  0.00  0.00    +0.000 A 
ATOM     13  C   UNL     1      -2.120  12.160  22.223  0.00  0.00    +0.000 A 
ATOM     14  C   UNL     1      -2.435  12.957  23.336  0.00  0.00    +0.000 A 
ATOM     15  C   UNL     1      -2.251  14.330  23.282  0.00  0.00    +0.000 A 
ATOM     16  C   UNL     1      -1.804  14.903  22.100  0.00  0.00    +0.000 A 
ATOM     17  C   UNL     1      -1.588  14.106  20.964  0.00  0.00    +0.000 A 
ENDBRANCH  11  12
BRANCH   3  18
ATOM     18  C   UNL     1       1.252   9.261  18.514  0.00  0.00    +0.000 C 
ATOM     19  O   UNL     1       1.855   9.386  17.444  0.00  0.00    +0.000 OA
ATOM     20  N   UNL     1       1.718   8.343  19.478  0.00  0.00    +0.000 N 
ATOM     21  C   UNL     1       1.166   8.108  20.809  0.00  0.00    +0.000 C 
BRANCH  20  22
ATOM     22  C   UNL     1       2.873   7.508  19.123  0.00  0.00    +0.000 C 
BRANCH  22  23
ATOM     23  C   UNL     1       2.491   6.050  18.985  0.00  0.00    +0.000 A 
ATOM     24  C   UNL     1       2.108   5.535  17.736  0.00  0.00    +0.000 A 
ATOM     25  C   UNL     1       1.666   4.219  17.604  0.00  0.00    +0.000 A 
ATOM     26  C   UNL     1       1.613   3.390  18.720  0.00  0.00    +0.000 A 
ATOM     27  C   UNL     1       2.021   3.878  19.961  0.00  0.00    +0.000 A 
ATOM     28  I   UNL     1       1.938   2.634  21.626  0.00  0.00    +0.000 I 
ATOM     29  C   UNL     1       2.466   5.195  20.099  0.00  0.00    +0.000 A 
ENDBRANCH  22  23
ENDBRANCH  20  22
ENDBRANCH   3  18
TORSDOF 4
ENDMDL
MODEL 2
REMARK VINA RESULT:      -7.6      3.243      9.042
REMARK  Name = 
REMARK  6 active torsions:
REMARK  status: ('A' for Active; 'I' for Inactive)
REMARK    1  A    between atoms: C_1  and  C_2
REMARK    2  A    between atoms: C_3  and  C_4
REMARK    3  A    between atoms: N_6  and  C_7
REMARK    4  A    between atoms: N_6  and  C_8
REMARK    5  A    between atoms: C_8  and  C_9
REMARK    6  A    between atoms: C_23  and  C_24
REMARK                            x       y       z     vdW  Elec       q    Type
REMARK                         _______ _______ _______ _____ _____    ______ ____
ROOT
ATOM      1  C   UNL     1       4.452   8.090  17.298  0.00  0.00    +0.000 C 
ATOM      2  C   UNL     1       3.577   7.104  18.028  0.00  0.00    +0.000 A 
ATOM      3  C   UNL     1       2.364   7.514  18.623  0.00  0.00    +0.000 A 
ATOM      4  N   UNL     1       1.670   6.733  19.479  0.00  0.00    +0.000 NA
ATOM      5  C   UNL     1       2.134   5.525  19.782  0.00  0.00    +0.000 A 
ATOM      6  C   UNL     1       1.398   4.804  20.715  0.00  0.00    +0.000 A 
ATOM      7  C   UNL     1       1.769   3.539  21.140  0.00  0.00    +0.000 A 
ATOM      8  C   UNL     1       2.928   2.974  20.632  0.00  0.00    +0.000 A 
ATOM      9  C   UNL     1       3.680   3.683  19.692  0.00  0.00    +0.000 A 
ATOM     10  C   UNL     1       3.296   4.966  19.210  0.00  0.00    +0.000 A 
ATOM     11  C   UNL     1       4.004   5.745  18.223  0.00  0.00    +0.000 A 
ENDROOT
BRANCH  11  12
ATOM     12  C   UNL     1       5.091   5.096  17.374  0.00  0.00    +0.000 A 
ATOM     13  C   UNL     1       4.791   4.562  16.099  0.00  0.00    +0.000 A 
ATOM     14  C   UNL     1       5.758   3.951  15.285  0.00  0.00    +0.000 A 
ATOM     15  C   UNL     1       7.089   3.940  15.674  0.00  0.00    +0.000 A 
ATOM     16  C   UNL     1       7.436   4.494  16.897  0.00  0.00    +0.000 A 
ATOM     17  C   UNL     1       6.445   5.013  17.747  0.00  0.00    +0.000 A 
ENDBRANCH  11  12
BRANCH   3  18
ATOM     18  C   UNL     1       1.757   8.898  18.449  0.00  0.00    +0.000 C 
ATOM     19  O   UNL     1       1.899   9.464  17.362  0.00  0.00    +0.000 OA
ATOM     20  N   UNL     1       1.082   9.554  19.499  0.00  0.00    +0.000 N 
ATOM     21  C   UNL     1       0.777   9.017  20.821  0.00  0.00    +0.000 C 
BRANCH  20  22
ATOM     22  C   UNL     1       0.641  10.936  19.268  0.00  0.00    +0.000 C 
BRANCH  22  23
ATOM     23  C   UNL     1      -0.845  11.012  18.989  0.00  0.00    +0.000 A 
ATOM     24  C   UNL     1      -1.398  10.309  17.906  0.00  0.00    +0.000 A 
ATOM     25  C   UNL     1      -2.747  10.437  17.577  0.00  0.00    +0.000 A 
ATOM     26  C   UNL     1      -3.571  11.261  18.338  0.00  0.00    +0.000 A 
ATOM     27  C   UNL     1      -3.043  11.939  19.436  0.00  0.00    +0.000 A 
ATOM     28  I   UNL     1      -4.280  13.170  20.568  0.00  0.00    +0.000 I 
ATOM     29  C   UNL     1      -1.692  11.814  19.771  0.00  0.00    +0.000 A 
ENDBRANCH  22  23
ENDBRANCH  20  22
ENDBRANCH   3  18
TORSDOF 4
ENDMDL
MODEL 3
REMARK VINA RESULT:      -7.6      1.489      1.768
REMARK  Name = 
REMARK  6 active torsions:
REMARK  status: ('A' for Active; 'I' for Inactive)
REMARK    1  A    between atoms: C_1  and  C_2
REMARK    2  A    between atoms: C_3  and  C_4
REMARK    3  A    between atoms: N_6  and  C_7
REMARK    4  A    between atoms: N_6  and  C_8
REMARK    5  A    between atoms: C_8  and  C_9
REMARK    6  A    between atoms: C_23  and  C_24
REMARK                            x       y       z     vdW  Elec       q    Type
REMARK                         _______ _______ _______ _____ _____    ______ ____
ROOT
ATOM      1  C   UNL     1      -0.619  12.566  21.435  0.00  0.00    +0.000 C 
ATOM      2  C   UNL     1      -1.434  11.859  20.382  0.00  0.00    +0.000 A 
ATOM      3  C   UNL     1      -0.883  10.799  19.630  0.00  0.00    +0.000 A 
ATOM      4  N   UNL     1      -1.483  10.297  18.529  0.00  0.00    +0.000 NA
ATOM      5  C   UNL     1      -2.640  10.808  18.126  0.00  0.00    +0.000 A 
ATOM      6  C   UNL     1      -3.166  10.282  16.952  0.00  0.00    +0.000 A 
ATOM      7  C   UNL     1      -4.357  10.729  16.402  0.00  0.00    +0.000 A 
ATOM      8  C   UNL     1      -5.044  11.753  17.034  0.00  0.00    +0.000 A 
ATOM      9  C   UNL     1      -4.532  12.294  18.215  0.00  0.00    +0.000 A 
ATOM     10  C   UNL     1      -3.333  11.823  18.820  0.00  0.00    +0.000 A 
ATOM     11  C   UNL     1      -2.758  12.312  20.050  0.00  0.00    +0.000 A 
ENDROOT
BRANCH  11  12
ATOM     12  C   UNL     1      -3.581  13.194  20.980  0.00  0.00    +0.000 A 
ATOM     13  C   UNL     1      -4.366  12.625  22.011  0.00  0.00    +0.000 A 
ATOM     14  C   UNL     1      -5.145  13.398  22.887  0.00  0.00    +0.000 A 
ATOM     15  C   UNL     1      -5.089  14.782  22.831  0.00  0.00    +0.000 A 
ATOM     16  C   UNL     1      -4.296  15.384  21.865  0.00  0.00    +0.000 A 
ATOM     17  C   UNL     1      -3.600  14.600  20.930  0.00  0.00    +0.000 A 
ENDBRANCH  11  12
BRANCH   3  18
ATOM     18  C   UNL     1       0.475  10.175  19.909  0.00  0.00    +0.000 C 
ATOM     19  O   UNL     1       1.460  10.637  19.326  0.00  0.00    +0.000 OA
ATOM     20  N   UNL     1       0.626   9.072  20.776  0.00  0.00    +0.000 N 
ATOM     21  C   UNL     1      -0.411   8.440  21.583  0.00  0.00    +0.000 C 
BRANCH  20  22
ATOM     22  C   UNL     1       1.960   8.466  20.882  0.00  0.00    +0.000 C 
BRANCH  22  23
ATOM     23  C   UNL     1       2.084   7.227  20.021  0.00  0.00    +0.000 A 
ATOM     24  C   UNL     1       2.404   7.342  18.658  0.00  0.00    +0.000 A 
ATOM     25  C   UNL     1       2.434   6.223  17.828  0.00  0.00    +0.000 A 
ATOM     26  C   UNL     1       2.158   4.963  18.352  0.00  0.00    +0.000 A 
ATOM     27  C   UNL     1       1.870   4.830  19.710  0.00  0.00    +0.000 A 
ATOM     28  I   UNL     1       1.457   2.945  20.486  0.00  0.00    +0.000 I 
ATOM     29  C   UNL     1       1.840   5.948  20.547  0.00  0.00    +0.000 A 
ENDBRANCH  22  23
ENDBRANCH  20  22
ENDBRANCH   3  18
TORSDOF 4
ENDMDL
MODEL 4
REMARK VINA RESULT:      -7.4      3.043      8.974
REMARK  Name = 
REMARK  6 active torsions:
REMARK  status: ('A' for Active; 'I' for Inactive)
REMARK    1  A    between atoms: C_1  and  C_2
REMARK    2  A    between atoms: C_3  and  C_4
REMARK    3  A    between atoms: N_6  and  C_7
REMARK    4  A    between atoms: N_6  and  C_8
REMARK    5  A    between atoms: C_8  and  C_9
REMARK    6  A    between atoms: C_23  and  C_24
REMARK                            x       y       z     vdW  Elec       q    Type
REMARK                         _______ _______ _______ _____ _____    ______ ____
ROOT
ATOM      1  C   UNL     1       4.516   8.133  17.360  0.00  0.00    +0.000 C 
ATOM      2  C   UNL     1       3.585   7.162  18.040  0.00  0.00    +0.000 A 
ATOM      3  C   UNL     1       2.387   7.605  18.639  0.00  0.00    +0.000 A 
ATOM      4  N   UNL     1       1.646   6.824  19.455  0.00  0.00    +0.000 NA
ATOM      5  C   UNL     1       2.047   5.585  19.712  0.00  0.00    +0.000 A 
ATOM      6  C   UNL     1       1.266   4.863  20.608  0.00  0.00    +0.000 A 
ATOM      7  C   UNL     1       1.572   3.565  20.984  0.00  0.00    +0.000 A 
ATOM      8  C   UNL     1       2.708   2.966  20.465  0.00  0.00    +0.000 A 
ATOM      9  C   UNL     1       3.504   3.675  19.563  0.00  0.00    +0.000 A 
ATOM     10  C   UNL     1       3.188   4.993  19.130  0.00  0.00    +0.000 A 
ATOM     11  C   UNL     1       3.945   5.777  18.183  0.00  0.00    +0.000 A 
ENDROOT
BRANCH  11  12
ATOM     12  C   UNL     1       5.010   5.111  17.320  0.00  0.00    +0.000 A 
ATOM     13  C   UNL     1       4.687   4.591  16.045  0.00  0.00    +0.000 A 
ATOM     14  C   UNL     1       5.632   3.965  15.217  0.00  0.00    +0.000 A 
ATOM     15  C   UNL     1       6.967   3.925  15.593  0.00  0.00    +0.000 A 
ATOM     16  C   UNL     1       7.337   4.464  16.816  0.00  0.00    +0.000 A 
ATOM     17  C   UNL     1       6.366   4.998  17.679  0.00  0.00    +0.000 A 
ENDBRANCH  11  12
BRANCH   3  18
ATOM     18  C   UNL     1       1.849   9.022  18.516  0.00  0.00    +0.000 C 
ATOM     19  O   UNL     1       2.063   9.638  17.468  0.00  0.00    +0.000 OA
ATOM     20  N   UNL     1       1.157   9.653  19.571  0.00  0.00    +0.000 N 
ATOM     21  C   UNL     1       0.771   9.062  20.848  0.00  0.00    +0.000 C 
BRANCH  20  22
ATOM     22  C   UNL     1       0.787  11.064  19.397  0.00  0.00    +0.000 C 
BRANCH  22  23
ATOM     23  C   UNL     1      -0.656  11.217  18.965  0.00  0.00    +0.000 A 
ATOM     24  C   UNL     1      -1.600  11.774  19.842  0.00  0.00    +0.000 A 
ATOM     25  C   UNL     1      -2.950  11.841  19.499  0.00  0.00    +0.000 A 
ATOM     26  C   UNL     1      -3.377  11.364  18.263  0.00  0.00    +0.000 A 
ATOM     27  C   UNL     1      -2.445  10.837  17.369  0.00  0.00    +0.000 A 
ATOM     28  I   UNL     1      -3.088  10.124  15.525  0.00  0.00    +0.000 I 
ATOM     29  C   UNL     1      -1.090  10.769  17.707  0.00  0.00    +0.000 A 
ENDBRANCH  22  23
ENDBRANCH  20  22
ENDBRANCH   3  18
TORSDOF 4
ENDMDL
MODEL 5
REMARK VINA RESULT:      -7.2      7.915     10.635
REMARK  Name = 
REMARK  6 active torsions:
REMARK  status: ('A' for Active; 'I' for Inactive)
REMARK    1  A    between atoms: C_1  and  C_2
REMARK    2  A    between atoms: C_3  and  C_4
REMARK    3  A    between atoms: N_6  and  C_7
REMARK    4  A    between atoms: N_6  and  C_8
REMARK    5  A    between atoms: C_8  and  C_9
REMARK    6  A    between atoms: C_23  and  C_24
REMARK                            x       y       z     vdW  Elec       q    Type
REMARK                         _______ _______ _______ _____ _____    ______ ____
ROOT
ATOM      1  C   UNL     1       5.120   6.196  19.130  0.00  0.00    +0.000 C 
ATOM      2  C   UNL     1       5.766   5.682  17.869  0.00  0.00    +0.000 A 
ATOM      3  C   UNL     1       7.039   6.142  17.467  0.00  0.00    +0.000 A 
ATOM      4  N   UNL     1       7.551   5.896  16.242  0.00  0.00    +0.000 NA
ATOM      5  C   UNL     1       6.841   5.191  15.368  0.00  0.00    +0.000 A 
ATOM      6  C   UNL     1       7.407   5.031  14.108  0.00  0.00    +0.000 A 
ATOM      7  C   UNL     1       6.775   4.336  13.091  0.00  0.00    +0.000 A 
ATOM      8  C   UNL     1       5.522   3.793  13.327  0.00  0.00    +0.000 A 
ATOM      9  C   UNL     1       4.938   3.943  14.586  0.00  0.00    +0.000 A 
ATOM     10  C   UNL     1       5.586   4.617  15.659  0.00  0.00    +0.000 A 
ATOM     11  C   UNL     1       5.059   4.788  16.992  0.00  0.00    +0.000 A 
ENDROOT
BRANCH  11  12
ATOM     12  C   UNL     1       3.858   3.969  17.449  0.00  0.00    +0.000 A 
ATOM     13  C   UNL     1       4.020   2.640  17.907  0.00  0.00    +0.000 A 
ATOM     14  C   UNL     1       2.942   1.846  18.332  0.00  0.00    +0.000 A 
ATOM     15  C   UNL     1       1.668   2.388  18.411  0.00  0.00    +0.000 A 
ATOM     16  C   UNL     1       1.471   3.703  18.015  0.00  0.00    +0.000 A 
ATOM     17  C   UNL     1       2.538   4.455  17.497  0.00  0.00    +0.000 A 
ENDBRANCH  11  12
BRANCH   3  18
ATOM     18  C   UNL     1       7.927   7.036  18.319  0.00  0.00    +0.000 C 
ATOM     19  O   UNL     1       8.587   6.513  19.221  0.00  0.00    +0.000 OA
ATOM     20  N   UNL     1       7.980   8.433  18.131  0.00  0.00    +0.000 N 
ATOM     21  C   UNL     1       7.314   9.206  17.088  0.00  0.00    +0.000 C 
BRANCH  20  22
ATOM     22  C   UNL     1       8.773   9.220  19.084  0.00  0.00    +0.000 C 
BRANCH  22  23
ATOM     23  C   UNL     1       9.193  10.552  18.500  0.00  0.00    +0.000 A 
ATOM     24  C   UNL     1      10.505  10.737  18.034  0.00  0.00    +0.000 A 
ATOM     25  C   UNL     1      10.938  11.981  17.577  0.00  0.00    +0.000 A 
ATOM     26  C   UNL     1      10.059  13.060  17.564  0.00  0.00    +0.000 A 
ATOM     27  C   UNL     1       8.745  12.883  17.993  0.00  0.00    +0.000 A 
ATOM     28  I   UNL     1       7.436  14.499  17.973  0.00  0.00    +0.000 I 
ATOM     29  C   UNL     1       8.304  11.638  18.452  0.00  0.00    +0.000 A 
ENDBRANCH  22  23
ENDBRANCH  20  22
ENDBRANCH   3  18
TORSDOF 4
ENDMDL
MODEL 6
REMARK VINA RESULT:      -7.0      3.338      9.195
REMARK  Name = 
REMARK  6 active torsions:
REMARK  status: ('A' for Active; 'I' for Inactive)
REMARK    1  A    between atoms: C_1  and  C_2
REMARK    2  A    between atoms: C_3  and  C_4
REMARK    3  A    between atoms: N_6  and  C_7
REMARK    4  A    between atoms: N_6  and  C_8
REMARK    5  A    between atoms: C_8  and  C_9
REMARK    6  A    between atoms: C_23  and  C_24
REMARK                            x       y       z     vdW  Elec       q    Type
REMARK                         _______ _______ _______ _____ _____    ______ ____
ROOT
ATOM      1  C   UNL     1       4.644   7.461  18.261  0.00  0.00    +0.000 C 
ATOM      2  C   UNL     1       3.638   6.346  18.390  0.00  0.00    +0.000 A 
ATOM      3  C   UNL     1       2.447   6.527  19.126  0.00  0.00    +0.000 A 
ATOM      4  N   UNL     1       1.636   5.501  19.466  0.00  0.00    +0.000 NA
ATOM      5  C   UNL     1       1.958   4.266  19.098  0.00  0.00    +0.000 A 
ATOM      6  C   UNL     1       1.109   3.256  19.536  0.00  0.00    +0.000 A 
ATOM      7  C   UNL     1       1.328   1.920  19.245  0.00  0.00    +0.000 A 
ATOM      8  C   UNL     1       2.445   1.569  18.504  0.00  0.00    +0.000 A 
ATOM      9  C   UNL     1       3.310   2.570  18.054  0.00  0.00    +0.000 A 
ATOM     10  C   UNL     1       3.083   3.952  18.306  0.00  0.00    +0.000 A 
ATOM     11  C   UNL     1       3.914   5.042  17.852  0.00  0.00    +0.000 A 
ENDROOT
BRANCH  11  12
ATOM     12  C   UNL     1       4.967   4.802  16.778  0.00  0.00    +0.000 A 
ATOM     13  C   UNL     1       4.607   4.739  15.412  0.00  0.00    +0.000 A 
ATOM     14  C   UNL     1       5.542   4.514  14.388  0.00  0.00    +0.000 A 
ATOM     15  C   UNL     1       6.895   4.445  14.686  0.00  0.00    +0.000 A 
ATOM     16  C   UNL     1       7.298   4.548  16.009  0.00  0.00    +0.000 A 
ATOM     17  C   UNL     1       6.346   4.672  17.033  0.00  0.00    +0.000 A 
ENDBRANCH  11  12
BRANCH   3  18
ATOM     18  C   UNL     1       1.994   7.862  19.696  0.00  0.00    +0.000 C 
ATOM     19  O   UNL     1       1.872   7.962  20.920  0.00  0.00    +0.000 OA
ATOM     20  N   UNL     1       1.677   8.959  18.867  0.00  0.00    +0.000 N 
ATOM     21  C   UNL     1       1.815   9.034  17.417  0.00  0.00    +0.000 C 
BRANCH  20  22
ATOM     22  C   UNL     1       1.132  10.162  19.509  0.00  0.00    +0.000 C 
BRANCH  22  23
ATOM     23  C   UNL     1      -0.293  10.433  19.074  0.00  0.00    +0.000 A 
ATOM     24  C   UNL     1      -0.797   9.850  17.900  0.00  0.00    +0.000 A 
ATOM     25  C   UNL     1      -2.074  10.157  17.433  0.00  0.00    +0.000 A 
ATOM     26  C   UNL     1      -2.877  11.045  18.143  0.00  0.00    +0.000 A 
ATOM     27  C   UNL     1      -2.403  11.606  19.328  0.00  0.00    +0.000 A 
ATOM     28  I   UNL     1      -3.607  12.933  20.385  0.00  0.00    +0.000 I 
ATOM     29  C   UNL     1      -1.123  11.301  19.801  0.00  0.00    +0.000 A 
ENDBRANCH  22  23
ENDBRANCH  20  22
ENDBRANCH   3  18
TORSDOF 4
ENDMDL
MODEL 7
REMARK VINA RESULT:      -6.9      1.699      2.084
REMARK  Name = 
REMARK  6 active torsions:
REMARK  status: ('A' for Active; 'I' for Inactive)
REMARK    1  A    between atoms: C_1  and  C_2
REMARK    2  A    between atoms: C_3  and  C_4
REMARK    3  A    between atoms: N_6  and  C_7
REMARK    4  A    between atoms: N_6  and  C_8
REMARK    5  A    between atoms: C_8  and  C_9
REMARK    6  A    between atoms: C_23  and  C_24
REMARK                            x       y       z     vdW  Elec       q    Type
REMARK                         _______ _______ _______ _____ _____    ______ ____
ROOT
ATOM      1  C   UNL     1      -0.242  11.896  21.045  0.00  0.00    +0.000 C 
ATOM      2  C   UNL     1      -1.037  11.254  19.937  0.00  0.00    +0.000 A 
ATOM      3  C   UNL     1      -0.518  10.161  19.212  0.00  0.00    +0.000 A 
ATOM      4  N   UNL     1      -1.081   9.708  18.070  0.00  0.00    +0.000 NA
ATOM      5  C   UNL     1      -2.170  10.305  17.599  0.00  0.00    +0.000 A 
ATOM      6  C   UNL     1      -2.657   9.823  16.389  0.00  0.00    +0.000 A 
ATOM      7  C   UNL     1      -3.774  10.358  15.770  0.00  0.00    +0.000 A 
ATOM      8  C   UNL     1      -4.423  11.427  16.365  0.00  0.00    +0.000 A 
ATOM      9  C   UNL     1      -3.950  11.925  17.581  0.00  0.00    +0.000 A 
ATOM     10  C   UNL     1      -2.830  11.365  18.257  0.00  0.00    +0.000 A 
ATOM     11  C   UNL     1      -2.300  11.805  19.525  0.00  0.00    +0.000 A 
ENDROOT
BRANCH  11  12
ATOM     12  C   UNL     1      -3.115  12.741  20.409  0.00  0.00    +0.000 A 
ATOM     13  C   UNL     1      -2.787  14.114  20.505  0.00  0.00    +0.000 A 
ATOM     14  C   UNL     1      -3.505  15.013  21.310  0.00  0.00    +0.000 A 
ATOM     15  C   UNL     1      -4.647  14.590  21.975  0.00  0.00    +0.000 A 
ATOM     16  C   UNL     1      -5.033  13.262  21.872  0.00  0.00    +0.000 A 
ATOM     17  C   UNL     1      -4.250  12.351  21.145  0.00  0.00    +0.000 A 
ENDBRANCH  11  12
BRANCH   3  18
ATOM     18  C   UNL     1       0.771   9.437  19.571  0.00  0.00    +0.000 C 
ATOM     19  O   UNL     1       1.758   9.611  18.851  0.00  0.00    +0.000 OA
ATOM     20  N   UNL     1       0.850   8.555  20.669  0.00  0.00    +0.000 N 
ATOM     21  C   UNL     1      -0.192   8.276  21.651  0.00  0.00    +0.000 C 
BRANCH  20  22
ATOM     22  C   UNL     1       2.104   7.813  20.858  0.00  0.00    +0.000 C 
BRANCH  22  23
ATOM     23  C   UNL     1       2.066   6.464  20.170  0.00  0.00    +0.000 A 
ATOM     24  C   UNL     1       1.169   5.475  20.605  0.00  0.00    +0.000 A 
ATOM     25  C   UNL     1       1.179   4.197  20.047  0.00  0.00    +0.000 A 
ATOM     26  C   UNL     1       2.081   3.892  19.031  0.00  0.00    +0.000 A 
ATOM     27  C   UNL     1       2.955   4.874  18.567  0.00  0.00    +0.000 A 
ATOM     28  I   UNL     1       4.300   4.411  17.050  0.00  0.00    +0.000 I 
ATOM     29  C   UNL     1       2.948   6.157  19.122  0.00  0.00    +0.000 A 
ENDBRANCH  22  23
ENDBRANCH  20  22
ENDBRANCH   3  18
TORSDOF 4
ENDMDL
MODEL 8
REMARK VINA RESULT:      -6.9      3.816      9.160
REMARK  Name = 
REMARK  6 active torsions:
REMARK  status: ('A' for Active; 'I' for Inactive)
REMARK    1  A    between atoms: C_1  and  C_2
REMARK    2  A    between atoms: C_3  and  C_4
REMARK    3  A    between atoms: N_6  and  C_7
REMARK    4  A    between atoms: N_6  and  C_8
REMARK    5  A    between atoms: C_8  and  C_9
REMARK    6  A    between atoms: C_23  and  C_24
REMARK                            x       y       z     vdW  Elec       q    Type
REMARK                         _______ _______ _______ _____ _____    ______ ____
ROOT
ATOM      1  C   UNL     1       3.861   8.153  17.456  0.00  0.00    +0.000 C 
ATOM      2  C   UNL     1       3.225   7.021  18.222  0.00  0.00    +0.000 A 
ATOM      3  C   UNL     1       2.032   7.218  18.950  0.00  0.00    +0.000 A 
ATOM      4  N   UNL     1       1.558   6.312  19.833  0.00  0.00    +0.000 NA
ATOM      5  C   UNL     1       2.228   5.183  20.032  0.00  0.00    +0.000 A 
ATOM      6  C   UNL     1       1.711   4.328  20.999  0.00  0.00    +0.000 A 
ATOM      7  C   UNL     1       2.312   3.124  21.327  0.00  0.00    +0.000 A 
ATOM      8  C   UNL     1       3.484   2.763  20.683  0.00  0.00    +0.000 A 
ATOM      9  C   UNL     1       4.019   3.608  19.708  0.00  0.00    +0.000 A 
ATOM     10  C   UNL     1       3.397   4.830  19.325  0.00  0.00    +0.000 A 
ATOM     11  C   UNL     1       3.872   5.739  18.311  0.00  0.00    +0.000 A 
ENDROOT
BRANCH  11  12
ATOM     12  C   UNL     1       4.951   5.294  17.332  0.00  0.00    +0.000 A 
ATOM     13  C   UNL     1       6.321   5.375  17.678  0.00  0.00    +0.000 A 
ATOM     14  C   UNL     1       7.350   4.983  16.806  0.00  0.00    +0.000 A 
ATOM     15  C   UNL     1       7.042   4.396  15.588  0.00  0.00    +0.000 A 
ATOM     16  C   UNL     1       5.711   4.254  15.227  0.00  0.00    +0.000 A 
ATOM     17  C   UNL     1       4.693   4.742  16.063  0.00  0.00    +0.000 A 
ENDBRANCH  11  12
BRANCH   3  18
ATOM     18  C   UNL     1       1.207   8.495  18.900  0.00  0.00    +0.000 C 
ATOM     19  O   UNL     1       0.688   8.811  17.826  0.00  0.00    +0.000 OA
ATOM     20  N   UNL     1       1.059   9.332  20.024  0.00  0.00    +0.000 N 
ATOM     21  C   UNL     1       1.553   9.088  21.375  0.00  0.00    +0.000 C 
BRANCH  20  22
ATOM     22  C   UNL     1       0.346  10.603  19.838  0.00  0.00    +0.000 C 
BRANCH  22  23
ATOM     23  C   UNL     1       1.299  11.746  19.558  0.00  0.00    +0.000 A 
ATOM     24  C   UNL     1       2.001  11.798  18.343  0.00  0.00    +0.000 A 
ATOM     25  C   UNL     1       2.950  12.790  18.101  0.00  0.00    +0.000 A 
ATOM     26  C   UNL     1       3.203  13.759  19.068  0.00  0.00    +0.000 A 
ATOM     27  C   UNL     1       2.490  13.738  20.266  0.00  0.00    +0.000 A 
ATOM     28  I   UNL     1       2.873  15.187  21.708  0.00  0.00    +0.000 I 
ATOM     29  C   UNL     1       1.536  12.746  20.514  0.00  0.00    +0.000 A 
ENDBRANCH  22  23
ENDBRANCH  20  22
ENDBRANCH   3  18
TORSDOF 4
ENDMDL
MODEL 9
REMARK VINA RESULT:      -6.8      3.511      9.262
REMARK  Name = 
REMARK  6 active torsions:
REMARK  status: ('A' for Active; 'I' for Inactive)
REMARK    1  A    between atoms: C_1  and  C_2
REMARK    2  A    between atoms: C_3  and  C_4
REMARK    3  A    between atoms: N_6  and  C_7
REMARK    4  A    between atoms: N_6  and  C_8
REMARK    5  A    between atoms: C_8  and  C_9
REMARK    6  A    between atoms: C_23  and  C_24
REMARK                            x       y       z     vdW  Elec       q    Type
REMARK                         _______ _______ _______ _____ _____    ______ ____
ROOT
ATOM      1  C   UNL     1       4.200   7.944  17.499  0.00  0.00    +0.000 C 
ATOM      2  C   UNL     1       3.431   6.882  18.243  0.00  0.00    +0.000 A 
ATOM      3  C   UNL     1       2.231   7.195  18.916  0.00  0.00    +0.000 A 
ATOM      4  N   UNL     1       1.637   6.345  19.783  0.00  0.00    +0.000 NA
ATOM      5  C   UNL     1       2.193   5.162  20.019  0.00  0.00    +0.000 A 
ATOM      6  C   UNL     1       1.558   4.368  20.967  0.00  0.00    +0.000 A 
ATOM      7  C   UNL     1       2.032   3.117  21.329  0.00  0.00    +0.000 A 
ATOM      8  C   UNL     1       3.193   2.644  20.740  0.00  0.00    +0.000 A 
ATOM      9  C   UNL     1       3.844   3.427  19.784  0.00  0.00    +0.000 A 
ATOM     10  C   UNL     1       3.354   4.697  19.367  0.00  0.00    +0.000 A 
ATOM     11  C   UNL     1       3.954   5.549  18.368  0.00  0.00    +0.000 A 
ENDROOT
BRANCH  11  12
ATOM     12  C   UNL     1       5.030   4.997  17.441  0.00  0.00    +0.000 A 
ATOM     13  C   UNL     1       4.694   4.489  16.164  0.00  0.00    +0.000 A 
ATOM     14  C   UNL     1       5.649   3.966  15.278  0.00  0.00    +0.000 A 
ATOM     15  C   UNL     1       6.998   4.024  15.597  0.00  0.00    +0.000 A 
ATOM     16  C   UNL     1       7.377   4.557  16.820  0.00  0.00    +0.000 A 
ATOM     17  C   UNL     1       6.405   4.985  17.739  0.00  0.00    +0.000 A 
ENDBRANCH  11  12
BRANCH   3  18
ATOM     18  C   UNL     1       1.529   8.541  18.821  0.00  0.00    +0.000 C 
ATOM     19  O   UNL     1       1.152   8.925  17.711  0.00  0.00    +0.000 OA
ATOM     20  N   UNL     1       1.337   9.364  19.950  0.00  0.00    +0.000 N 
ATOM     21  C   UNL     1       1.667   9.048  21.336  0.00  0.00    +0.000 C 
BRANCH  20  22
ATOM     22  C   UNL     1       0.760  10.697  19.732  0.00  0.00    +0.000 C 
BRANCH  22  23
ATOM     23  C   UNL     1       0.075  11.223  20.976  0.00  0.00    +0.000 A 
ATOM     24  C   UNL     1      -0.593  10.341  21.841  0.00  0.00    +0.000 A 
ATOM     25  C   UNL     1      -1.305  10.814  22.942  0.00  0.00    +0.000 A 
ATOM     26  C   UNL     1      -1.350  12.180  23.205  0.00  0.00    +0.000 A 
ATOM     27  C   UNL     1      -0.664  13.064  22.373  0.00  0.00    +0.000 A 
ATOM     28  I   UNL     1      -0.736  15.105  22.770  0.00  0.00    +0.000 I 
ATOM     29  C   UNL     1       0.053  12.596  21.268  0.00  0.00    +0.000 A 
ENDBRANCH  22  23
ENDBRANCH  20  22
ENDBRANCH   3  18
TORSDOF 4
ENDMDL
