MODEL 1
REMARK VINA RESULT:      -5.4      0.000      0.000
REMARK  Name = 
REMARK  8 active torsions:
REMARK  status: ('A' for Active; 'I' for Inactive)
REMARK    1  A    between atoms: C_1  and  N_2
REMARK    2  A    between atoms: C_6  and  S_7
REMARK    3  A    between atoms: S_7  and  C_8
REMARK    4  A    between atoms: C_8  and  C_9
REMARK    5  A    between atoms: C_9  and  C_10
REMARK    6  A    between atoms: C_10  and  C_11
REMARK    7  A    between atoms: C_11  and  C_12
REMARK    8  A    between atoms: C_12  and  O_14
REMARK                            x       y       z     vdW  Elec       q    Type
REMARK                         _______ _______ _______ _____ _____    ______ ____
ROOT
ATOM      1  C   UNL     1       3.371   5.835  18.465  0.00  0.00    +0.000 C 
ENDROOT
BRANCH   1   2
ATOM      2  S   UNL     1       2.281   4.434  18.047  0.00  0.00    +0.000 S 
BRANCH   2   8
ATOM      3  C   UNL     1       4.315   2.512  19.608  0.00  0.00    +0.000 C 
ATOM      4  N   UNL     1       3.039   2.892  20.165  0.00  0.00    +0.000 N 
ATOM      5  C   UNL     1       2.569   2.500  21.391  0.00  0.00    +0.000 A 
ATOM      6  C   UNL     1       1.323   3.074  21.494  0.00  0.00    +0.000 A 
ATOM      7  N   UNL     1       1.028   3.809  20.374  0.00  0.00    +0.000 NA
ATOM      8  C   UNL     1       2.079   3.687  19.595  0.00  0.00    +0.000 A 
ENDBRANCH   2   8
ENDBRANCH   1   2
BRANCH   1   9
ATOM      9  C   UNL     1       4.752   5.701  17.808  0.00  0.00    +0.000 C 
BRANCH   9  10
ATOM     10  C   UNL     1       4.701   5.023  16.434  0.00  0.00    +0.000 C 
BRANCH  10  11
ATOM     11  C   UNL     1       5.846   4.034  16.218  0.00  0.00    +0.000 C 
BRANCH  11  12
ATOM     12  C   UNL     1       7.185   4.735  16.294  0.00  0.00    +0.000 C 
ATOM     13  O   UNL     1       7.511   5.715  15.643  0.00  0.00    +0.000 OA
BRANCH  12  14
ATOM     14  O   UNL     1       8.025   4.156  17.185  0.00  0.00    +0.000 OA
ATOM     15  H   UNL     1       7.609   3.963  18.047  0.00  0.00    +0.000 HD
ENDBRANCH  12  14
ENDBRANCH  11  12
ENDBRANCH  10  11
ENDBRANCH   9  10
ENDBRANCH   1   9
TORSDOF 7
ENDMDL
MODEL 2
REMARK VINA RESULT:      -5.3      1.606      2.176
REMARK  Name = 
REMARK  8 active torsions:
REMARK  status: ('A' for Active; 'I' for Inactive)
REMARK    1  A    between atoms: C_1  and  N_2
REMARK    2  A    between atoms: C_6  and  S_7
REMARK    3  A    between atoms: S_7  and  C_8
REMARK    4  A    between atoms: C_8  and  C_9
REMARK    5  A    between atoms: C_9  and  C_10
REMARK    6  A    between atoms: C_10  and  C_11
REMARK    7  A    between atoms: C_11  and  C_12
REMARK    8  A    between atoms: C_12  and  O_14
REMARK                            x       y       z     vdW  Elec       q    Type
REMARK                         _______ _______ _______ _____ _____    ______ ____
ROOT
ATOM      1  C   UNL     1       3.909   6.401  17.977  0.00  0.00    +0.000 C 
ENDROOT
BRANCH   1   2
ATOM      2  S   UNL     1       4.180   5.272  19.384  0.00  0.00    +0.000 S 
BRANCH   2   8
ATOM      3  C   UNL     1       2.532   3.180  21.165  0.00  0.00    +0.000 C 
ATOM      4  N   UNL     1       2.632   3.055  19.731  0.00  0.00    +0.000 N 
ATOM      5  C   UNL     1       2.041   2.068  18.985  0.00  0.00    +0.000 A 
ATOM      6  C   UNL     1       2.417   2.328  17.689  0.00  0.00    +0.000 A 
ATOM      7  N   UNL     1       3.208   3.447  17.624  0.00  0.00    +0.000 NA
ATOM      8  C   UNL     1       3.315   3.867  18.864  0.00  0.00    +0.000 A 
ENDBRANCH   2   8
ENDBRANCH   1   2
BRANCH   1   9
ATOM      9  C   UNL     1       5.207   6.679  17.207  0.00  0.00    +0.000 C 
BRANCH   9  10
ATOM     10  C   UNL     1       5.184   6.136  15.774  0.00  0.00    +0.000 C 
BRANCH  10  11
ATOM     11  C   UNL     1       6.495   5.461  15.373  0.00  0.00    +0.000 C 
BRANCH  11  12
ATOM     12  C   UNL     1       6.891   4.411  16.389  0.00  0.00    +0.000 C 
ATOM     13  O   UNL     1       7.924   4.407  17.039  0.00  0.00    +0.000 OA
BRANCH  12  14
ATOM     14  O   UNL     1       5.959   3.437  16.520  0.00  0.00    +0.000 OA
ATOM     15  H   UNL     1       5.537   3.184  15.677  0.00  0.00    +0.000 HD
ENDBRANCH  12  14
ENDBRANCH  11  12
ENDBRANCH  10  11
ENDBRANCH   9  10
ENDBRANCH   1   9
TORSDOF 7
ENDMDL
MODEL 3
REMARK VINA RESULT:      -5.3      3.416      5.479
REMARK  Name = 
REMARK  8 active torsions:
REMARK  status: ('A' for Active; 'I' for Inactive)
REMARK    1  A    between atoms: C_1  and  N_2
REMARK    2  A    between atoms: C_6  and  S_7
REMARK    3  A    between atoms: S_7  and  C_8
REMARK    4  A    between atoms: C_8  and  C_9
REMARK    5  A    between atoms: C_9  and  C_10
REMARK    6  A    between atoms: C_10  and  C_11
REMARK    7  A    between atoms: C_11  and  C_12
REMARK    8  A    between atoms: C_12  and  O_14
REMARK                            x       y       z     vdW  Elec       q    Type
REMARK                         _______ _______ _______ _____ _____    ______ ____
ROOT
ATOM      1  C   UNL     1       2.258   3.916  17.859  0.00  0.00    +0.000 C 
ENDROOT
BRANCH   1   2
ATOM      2  S   UNL     1       3.699   2.804  17.761  0.00  0.00    +0.000 S 
BRANCH   2   8
ATOM      3  C   UNL     1       5.858   4.102  15.781  0.00  0.00    +0.000 C 
ATOM      4  N   UNL     1       5.845   4.388  17.195  0.00  0.00    +0.000 N 
ATOM      5  C   UNL     1       6.716   5.232  17.834  0.00  0.00    +0.000 A 
ATOM      6  C   UNL     1       6.350   5.184  19.159  0.00  0.00    +0.000 A 
ATOM      7  N   UNL     1       5.278   4.347  19.341  0.00  0.00    +0.000 NA
ATOM      8  C   UNL     1       4.992   3.888  18.144  0.00  0.00    +0.000 A 
ENDBRANCH   2   8
ENDBRANCH   1   2
BRANCH   1   9
ATOM      9  C   UNL     1       1.226   3.427  18.885  0.00  0.00    +0.000 C 
BRANCH   9  10
ATOM     10  C   UNL     1       1.020   4.408  20.045  0.00  0.00    +0.000 C 
BRANCH  10  11
ATOM     11  C   UNL     1       2.159   4.369  21.064  0.00  0.00    +0.000 C 
BRANCH  11  12
ATOM     12  C   UNL     1       2.337   2.973  21.619  0.00  0.00    +0.000 C 
ATOM     13  O   UNL     1       1.506   2.354  22.263  0.00  0.00    +0.000 OA
BRANCH  12  14
ATOM     14  O   UNL     1       3.550   2.448  21.325  0.00  0.00    +0.000 OA
ATOM     15  H   UNL     1       4.274   3.103  21.338  0.00  0.00    +0.000 HD
ENDBRANCH  12  14
ENDBRANCH  11  12
ENDBRANCH  10  11
ENDBRANCH   9  10
ENDBRANCH   1   9
TORSDOF 7
ENDMDL
MODEL 4
REMARK VINA RESULT:      -5.2      3.735      5.748
REMARK  Name = 
REMARK  8 active torsions:
REMARK  status: ('A' for Active; 'I' for Inactive)
REMARK    1  A    between atoms: C_1  and  N_2
REMARK    2  A    between atoms: C_6  and  S_7
REMARK    3  A    between atoms: S_7  and  C_8
REMARK    4  A    between atoms: C_8  and  C_9
REMARK    5  A    between atoms: C_9  and  C_10
REMARK    6  A    between atoms: C_10  and  C_11
REMARK    7  A    between atoms: C_11  and  C_12
REMARK    8  A    between atoms: C_12  and  O_14
REMARK                            x       y       z     vdW  Elec       q    Type
REMARK                         _______ _______ _______ _____ _____    ______ ____
ROOT
ATOM      1  C   UNL     1       3.114   4.406  17.673  0.00  0.00    +0.000 C 
ENDROOT
BRANCH   1   2
ATOM      2  S   UNL     1       4.358   3.383  18.528  0.00  0.00    +0.000 S 
BRANCH   2   8
ATOM      3  C   UNL     1       6.193   4.131  16.009  0.00  0.00    +0.000 C 
ATOM      4  N   UNL     1       6.438   4.672  17.325  0.00  0.00    +0.000 N 
ATOM      5  C   UNL     1       7.442   5.552  17.638  0.00  0.00    +0.000 A 
ATOM      6  C   UNL     1       7.309   5.776  18.988  0.00  0.00    +0.000 A 
ATOM      7  N   UNL     1       6.251   5.069  19.500  0.00  0.00    +0.000 NA
ATOM      8  C   UNL     1       5.742   4.420  18.478  0.00  0.00    +0.000 A 
ENDBRANCH   2   8
ENDBRANCH   1   2
BRANCH   1   9
ATOM      9  C   UNL     1       2.406   5.371  18.636  0.00  0.00    +0.000 C 
BRANCH   9  10
ATOM     10  C   UNL     1       2.471   4.916  20.098  0.00  0.00    +0.000 C 
BRANCH  10  11
ATOM     11  C   UNL     1       1.164   4.290  20.584  0.00  0.00    +0.000 C 
BRANCH  11  12
ATOM     12  C   UNL     1       1.392   2.870  21.059  0.00  0.00    +0.000 C 
ATOM     13  O   UNL     1       1.477   2.517  22.223  0.00  0.00    +0.000 OA
BRANCH  12  14
ATOM     14  O   UNL     1       1.498   1.991  20.034  0.00  0.00    +0.000 OA
ATOM     15  H   UNL     1       0.650   1.572  19.788  0.00  0.00    +0.000 HD
ENDBRANCH  12  14
ENDBRANCH  11  12
ENDBRANCH  10  11
ENDBRANCH   9  10
ENDBRANCH   1   9
TORSDOF 7
ENDMDL
MODEL 5
REMARK VINA RESULT:      -5.2      1.109      1.406
REMARK  Name = 
REMARK  8 active torsions:
REMARK  status: ('A' for Active; 'I' for Inactive)
REMARK    1  A    between atoms: C_1  and  N_2
REMARK    2  A    between atoms: C_6  and  S_7
REMARK    3  A    between atoms: S_7  and  C_8
REMARK    4  A    between atoms: C_8  and  C_9
REMARK    5  A    between atoms: C_9  and  C_10
REMARK    6  A    between atoms: C_10  and  C_11
REMARK    7  A    between atoms: C_11  and  C_12
REMARK    8  A    between atoms: C_12  and  O_14
REMARK                            x       y       z     vdW  Elec       q    Type
REMARK                         _______ _______ _______ _____ _____    ______ ____
ROOT
ATOM      1  C   UNL     1       4.274   5.742  18.733  0.00  0.00    +0.000 C 
ENDROOT
BRANCH   1   2
ATOM      2  S   UNL     1       2.483   5.729  18.393  0.00  0.00    +0.000 S 
BRANCH   2   8
ATOM      3  C   UNL     1       2.587   2.618  17.630  0.00  0.00    +0.000 C 
ATOM      4  N   UNL     1       2.081   3.080  18.901  0.00  0.00    +0.000 N 
ATOM      5  C   UNL     1       1.615   2.268  19.903  0.00  0.00    +0.000 A 
ATOM      6  C   UNL     1       1.223   3.127  20.902  0.00  0.00    +0.000 A 
ATOM      7  N   UNL     1       1.446   4.432  20.542  0.00  0.00    +0.000 NA
ATOM      8  C   UNL     1       1.968   4.373  19.338  0.00  0.00    +0.000 A 
ENDBRANCH   2   8
ENDBRANCH   1   2
BRANCH   1   9
ATOM      9  C   UNL     1       5.084   6.211  17.516  0.00  0.00    +0.000 C 
BRANCH   9  10
ATOM     10  C   UNL     1       4.825   5.371  16.261  0.00  0.00    +0.000 C 
BRANCH  10  11
ATOM     11  C   UNL     1       5.766   4.173  16.144  0.00  0.00    +0.000 C 
BRANCH  11  12
ATOM     12  C   UNL     1       7.212   4.617  16.203  0.00  0.00    +0.000 C 
ATOM     13  O   UNL     1       8.006   4.335  17.087  0.00  0.00    +0.000 OA
BRANCH  12  14
ATOM     14  O   UNL     1       7.562   5.387  15.146  0.00  0.00    +0.000 OA
ATOM     15  H   UNL     1       7.126   6.260  15.135  0.00  0.00    +0.000 HD
ENDBRANCH  12  14
ENDBRANCH  11  12
ENDBRANCH  10  11
ENDBRANCH   9  10
ENDBRANCH   1   9
TORSDOF 7
ENDMDL
MODEL 6
REMARK VINA RESULT:      -5.2      1.797      2.257
REMARK  Name = 
REMARK  8 active torsions:
REMARK  status: ('A' for Active; 'I' for Inactive)
REMARK    1  A    between atoms: C_1  and  N_2
REMARK    2  A    between atoms: C_6  and  S_7
REMARK    3  A    between atoms: S_7  and  C_8
REMARK    4  A    between atoms: C_8  and  C_9
REMARK    5  A    between atoms: C_9  and  C_10
REMARK    6  A    between atoms: C_10  and  C_11
REMARK    7  A    between atoms: C_11  and  C_12
REMARK    8  A    between atoms: C_12  and  O_14
REMARK                            x       y       z     vdW  Elec       q    Type
REMARK                         _______ _______ _______ _____ _____    ______ ____
ROOT
ATOM      1  C   UNL     1       5.073   4.218  18.852  0.00  0.00    +0.000 C 
ENDROOT
BRANCH   1   2
ATOM      2  S   UNL     1       3.638   4.902  17.960  0.00  0.00    +0.000 S 
BRANCH   2   8
ATOM      3  C   UNL     1       2.036   5.056  20.731  0.00  0.00    +0.000 C 
ATOM      4  N   UNL     1       1.746   4.055  19.732  0.00  0.00    +0.000 N 
ATOM      5  C   UNL     1       0.775   3.094  19.841  0.00  0.00    +0.000 A 
ATOM      6  C   UNL     1       0.869   2.360  18.683  0.00  0.00    +0.000 A 
ATOM      7  N   UNL     1       1.860   2.851  17.871  0.00  0.00    +0.000 NA
ATOM      8  C   UNL     1       2.365   3.873  18.523  0.00  0.00    +0.000 A 
ENDBRANCH   2   8
ENDBRANCH   1   2
BRANCH   1   9
ATOM      9  C   UNL     1       6.110   5.300  19.185  0.00  0.00    +0.000 C 
BRANCH   9  10
ATOM     10  C   UNL     1       6.930   5.742  17.968  0.00  0.00    +0.000 C 
BRANCH  10  11
ATOM     11  C   UNL     1       7.510   4.565  17.184  0.00  0.00    +0.000 C 
BRANCH  11  12
ATOM     12  C   UNL     1       7.073   4.617  15.736  0.00  0.00    +0.000 C 
ATOM     13  O   UNL     1       7.543   5.348  14.879  0.00  0.00    +0.000 OA
BRANCH  12  14
ATOM     14  O   UNL     1       6.074   3.745  15.463  0.00  0.00    +0.000 OA
ATOM     15  H   UNL     1       5.452   4.062  14.780  0.00  0.00    +0.000 HD
ENDBRANCH  12  14
ENDBRANCH  11  12
ENDBRANCH  10  11
ENDBRANCH   9  10
ENDBRANCH   1   9
TORSDOF 7
ENDMDL
MODEL 7
REMARK VINA RESULT:      -5.1      1.489      2.440
REMARK  Name = 
REMARK  8 active torsions:
REMARK  status: ('A' for Active; 'I' for Inactive)
REMARK    1  A    between atoms: C_1  and  N_2
REMARK    2  A    between atoms: C_6  and  S_7
REMARK    3  A    between atoms: S_7  and  C_8
REMARK    4  A    between atoms: C_8  and  C_9
REMARK    5  A    between atoms: C_9  and  C_10
REMARK    6  A    between atoms: C_10  and  C_11
REMARK    7  A    between atoms: C_11  and  C_12
REMARK    8  A    between atoms: C_12  and  O_14
REMARK                            x       y       z     vdW  Elec       q    Type
REMARK                         _______ _______ _______ _____ _____    ______ ____
ROOT
ATOM      1  C   UNL     1       4.543   4.168  16.592  0.00  0.00    +0.000 C 
ENDROOT
BRANCH   1   2
ATOM      2  S   UNL     1       3.110   4.620  17.625  0.00  0.00    +0.000 S 
BRANCH   2   8
ATOM      3  C   UNL     1       1.170   4.168  20.135  0.00  0.00    +0.000 C 
ATOM      4  N   UNL     1       2.457   3.520  20.033  0.00  0.00    +0.000 N 
ATOM      5  C   UNL     1       2.976   2.654  20.959  0.00  0.00    +0.000 A 
ATOM      6  C   UNL     1       4.212   2.306  20.467  0.00  0.00    +0.000 A 
ATOM      7  N   UNL     1       4.453   2.925  19.267  0.00  0.00    +0.000 NA
ATOM      8  C   UNL     1       3.379   3.644  19.027  0.00  0.00    +0.000 A 
ENDBRANCH   2   8
ENDBRANCH   1   2
BRANCH   1   9
ATOM      9  C   UNL     1       5.286   5.406  16.069  0.00  0.00    +0.000 C 
BRANCH   9  10
ATOM     10  C   UNL     1       5.596   6.429  17.167  0.00  0.00    +0.000 C 
BRANCH  10  11
ATOM     11  C   UNL     1       7.065   6.421  17.589  0.00  0.00    +0.000 C 
BRANCH  11  12
ATOM     12  C   UNL     1       7.416   5.127  18.292  0.00  0.00    +0.000 C 
ATOM     13  O   UNL     1       8.236   4.309  17.907  0.00  0.00    +0.000 OA
BRANCH  12  14
ATOM     14  O   UNL     1       6.710   4.949  19.434  0.00  0.00    +0.000 OA
ATOM     15  H   UNL     1       6.892   5.623  20.117  0.00  0.00    +0.000 HD
ENDBRANCH  12  14
ENDBRANCH  11  12
ENDBRANCH  10  11
ENDBRANCH   9  10
ENDBRANCH   1   9
TORSDOF 7
ENDMDL
MODEL 8
REMARK VINA RESULT:      -5.1      1.908      2.506
REMARK  Name = 
REMARK  8 active torsions:
REMARK  status: ('A' for Active; 'I' for Inactive)
REMARK    1  A    between atoms: C_1  and  N_2
REMARK    2  A    between atoms: C_6  and  S_7
REMARK    3  A    between atoms: S_7  and  C_8
REMARK    4  A    between atoms: C_8  and  C_9
REMARK    5  A    between atoms: C_9  and  C_10
REMARK    6  A    between atoms: C_10  and  C_11
REMARK    7  A    between atoms: C_11  and  C_12
REMARK    8  A    between atoms: C_12  and  O_14
REMARK                            x       y       z     vdW  Elec       q    Type
REMARK                         _______ _______ _______ _____ _____    ______ ____
ROOT
ATOM      1  C   UNL     1       4.460   4.229  16.726  0.00  0.00    +0.000 C 
ENDROOT
BRANCH   1   2
ATOM      2  S   UNL     1       3.417   5.259  17.810  0.00  0.00    +0.000 S 
BRANCH   2   8
ATOM      3  C   UNL     1       1.903   5.243  20.634  0.00  0.00    +0.000 C 
ATOM      4  N   UNL     1       1.706   4.203  19.652  0.00  0.00    +0.000 N 
ATOM      5  C   UNL     1       0.866   3.131  19.801  0.00  0.00    +0.000 A 
ATOM      6  C   UNL     1       1.011   2.402  18.644  0.00  0.00    +0.000 A 
ATOM      7  N   UNL     1       1.905   3.004  17.795  0.00  0.00    +0.000 NA
ATOM      8  C   UNL     1       2.302   4.087  18.423  0.00  0.00    +0.000 A 
ENDBRANCH   2   8
ENDBRANCH   1   2
BRANCH   1   9
ATOM      9  C   UNL     1       5.439   5.075  15.899  0.00  0.00    +0.000 C 
BRANCH   9  10
ATOM     10  C   UNL     1       6.905   4.837  16.276  0.00  0.00    +0.000 C 
BRANCH  10  11
ATOM     11  C   UNL     1       7.207   5.181  17.734  0.00  0.00    +0.000 C 
BRANCH  11  12
ATOM     12  C   UNL     1       7.686   6.611  17.860  0.00  0.00    +0.000 C 
ATOM     13  O   UNL     1       7.544   7.485  17.020  0.00  0.00    +0.000 OA
BRANCH  12  14
ATOM     14  O   UNL     1       8.314   6.846  19.038  0.00  0.00    +0.000 OA
ATOM     15  H   UNL     1       7.818   7.440  19.634  0.00  0.00    +0.000 HD
ENDBRANCH  12  14
ENDBRANCH  11  12
ENDBRANCH  10  11
ENDBRANCH   9  10
ENDBRANCH   1   9
TORSDOF 7
ENDMDL
MODEL 9
REMARK VINA RESULT:      -5.1      1.239      1.540
REMARK  Name = 
REMARK  8 active torsions:
REMARK  status: ('A' for Active; 'I' for Inactive)
REMARK    1  A    between atoms: C_1  and  N_2
REMARK    2  A    between atoms: C_6  and  S_7
REMARK    3  A    between atoms: S_7  and  C_8
REMARK    4  A    between atoms: C_8  and  C_9
REMARK    5  A    between atoms: C_9  and  C_10
REMARK    6  A    between atoms: C_10  and  C_11
REMARK    7  A    between atoms: C_11  and  C_12
REMARK    8  A    between atoms: C_12  and  O_14
REMARK                            x       y       z     vdW  Elec       q    Type
REMARK                         _______ _______ _______ _____ _____    ______ ____
ROOT
ATOM      1  C   UNL     1       4.082   5.485  18.030  0.00  0.00    +0.000 C 
ENDROOT
BRANCH   1   2
ATOM      2  S   UNL     1       3.034   4.044  17.642  0.00  0.00    +0.000 S 
BRANCH   2   8
ATOM      3  C   UNL     1       4.447   2.285  19.918  0.00  0.00    +0.000 C 
ATOM      4  N   UNL     1       3.144   2.878  20.105  0.00  0.00    +0.000 N 
ATOM      5  C   UNL     1       2.390   2.774  21.245  0.00  0.00    +0.000 A 
ATOM      6  C   UNL     1       1.234   3.466  20.970  0.00  0.00    +0.000 A 
ATOM      7  N   UNL     1       1.268   3.994  19.705  0.00  0.00    +0.000 NA
ATOM      8  C   UNL     1       2.430   3.631  19.210  0.00  0.00    +0.000 A 
ENDBRANCH   2   8
ENDBRANCH   1   2
BRANCH   1   9
ATOM      9  C   UNL     1       4.620   6.160  16.760  0.00  0.00    +0.000 C 
BRANCH   9  10
ATOM     10  C   UNL     1       6.050   5.733  16.412  0.00  0.00    +0.000 C 
BRANCH  10  11
ATOM     11  C   UNL     1       7.081   6.228  17.425  0.00  0.00    +0.000 C 
BRANCH  11  12
ATOM     12  C   UNL     1       7.658   5.072  18.214  0.00  0.00    +0.000 C 
ATOM     13  O   UNL     1       8.300   4.145  17.747  0.00  0.00    +0.000 OA
BRANCH  12  14
ATOM     14  O   UNL     1       7.388   5.160  19.538  0.00  0.00    +0.000 OA
ATOM     15  H   UNL     1       7.169   6.064  19.834  0.00  0.00    +0.000 HD
ENDBRANCH  12  14
ENDBRANCH  11  12
ENDBRANCH  10  11
ENDBRANCH   9  10
ENDBRANCH   1   9
TORSDOF 7
ENDMDL
