MODEL 1
REMARK VINA RESULT:      -8.3      0.000      0.000
REMARK  Name = 
REMARK  9 active torsions:
REMARK  status: ('A' for Active; 'I' for Inactive)
REMARK    1  A    between atoms: N_1  and  C_2
REMARK    2  A    between atoms: C_2  and  C_3
REMARK    3  A    between atoms: C_2  and  C_14
REMARK    4  A    between atoms: N_5  and  C_6
REMARK    5  A    between atoms: C_6  and  C_7
REMARK    6  A    between atoms: C_7  and  C_8
REMARK    7  A    between atoms: C_14  and  O_15
REMARK    8  A    between atoms: C_14  and  C_16
REMARK    9  A    between atoms: C_19  and  N_20
REMARK                            x       y       z     vdW  Elec       q    Type
REMARK                         _______ _______ _______ _____ _____    ______ ____
ROOT
ATOM      1  C   UNL     1       6.725   5.819  16.928  0.00  0.00    +0.000 C 
ENDROOT
BRANCH   1   2
ATOM      2  C   UNL     1       7.516   6.603  18.002  0.00  0.00    +0.000 C 
ATOM      3  O   UNL     1       7.922   6.058  19.025  0.00  0.00    +0.000 OA
ATOM      4  N   UNL     1       7.830   7.900  17.667  0.00  0.00    +0.000 N 
ATOM      5  H   UNL     1       7.398   8.291  16.830  0.00  0.00    +0.000 HD
BRANCH   4   6
ATOM      6  C   UNL     1       8.578   8.767  18.557  0.00  0.00    +0.000 C 
BRANCH   6   7
ATOM      7  C   UNL     1       8.529  10.226  18.107  0.00  0.00    +0.000 C 
BRANCH   7   8
ATOM      8  C   UNL     1       9.715  11.010  18.608  0.00  0.00    +0.000 A 
ATOM      9  C   UNL     1      10.686  11.471  17.710  0.00  0.00    +0.000 A 
ATOM     10  C   UNL     1      11.798  12.177  18.172  0.00  0.00    +0.000 A 
ATOM     11  C   UNL     1      11.951  12.425  19.534  0.00  0.00    +0.000 A 
ATOM     12  C   UNL     1      10.993  11.967  20.436  0.00  0.00    +0.000 A 
ATOM     13  C   UNL     1       9.880  11.261  19.977  0.00  0.00    +0.000 A 
ENDBRANCH   7   8
ENDBRANCH   6   7
ENDBRANCH   4   6
ENDBRANCH   1   2
BRANCH   1  14
ATOM     14  N   UNL     1       7.486   5.878  15.648  0.00  0.00    +0.000 NA
ATOM     15  H   UNL     1       8.431   6.204  15.871  0.00  0.00    +0.000 HD
ATOM     16  H   UNL     1       7.088   6.620  15.071  0.00  0.00    +0.000 HD
ENDBRANCH   1  14
BRANCH   1  17
ATOM     17  C   UNL     1       5.270   6.351  16.782  0.00  0.00    +0.000 C 
BRANCH  17  18
ATOM     18  C   UNL     1       4.151   5.486  17.365  0.00  0.00    +0.000 A 
ATOM     19  C   UNL     1       3.976   4.140  17.017  0.00  0.00    +0.000 A 
ATOM     20  C   UNL     1       2.934   3.380  17.569  0.00  0.00    +0.000 A 
ATOM     21  C   UNL     1       2.056   3.966  18.485  0.00  0.00    +0.000 A 
ATOM     22  C   UNL     1       2.225   5.300  18.868  0.00  0.00    +0.000 A 
ATOM     23  C   UNL     1       3.273   6.043  18.320  0.00  0.00    +0.000 A 
BRANCH  21  24
ATOM     24  N   UNL     1       0.955   3.179  19.050  0.00  0.00    +0.000 N 
ATOM     25  O   UNL     1       0.632   3.398  20.226  0.00  0.00    +0.000 OA
ATOM     26  O   UNL     1       0.411   2.340  18.317  0.00  0.00    +0.000 OA
ENDBRANCH  21  24
ENDBRANCH  17  18
BRANCH  17  27
ATOM     27  O   UNL     1       5.012   6.515  15.366  0.00  0.00    +0.000 OA
ATOM     28  H   UNL     1       5.833   6.910  15.012  0.00  0.00    +0.000 HD
ENDBRANCH  17  27
ENDBRANCH   1  17
TORSDOF 9
ENDMDL
MODEL 2
REMARK VINA RESULT:      -8.0      1.257      1.668
REMARK  Name = 
REMARK  9 active torsions:
REMARK  status: ('A' for Active; 'I' for Inactive)
REMARK    1  A    between atoms: N_1  and  C_2
REMARK    2  A    between atoms: C_2  and  C_3
REMARK    3  A    between atoms: C_2  and  C_14
REMARK    4  A    between atoms: N_5  and  C_6
REMARK    5  A    between atoms: C_6  and  C_7
REMARK    6  A    between atoms: C_7  and  C_8
REMARK    7  A    between atoms: C_14  and  O_15
REMARK    8  A    between atoms: C_14  and  C_16
REMARK    9  A    between atoms: C_19  and  N_20
REMARK                            x       y       z     vdW  Elec       q    Type
REMARK                         _______ _______ _______ _____ _____    ______ ____
ROOT
ATOM      1  C   UNL     1       6.790   5.989  16.558  0.00  0.00    +0.000 C 
ENDROOT
BRANCH   1   2
ATOM      2  C   UNL     1       7.448   6.781  17.713  0.00  0.00    +0.000 C 
ATOM      3  O   UNL     1       7.740   6.241  18.777  0.00  0.00    +0.000 OA
ATOM      4  N   UNL     1       7.788   8.081  17.413  0.00  0.00    +0.000 N 
ATOM      5  H   UNL     1       7.450   8.467  16.532  0.00  0.00    +0.000 HD
BRANCH   4   6
ATOM      6  C   UNL     1       8.423   8.954  18.381  0.00  0.00    +0.000 C 
BRANCH   6   7
ATOM      7  C   UNL     1       8.620  10.367  17.831  0.00  0.00    +0.000 C 
BRANCH   7   8
ATOM      8  C   UNL     1       9.748  11.087  18.523  0.00  0.00    +0.000 A 
ATOM      9  C   UNL     1      10.806  11.623  17.777  0.00  0.00    +0.000 A 
ATOM     10  C   UNL     1      11.865  12.271  18.416  0.00  0.00    +0.000 A 
ATOM     11  C   UNL     1      11.878  12.386  19.804  0.00  0.00    +0.000 A 
ATOM     12  C   UNL     1      10.832  11.852  20.556  0.00  0.00    +0.000 A 
ATOM     13  C   UNL     1       9.772  11.204  19.919  0.00  0.00    +0.000 A 
ENDBRANCH   7   8
ENDBRANCH   6   7
ENDBRANCH   4   6
ENDBRANCH   1   2
BRANCH   1  14
ATOM     14  N   UNL     1       5.579   6.733  16.109  0.00  0.00    +0.000 NA
ATOM     15  H   UNL     1       5.831   7.239  15.255  0.00  0.00    +0.000 HD
ATOM     16  H   UNL     1       5.381   7.466  16.792  0.00  0.00    +0.000 HD
ENDBRANCH   1  14
BRANCH   1  17
ATOM     17  C   UNL     1       6.471   4.525  16.973  0.00  0.00    +0.000 C 
BRANCH  17  18
ATOM     18  C   UNL     1       5.117   4.268  17.637  0.00  0.00    +0.000 A 
ATOM     19  C   UNL     1       4.843   4.634  18.962  0.00  0.00    +0.000 A 
ATOM     20  C   UNL     1       3.591   4.378  19.539  0.00  0.00    +0.000 A 
ATOM     21  C   UNL     1       2.593   3.754  18.785  0.00  0.00    +0.000 A 
ATOM     22  C   UNL     1       2.833   3.402  17.454  0.00  0.00    +0.000 A 
ATOM     23  C   UNL     1       4.081   3.673  16.887  0.00  0.00    +0.000 A 
BRANCH  21  24
ATOM     24  N   UNL     1       1.288   3.468  19.392  0.00  0.00    +0.000 N 
ATOM     25  O   UNL     1       0.568   2.624  18.840  0.00  0.00    +0.000 OA
ATOM     26  O   UNL     1       0.982   4.089  20.420  0.00  0.00    +0.000 OA
ENDBRANCH  21  24
ENDBRANCH  17  18
BRANCH  17  27
ATOM     27  O   UNL     1       7.505   4.105  17.897  0.00  0.00    +0.000 OA
ATOM     28  H   UNL     1       8.241   3.812  17.324  0.00  0.00    +0.000 HD
ENDBRANCH  17  27
ENDBRANCH   1  17
TORSDOF 9
ENDMDL
MODEL 3
REMARK VINA RESULT:      -7.9      1.033      1.755
REMARK  Name = 
REMARK  9 active torsions:
REMARK  status: ('A' for Active; 'I' for Inactive)
REMARK    1  A    between atoms: N_1  and  C_2
REMARK    2  A    between atoms: C_2  and  C_3
REMARK    3  A    between atoms: C_2  and  C_14
REMARK    4  A    between atoms: N_5  and  C_6
REMARK    5  A    between atoms: C_6  and  C_7
REMARK    6  A    between atoms: C_7  and  C_8
REMARK    7  A    between atoms: C_14  and  O_15
REMARK    8  A    between atoms: C_14  and  C_16
REMARK    9  A    between atoms: C_19  and  N_20
REMARK                            x       y       z     vdW  Elec       q    Type
REMARK                         _______ _______ _______ _____ _____    ______ ____
ROOT
ATOM      1  C   UNL     1       6.851   5.836  17.165  0.00  0.00    +0.000 C 
ENDROOT
BRANCH   1   2
ATOM      2  C   UNL     1       7.660   6.682  18.178  0.00  0.00    +0.000 C 
ATOM      3  O   UNL     1       8.169   6.176  19.175  0.00  0.00    +0.000 OA
ATOM      4  N   UNL     1       7.864   7.994  17.815  0.00  0.00    +0.000 N 
ATOM      5  H   UNL     1       7.351   8.346  17.006  0.00  0.00    +0.000 HD
BRANCH   4   6
ATOM      6  C   UNL     1       8.611   8.917  18.646  0.00  0.00    +0.000 C 
BRANCH   6   7
ATOM      7  C   UNL     1       8.776  10.281  17.978  0.00  0.00    +0.000 C 
BRANCH   7   8
ATOM      8  C   UNL     1       9.905  11.073  18.586  0.00  0.00    +0.000 A 
ATOM      9  C   UNL     1       9.977  11.247  19.975  0.00  0.00    +0.000 A 
ATOM     10  C   UNL     1      11.008  11.999  20.541  0.00  0.00    +0.000 A 
ATOM     11  C   UNL     1      11.973  12.586  19.725  0.00  0.00    +0.000 A 
ATOM     12  C   UNL     1      11.908  12.422  18.343  0.00  0.00    +0.000 A 
ATOM     13  C   UNL     1      10.878  11.671  17.774  0.00  0.00    +0.000 A 
ENDBRANCH   7   8
ENDBRANCH   6   7
ENDBRANCH   4   6
ENDBRANCH   1   2
BRANCH   1  14
ATOM     14  N   UNL     1       7.473   5.994  15.820  0.00  0.00    +0.000 NA
ATOM     15  H   UNL     1       8.304   6.583  15.936  0.00  0.00    +0.000 HD
ATOM     16  H   UNL     1       6.844   6.550  15.239  0.00  0.00    +0.000 HD
ENDBRANCH   1  14
BRANCH   1  17
ATOM     17  C   UNL     1       5.343   6.215  17.174  0.00  0.00    +0.000 C 
BRANCH  17  18
ATOM     18  C   UNL     1       4.431   5.422  18.111  0.00  0.00    +0.000 A 
ATOM     19  C   UNL     1       3.085   5.756  18.319  0.00  0.00    +0.000 A 
ATOM     20  C   UNL     1       2.281   5.007  19.191  0.00  0.00    +0.000 A 
ATOM     21  C   UNL     1       2.820   3.905  19.860  0.00  0.00    +0.000 A 
ATOM     22  C   UNL     1       4.152   3.535  19.649  0.00  0.00    +0.000 A 
ATOM     23  C   UNL     1       4.940   4.282  18.770  0.00  0.00    +0.000 A 
BRANCH  21  24
ATOM     24  N   UNL     1       1.986   3.131  20.786  0.00  0.00    +0.000 N 
ATOM     25  O   UNL     1       0.868   2.770  20.391  0.00  0.00    +0.000 OA
ATOM     26  O   UNL     1       2.448   2.885  21.910  0.00  0.00    +0.000 OA
ENDBRANCH  21  24
ENDBRANCH  17  18
BRANCH  17  27
ATOM     27  O   UNL     1       4.848   6.041  15.823  0.00  0.00    +0.000 OA
ATOM     28  H   UNL     1       5.515   5.473  15.389  0.00  0.00    +0.000 HD
ENDBRANCH  17  27
ENDBRANCH   1  17
TORSDOF 9
ENDMDL
MODEL 4
REMARK VINA RESULT:      -7.9      1.178      1.737
REMARK  Name = 
REMARK  9 active torsions:
REMARK  status: ('A' for Active; 'I' for Inactive)
REMARK    1  A    between atoms: N_1  and  C_2
REMARK    2  A    between atoms: C_2  and  C_3
REMARK    3  A    between atoms: C_2  and  C_14
REMARK    4  A    between atoms: N_5  and  C_6
REMARK    5  A    between atoms: C_6  and  C_7
REMARK    6  A    between atoms: C_7  and  C_8
REMARK    7  A    between atoms: C_14  and  O_15
REMARK    8  A    between atoms: C_14  and  C_16
REMARK    9  A    between atoms: C_19  and  N_20
REMARK                            x       y       z     vdW  Elec       q    Type
REMARK                         _______ _______ _______ _____ _____    ______ ____
ROOT
ATOM      1  C   UNL     1       6.915   4.777  17.563  0.00  0.00    +0.000 C 
ENDROOT
BRANCH   1   2
ATOM      2  C   UNL     1       7.634   5.817  18.455  0.00  0.00    +0.000 C 
ATOM      3  O   UNL     1       8.147   5.499  19.525  0.00  0.00    +0.000 OA
ATOM      4  N   UNL     1       7.759   7.073  17.907  0.00  0.00    +0.000 N 
ATOM      5  H   UNL     1       7.247   7.267  17.046  0.00  0.00    +0.000 HD
BRANCH   4   6
ATOM      6  C   UNL     1       8.416   8.159  18.608  0.00  0.00    +0.000 C 
BRANCH   6   7
ATOM      7  C   UNL     1       8.303   9.480  17.848  0.00  0.00    +0.000 C 
BRANCH   7   8
ATOM      8  C   UNL     1       9.066  10.588  18.529  0.00  0.00    +0.000 A 
ATOM      9  C   UNL     1       9.477  10.447  19.861  0.00  0.00    +0.000 A 
ATOM     10  C   UNL     1      10.163  11.479  20.502  0.00  0.00    +0.000 A 
ATOM     11  C   UNL     1      10.442  12.661  19.821  0.00  0.00    +0.000 A 
ATOM     12  C   UNL     1      10.034  12.813  18.497  0.00  0.00    +0.000 A 
ATOM     13  C   UNL     1       9.347  11.782  17.852  0.00  0.00    +0.000 A 
ENDBRANCH   7   8
ENDBRANCH   6   7
ENDBRANCH   4   6
ENDBRANCH   1   2
BRANCH   1  14
ATOM     14  N   UNL     1       7.788   4.480  16.393  0.00  0.00    +0.000 NA
ATOM     15  H   UNL     1       8.648   5.024  16.508  0.00  0.00    +0.000 HD
ATOM     16  H   UNL     1       7.349   4.868  15.557  0.00  0.00    +0.000 HD
ENDBRANCH   1  14
BRANCH   1  17
ATOM     17  C   UNL     1       5.498   5.261  17.142  0.00  0.00    +0.000 C 
BRANCH  17  18
ATOM     18  C   UNL     1       4.303   4.604  17.834  0.00  0.00    +0.000 A 
ATOM     19  C   UNL     1       2.978   4.843  17.445  0.00  0.00    +0.000 A 
ATOM     20  C   UNL     1       1.907   4.225  18.107  0.00  0.00    +0.000 A 
ATOM     21  C   UNL     1       2.158   3.349  19.167  0.00  0.00    +0.000 A 
ATOM     22  C   UNL     1       3.471   3.073  19.557  0.00  0.00    +0.000 A 
ATOM     23  C   UNL     1       4.530   3.687  18.883  0.00  0.00    +0.000 A 
BRANCH  21  24
ATOM     24  N   UNL     1       1.039   2.715  19.873  0.00  0.00    +0.000 N 
ATOM     25  O   UNL     1       0.114   2.252  19.191  0.00  0.00    +0.000 OA
ATOM     26  O   UNL     1       1.083   2.681  21.112  0.00  0.00    +0.000 OA
ENDBRANCH  21  24
ENDBRANCH  17  18
BRANCH  17  27
ATOM     27  O   UNL     1       5.369   5.028  15.718  0.00  0.00    +0.000 OA
ATOM     28  H   UNL     1       6.091   5.552  15.318  0.00  0.00    +0.000 HD
ENDBRANCH  17  27
ENDBRANCH   1  17
TORSDOF 9
ENDMDL
MODEL 5
REMARK VINA RESULT:      -7.8      1.223      1.537
REMARK  Name = 
REMARK  9 active torsions:
REMARK  status: ('A' for Active; 'I' for Inactive)
REMARK    1  A    between atoms: N_1  and  C_2
REMARK    2  A    between atoms: C_2  and  C_3
REMARK    3  A    between atoms: C_2  and  C_14
REMARK    4  A    between atoms: N_5  and  C_6
REMARK    5  A    between atoms: C_6  and  C_7
REMARK    6  A    between atoms: C_7  and  C_8
REMARK    7  A    between atoms: C_14  and  O_15
REMARK    8  A    between atoms: C_14  and  C_16
REMARK    9  A    between atoms: C_19  and  N_20
REMARK                            x       y       z     vdW  Elec       q    Type
REMARK                         _______ _______ _______ _____ _____    ______ ____
ROOT
ATOM      1  C   UNL     1       6.981   4.630  17.812  0.00  0.00    +0.000 C 
ENDROOT
BRANCH   1   2
ATOM      2  C   UNL     1       7.518   5.774  18.706  0.00  0.00    +0.000 C 
ATOM      3  O   UNL     1       7.692   5.619  19.911  0.00  0.00    +0.000 OA
ATOM      4  N   UNL     1       7.896   6.914  18.033  0.00  0.00    +0.000 N 
ATOM      5  H   UNL     1       7.656   6.982  17.044  0.00  0.00    +0.000 HD
BRANCH   4   6
ATOM      6  C   UNL     1       8.431   8.073  18.721  0.00  0.00    +0.000 C 
BRANCH   6   7
ATOM      7  C   UNL     1       8.254   9.353  17.905  0.00  0.00    +0.000 C 
BRANCH   7   8
ATOM      8  C   UNL     1       8.973  10.522  18.528  0.00  0.00    +0.000 A 
ATOM      9  C   UNL     1       9.525  10.409  19.811  0.00  0.00    +0.000 A 
ATOM     10  C   UNL     1      10.172  11.496  20.401  0.00  0.00    +0.000 A 
ATOM     11  C   UNL     1      10.268  12.706  19.717  0.00  0.00    +0.000 A 
ATOM     12  C   UNL     1       9.718  12.830  18.443  0.00  0.00    +0.000 A 
ATOM     13  C   UNL     1       9.071  11.745  17.850  0.00  0.00    +0.000 A 
ENDBRANCH   7   8
ENDBRANCH   6   7
ENDBRANCH   4   6
ENDBRANCH   1   2
BRANCH   1  14
ATOM     14  N   UNL     1       8.046   4.256  16.839  0.00  0.00    +0.000 NA
ATOM     15  H   UNL     1       8.375   3.320  17.092  0.00  0.00    +0.000 HD
ATOM     16  H   UNL     1       8.853   4.862  16.997  0.00  0.00    +0.000 HD
ENDBRANCH   1  14
BRANCH   1  17
ATOM     17  C   UNL     1       5.647   5.022  17.116  0.00  0.00    +0.000 C 
BRANCH  17  18
ATOM     18  C   UNL     1       4.363   4.403  17.671  0.00  0.00    +0.000 A 
ATOM     19  C   UNL     1       4.301   3.084  18.141  0.00  0.00    +0.000 A 
ATOM     20  C   UNL     1       3.104   2.549  18.639  0.00  0.00    +0.000 A 
ATOM     21  C   UNL     1       1.952   3.340  18.675  0.00  0.00    +0.000 A 
ATOM     22  C   UNL     1       1.994   4.666  18.237  0.00  0.00    +0.000 A 
ATOM     23  C   UNL     1       3.195   5.191  17.754  0.00  0.00    +0.000 A 
BRANCH  21  24
ATOM     24  N   UNL     1       0.694   2.777  19.178  0.00  0.00    +0.000 N 
ATOM     25  O   UNL     1       0.321   3.118  20.310  0.00  0.00    +0.000 OA
ATOM     26  O   UNL     1       0.079   1.992  18.443  0.00  0.00    +0.000 OA
ENDBRANCH  21  24
ENDBRANCH  17  18
BRANCH  17  27
ATOM     27  O   UNL     1       5.759   4.636  15.723  0.00  0.00    +0.000 OA
ATOM     28  H   UNL     1       5.037   5.120  15.276  0.00  0.00    +0.000 HD
ENDBRANCH  17  27
ENDBRANCH   1  17
TORSDOF 9
ENDMDL
MODEL 6
REMARK VINA RESULT:      -7.7      0.918      1.493
REMARK  Name = 
REMARK  9 active torsions:
REMARK  status: ('A' for Active; 'I' for Inactive)
REMARK    1  A    between atoms: N_1  and  C_2
REMARK    2  A    between atoms: C_2  and  C_3
REMARK    3  A    between atoms: C_2  and  C_14
REMARK    4  A    between atoms: N_5  and  C_6
REMARK    5  A    between atoms: C_6  and  C_7
REMARK    6  A    between atoms: C_7  and  C_8
REMARK    7  A    between atoms: C_14  and  O_15
REMARK    8  A    between atoms: C_14  and  C_16
REMARK    9  A    between atoms: C_19  and  N_20
REMARK                            x       y       z     vdW  Elec       q    Type
REMARK                         _______ _______ _______ _____ _____    ______ ____
ROOT
ATOM      1  C   UNL     1       6.878   6.018  17.128  0.00  0.00    +0.000 C 
ENDROOT
BRANCH   1   2
ATOM      2  C   UNL     1       7.688   6.902  18.106  0.00  0.00    +0.000 C 
ATOM      3  O   UNL     1       8.213   6.433  19.112  0.00  0.00    +0.000 OA
ATOM      4  N   UNL     1       7.876   8.204  17.699  0.00  0.00    +0.000 N 
ATOM      5  H   UNL     1       7.352   8.526  16.886  0.00  0.00    +0.000 HD
BRANCH   4   6
ATOM      6  C   UNL     1       8.623   9.159  18.494  0.00  0.00    +0.000 C 
BRANCH   6   7
ATOM      7  C   UNL     1       8.654  10.542  17.843  0.00  0.00    +0.000 C 
BRANCH   7   8
ATOM      8  C   UNL     1       9.442  11.532  18.662  0.00  0.00    +0.000 A 
ATOM      9  C   UNL     1      10.595  11.124  19.345  0.00  0.00    +0.000 A 
ATOM     10  C   UNL     1      11.314  12.032  20.123  0.00  0.00    +0.000 A 
ATOM     11  C   UNL     1      10.887  13.353  20.229  0.00  0.00    +0.000 A 
ATOM     12  C   UNL     1       9.739  13.768  19.557  0.00  0.00    +0.000 A 
ATOM     13  C   UNL     1       9.017  12.862  18.778  0.00  0.00    +0.000 A 
ENDBRANCH   7   8
ENDBRANCH   6   7
ENDBRANCH   4   6
ENDBRANCH   1   2
BRANCH   1  14
ATOM     14  N   UNL     1       7.560   6.036  15.804  0.00  0.00    +0.000 NA
ATOM     15  H   UNL     1       8.047   6.933  15.724  0.00  0.00    +0.000 HD
ATOM     16  H   UNL     1       6.845   6.067  15.075  0.00  0.00    +0.000 HD
ENDBRANCH   1  14
BRANCH   1  17
ATOM     17  C   UNL     1       5.392   6.469  17.041  0.00  0.00    +0.000 C 
BRANCH  17  18
ATOM     18  C   UNL     1       4.336   5.498  17.573  0.00  0.00    +0.000 A 
ATOM     19  C   UNL     1       3.024   5.894  17.866  0.00  0.00    +0.000 A 
ATOM     20  C   UNL     1       2.084   4.975  18.357  0.00  0.00    +0.000 A 
ATOM     21  C   UNL     1       2.453   3.641  18.552  0.00  0.00    +0.000 A 
ATOM     22  C   UNL     1       3.748   3.216  18.241  0.00  0.00    +0.000 A 
ATOM     23  C   UNL     1       4.672   4.138  17.743  0.00  0.00    +0.000 A 
BRANCH  21  24
ATOM     24  N   UNL     1       1.477   2.683  19.082  0.00  0.00    +0.000 N 
ATOM     25  O   UNL     1       0.536   2.351  18.347  0.00  0.00    +0.000 OA
ATOM     26  O   UNL     1       1.651   2.261  20.235  0.00  0.00    +0.000 OA
ENDBRANCH  21  24
ENDBRANCH  17  18
BRANCH  17  27
ATOM     27  O   UNL     1       5.100   6.720  15.644  0.00  0.00    +0.000 OA
ATOM     28  H   UNL     1       4.894   7.675  15.605  0.00  0.00    +0.000 HD
ENDBRANCH  17  27
ENDBRANCH   1  17
TORSDOF 9
ENDMDL
MODEL 7
REMARK VINA RESULT:      -7.7      1.642      2.274
REMARK  Name = 
REMARK  9 active torsions:
REMARK  status: ('A' for Active; 'I' for Inactive)
REMARK    1  A    between atoms: N_1  and  C_2
REMARK    2  A    between atoms: C_2  and  C_3
REMARK    3  A    between atoms: C_2  and  C_14
REMARK    4  A    between atoms: N_5  and  C_6
REMARK    5  A    between atoms: C_6  and  C_7
REMARK    6  A    between atoms: C_7  and  C_8
REMARK    7  A    between atoms: C_14  and  O_15
REMARK    8  A    between atoms: C_14  and  C_16
REMARK    9  A    between atoms: C_19  and  N_20
REMARK                            x       y       z     vdW  Elec       q    Type
REMARK                         _______ _______ _______ _____ _____    ______ ____
ROOT
ATOM      1  C   UNL     1       7.316   6.064  18.825  0.00  0.00    +0.000 C 
ENDROOT
BRANCH   1   2
ATOM      2  C   UNL     1       7.840   7.318  18.085  0.00  0.00    +0.000 C 
ATOM      3  O   UNL     1       7.674   7.467  16.877  0.00  0.00    +0.000 OA
ATOM      4  N   UNL     1       8.382   8.292  18.893  0.00  0.00    +0.000 N 
ATOM      5  H   UNL     1       8.541   8.059  19.873  0.00  0.00    +0.000 HD
BRANCH   4   6
ATOM      6  C   UNL     1       8.907   9.533  18.358  0.00  0.00    +0.000 C 
BRANCH   6   7
ATOM      7  C   UNL     1       9.438  10.449  19.461  0.00  0.00    +0.000 C 
BRANCH   7   8
ATOM      8  C   UNL     1      10.048  11.709  18.900  0.00  0.00    +0.000 A 
ATOM      9  C   UNL     1       9.904  12.926  19.579  0.00  0.00    +0.000 A 
ATOM     10  C   UNL     1      10.447  14.098  19.052  0.00  0.00    +0.000 A 
ATOM     11  C   UNL     1      11.135  14.066  17.840  0.00  0.00    +0.000 A 
ATOM     12  C   UNL     1      11.280  12.862  17.155  0.00  0.00    +0.000 A 
ATOM     13  C   UNL     1      10.737  11.687  17.680  0.00  0.00    +0.000 A 
ENDBRANCH   7   8
ENDBRANCH   6   7
ENDBRANCH   4   6
ENDBRANCH   1   2
BRANCH   1  14
ATOM     14  N   UNL     1       8.457   5.439  19.553  0.00  0.00    +0.000 NA
ATOM     15  H   UNL     1       8.585   4.499  19.168  0.00  0.00    +0.000 HD
ATOM     16  H   UNL     1       8.173   5.283  20.521  0.00  0.00    +0.000 HD
ENDBRANCH   1  14
BRANCH   1  17
ATOM     17  C   UNL     1       6.614   5.074  17.853  0.00  0.00    +0.000 C 
BRANCH  17  18
ATOM     18  C   UNL     1       5.207   4.606  18.231  0.00  0.00    +0.000 A 
ATOM     19  C   UNL     1       4.580   4.984  19.426  0.00  0.00    +0.000 A 
ATOM     20  C   UNL     1       3.290   4.531  19.741  0.00  0.00    +0.000 A 
ATOM     21  C   UNL     1       2.611   3.695  18.850  0.00  0.00    +0.000 A 
ATOM     22  C   UNL     1       3.205   3.326  17.639  0.00  0.00    +0.000 A 
ATOM     23  C   UNL     1       4.485   3.792  17.333  0.00  0.00    +0.000 A 
BRANCH  21  24
ATOM     24  N   UNL     1       1.269   3.205  19.184  0.00  0.00    +0.000 N 
ATOM     25  O   UNL     1       0.646   3.794  20.079  0.00  0.00    +0.000 OA
ATOM     26  O   UNL     1       0.838   2.229  18.553  0.00  0.00    +0.000 OA
ENDBRANCH  21  24
ENDBRANCH  17  18
BRANCH  17  27
ATOM     27  O   UNL     1       7.458   3.900  17.751  0.00  0.00    +0.000 OA
ATOM     28  H   UNL     1       7.026   3.346  17.072  0.00  0.00    +0.000 HD
ENDBRANCH  17  27
ENDBRANCH   1  17
TORSDOF 9
ENDMDL
MODEL 8
REMARK VINA RESULT:      -7.6      1.527      1.956
REMARK  Name = 
REMARK  9 active torsions:
REMARK  status: ('A' for Active; 'I' for Inactive)
REMARK    1  A    between atoms: N_1  and  C_2
REMARK    2  A    between atoms: C_2  and  C_3
REMARK    3  A    between atoms: C_2  and  C_14
REMARK    4  A    between atoms: N_5  and  C_6
REMARK    5  A    between atoms: C_6  and  C_7
REMARK    6  A    between atoms: C_7  and  C_8
REMARK    7  A    between atoms: C_14  and  O_15
REMARK    8  A    between atoms: C_14  and  C_16
REMARK    9  A    between atoms: C_19  and  N_20
REMARK                            x       y       z     vdW  Elec       q    Type
REMARK                         _______ _______ _______ _____ _____    ______ ____
ROOT
ATOM      1  C   UNL     1       7.220   6.178  18.726  0.00  0.00    +0.000 C 
ENDROOT
BRANCH   1   2
ATOM      2  C   UNL     1       7.826   7.428  18.044  0.00  0.00    +0.000 C 
ATOM      3  O   UNL     1       7.688   7.633  16.841  0.00  0.00    +0.000 OA
ATOM      4  N   UNL     1       8.411   8.335  18.898  0.00  0.00    +0.000 N 
ATOM      5  H   UNL     1       8.540   8.055  19.870  0.00  0.00    +0.000 HD
BRANCH   4   6
ATOM      6  C   UNL     1       9.015   9.564  18.421  0.00  0.00    +0.000 C 
BRANCH   6   7
ATOM      7  C   UNL     1       9.627  10.379  19.560  0.00  0.00    +0.000 C 
BRANCH   7   8
ATOM      8  C   UNL     1      10.279  11.643  19.061  0.00  0.00    +0.000 A 
ATOM      9  C   UNL     1      10.720  11.733  17.734  0.00  0.00    +0.000 A 
ATOM     10  C   UNL     1      11.345  12.893  17.274  0.00  0.00    +0.000 A 
ATOM     11  C   UNL     1      11.539  13.971  18.136  0.00  0.00    +0.000 A 
ATOM     12  C   UNL     1      11.108  13.889  19.458  0.00  0.00    +0.000 A 
ATOM     13  C   UNL     1      10.482  12.730  19.921  0.00  0.00    +0.000 A 
ENDBRANCH   7   8
ENDBRANCH   6   7
ENDBRANCH   4   6
ENDBRANCH   1   2
BRANCH   1  14
ATOM     14  N   UNL     1       8.311   5.461  19.446  0.00  0.00    +0.000 NA
ATOM     15  H   UNL     1       8.130   5.560  20.449  0.00  0.00    +0.000 HD
ATOM     16  H   UNL     1       9.184   5.967  19.291  0.00  0.00    +0.000 HD
ENDBRANCH   1  14
BRANCH   1  17
ATOM     17  C   UNL     1       6.480   5.268  17.705  0.00  0.00    +0.000 C 
BRANCH  17  18
ATOM     18  C   UNL     1       5.104   4.738  18.114  0.00  0.00    +0.000 A 
ATOM     19  C   UNL     1       4.926   3.814  19.152  0.00  0.00    +0.000 A 
ATOM     20  C   UNL     1       3.649   3.347  19.495  0.00  0.00    +0.000 A 
ATOM     21  C   UNL     1       2.530   3.813  18.799  0.00  0.00    +0.000 A 
ATOM     22  C   UNL     1       2.677   4.754  17.777  0.00  0.00    +0.000 A 
ATOM     23  C   UNL     1       3.954   5.220  17.452  0.00  0.00    +0.000 A 
BRANCH  21  24
ATOM     24  N   UNL     1       1.194   3.313  19.143  0.00  0.00    +0.000 N 
ATOM     25  O   UNL     1       0.699   2.441  18.415  0.00  0.00    +0.000 OA
ATOM     26  O   UNL     1       0.638   3.793  20.142  0.00  0.00    +0.000 OA
ENDBRANCH  21  24
ENDBRANCH  17  18
BRANCH  17  27
ATOM     27  O   UNL     1       7.335   4.127  17.447  0.00  0.00    +0.000 OA
ATOM     28  H   UNL     1       7.496   3.738  18.329  0.00  0.00    +0.000 HD
ENDBRANCH  17  27
ENDBRANCH   1  17
TORSDOF 9
ENDMDL
MODEL 9
REMARK VINA RESULT:      -7.6      4.736      6.643
REMARK  Name = 
REMARK  9 active torsions:
REMARK  status: ('A' for Active; 'I' for Inactive)
REMARK    1  A    between atoms: N_1  and  C_2
REMARK    2  A    between atoms: C_2  and  C_3
REMARK    3  A    between atoms: C_2  and  C_14
REMARK    4  A    between atoms: N_5  and  C_6
REMARK    5  A    between atoms: C_6  and  C_7
REMARK    6  A    between atoms: C_7  and  C_8
REMARK    7  A    between atoms: C_14  and  O_15
REMARK    8  A    between atoms: C_14  and  C_16
REMARK    9  A    between atoms: C_19  and  N_20
REMARK                            x       y       z     vdW  Elec       q    Type
REMARK                         _______ _______ _______ _____ _____    ______ ____
ROOT
ATOM      1  C   UNL     1       4.603   3.818  19.629  0.00  0.00    +0.000 C 
ENDROOT
BRANCH   1   2
ATOM      2  C   UNL     1       5.846   4.491  18.998  0.00  0.00    +0.000 C 
ATOM      3  O   UNL     1       6.552   5.264  19.639  0.00  0.00    +0.000 OA
ATOM      4  N   UNL     1       6.161   4.064  17.728  0.00  0.00    +0.000 N 
ATOM      5  H   UNL     1       5.486   3.471  17.246  0.00  0.00    +0.000 HD
BRANCH   4   6
ATOM      6  C   UNL     1       7.302   4.586  17.000  0.00  0.00    +0.000 C 
BRANCH   6   7
ATOM      7  C   UNL     1       6.884   5.594  15.930  0.00  0.00    +0.000 C 
BRANCH   7   8
ATOM      8  C   UNL     1       6.745   4.950  14.574  0.00  0.00    +0.000 A 
ATOM      9  C   UNL     1       5.697   4.055  14.321  0.00  0.00    +0.000 A 
ATOM     10  C   UNL     1       5.578   3.439  13.075  0.00  0.00    +0.000 A 
ATOM     11  C   UNL     1       6.507   3.708  12.072  0.00  0.00    +0.000 A 
ATOM     12  C   UNL     1       7.556   4.593  12.314  0.00  0.00    +0.000 A 
ATOM     13  C   UNL     1       7.677   5.210  13.560  0.00  0.00    +0.000 A 
ENDBRANCH   7   8
ENDBRANCH   6   7
ENDBRANCH   4   6
ENDBRANCH   1   2
BRANCH   1  14
ATOM     14  N   UNL     1       4.837   2.347  19.670  0.00  0.00    +0.000 NA
ATOM     15  H   UNL     1       4.130   1.909  19.072  0.00  0.00    +0.000 HD
ATOM     16  H   UNL     1       4.620   2.013  20.610  0.00  0.00    +0.000 HD
ENDBRANCH   1  14
BRANCH   1  17
ATOM     17  C   UNL     1       3.299   4.195  18.871  0.00  0.00    +0.000 C 
BRANCH  17  18
ATOM     18  C   UNL     1       2.736   5.598  19.106  0.00  0.00    +0.000 A 
ATOM     19  C   UNL     1       2.821   6.617  18.149  0.00  0.00    +0.000 A 
ATOM     20  C   UNL     1       2.297   7.894  18.402  0.00  0.00    +0.000 A 
ATOM     21  C   UNL     1       1.673   8.158  19.625  0.00  0.00    +0.000 A 
ATOM     22  C   UNL     1       1.553   7.150  20.587  0.00  0.00    +0.000 A 
ATOM     23  C   UNL     1       2.069   5.880  20.318  0.00  0.00    +0.000 A 
BRANCH  21  24
ATOM     24  N   UNL     1       1.141   9.497  19.901  0.00  0.00    +0.000 N 
ATOM     25  O   UNL     1       1.088   9.865  21.083  0.00  0.00    +0.000 OA
ATOM     26  O   UNL     1       0.773  10.181  18.935  0.00  0.00    +0.000 OA
ENDBRANCH  21  24
ENDBRANCH  17  18
BRANCH  17  27
ATOM     27  O   UNL     1       2.283   3.239  19.263  0.00  0.00    +0.000 OA
ATOM     28  H   UNL     1       1.599   3.310  18.568  0.00  0.00    +0.000 HD
ENDBRANCH  17  27
ENDBRANCH   1  17
TORSDOF 9
ENDMDL
