MODEL 1
REMARK VINA RESULT:      -8.0      0.000      0.000
REMARK  Name = 
REMARK  7 active torsions:
REMARK  status: ('A' for Active; 'I' for Inactive)
REMARK    1  A    between atoms: C_1  and  O_2
REMARK    2  A    between atoms: O_2  and  C_3
REMARK    3  A    between atoms: C_7  and  C_8
REMARK    4  A    between atoms: C_8  and  N_9
REMARK    5  A    between atoms: C_11  and  C_12
REMARK    6  A    between atoms: C_16  and  C_17
REMARK    7  A    between atoms: C_17  and  C_18
REMARK                            x       y       z     vdW  Elec       q    Type
REMARK                         _______ _______ _______ _____ _____    ______ ____
ROOT
ATOM      1  N   UNL     1       6.083   4.744  17.057  0.00  0.00    +0.000 N 
ATOM      2  N   UNL     1       5.947   3.783  18.059  0.00  0.00    +0.000 N 
ATOM      3  C   UNL     1       4.600   3.820  18.443  0.00  0.00    +0.000 A 
ATOM      4  C   UNL     1       3.934   4.837  17.859  0.00  0.00    +0.000 A 
ATOM      5  C   UNL     1       4.916   5.478  16.947  0.00  0.00    +0.000 A 
ATOM      6  O   UNL     1       4.686   6.438  16.235  0.00  0.00    +0.000 OA
ATOM      7  H   UNL     1       6.268   2.842  17.815  0.00  0.00    +0.000 HD
ENDROOT
BRANCH   3   8
ATOM      8  C   UNL     1       3.983   2.762  19.314  0.00  0.00    +0.000 C 
ATOM      9  F   UNL     1       4.906   1.860  19.737  0.00  0.00    +0.000 F 
ATOM     10  F   UNL     1       3.390   3.280  20.416  0.00  0.00    +0.000 F 
ATOM     11  F   UNL     1       3.035   2.060  18.642  0.00  0.00    +0.000 F 
ENDBRANCH   3   8
BRANCH   1  12
ATOM     12  C   UNL     1       7.320   4.936  16.335  0.00  0.00    +0.000 C 
BRANCH  12  17
ATOM     13  C   UNL     1       6.115   3.599  12.957  0.00  0.00    +0.000 A 
ATOM     14  C   UNL     1       6.936   4.319  12.086  0.00  0.00    +0.000 A 
ATOM     15  C   UNL     1       7.844   5.254  12.575  0.00  0.00    +0.000 A 
ATOM     16  C   UNL     1       7.950   5.466  13.949  0.00  0.00    +0.000 A 
ATOM     17  C   UNL     1       7.155   4.736  14.845  0.00  0.00    +0.000 A 
ATOM     18  C   UNL     1       6.217   3.818  14.335  0.00  0.00    +0.000 A 
BRANCH  13  20
ATOM     19  C   UNL     1       5.865   1.805  11.407  0.00  0.00    +0.000 C 
ATOM     20  O   UNL     1       5.283   2.709  12.336  0.00  0.00    +0.000 OA
ENDBRANCH  13  20
ENDBRANCH  12  17
ENDBRANCH   1  12
BRANCH   4  21
ATOM     21  C   UNL     1       2.489   5.184  17.847  0.00  0.00    +0.000 C 
BRANCH  21  22
ATOM     22  C   UNL     1       2.109   6.363  18.711  0.00  0.00    +0.000 A 
ATOM     23  C   UNL     1       1.889   6.210  20.089  0.00  0.00    +0.000 A 
ATOM     24  C   UNL     1       1.593   7.317  20.889  0.00  0.00    +0.000 A 
ATOM     25  C   UNL     1       1.526   8.595  20.330  0.00  0.00    +0.000 A 
ATOM     26 CL   UNL     1       1.181   9.920  21.384  0.00  0.00    +0.000 Cl
ATOM     27  C   UNL     1       1.746   8.764  18.960  0.00  0.00    +0.000 A 
ATOM     28 CL   UNL     1       1.701  10.315  18.197  0.00  0.00    +0.000 Cl
ATOM     29  C   UNL     1       2.032   7.653  18.158  0.00  0.00    +0.000 A 
ENDBRANCH  21  22
ENDBRANCH   4  21
TORSDOF 6
ENDMDL
MODEL 2
REMARK VINA RESULT:      -8.0      3.875      5.702
REMARK  Name = 
REMARK  7 active torsions:
REMARK  status: ('A' for Active; 'I' for Inactive)
REMARK    1  A    between atoms: C_1  and  O_2
REMARK    2  A    between atoms: O_2  and  C_3
REMARK    3  A    between atoms: C_7  and  C_8
REMARK    4  A    between atoms: C_8  and  N_9
REMARK    5  A    between atoms: C_11  and  C_12
REMARK    6  A    between atoms: C_16  and  C_17
REMARK    7  A    between atoms: C_17  and  C_18
REMARK                            x       y       z     vdW  Elec       q    Type
REMARK                         _______ _______ _______ _____ _____    ______ ____
ROOT
ATOM      1  N   UNL     1       2.292   7.083  18.882  0.00  0.00    +0.000 N 
ATOM      2  N   UNL     1       1.965   7.265  20.226  0.00  0.00    +0.000 N 
ATOM      3  C   UNL     1       1.505   8.585  20.331  0.00  0.00    +0.000 A 
ATOM      4  C   UNL     1       1.669   9.272  19.182  0.00  0.00    +0.000 A 
ATOM      5  C   UNL     1       2.215   8.289  18.211  0.00  0.00    +0.000 A 
ATOM      6  O   UNL     1       2.493   8.533  17.051  0.00  0.00    +0.000 OA
ATOM      7  H   UNL     1       1.312   6.581  20.618  0.00  0.00    +0.000 HD
ENDROOT
BRANCH   3   8
ATOM      8  C   UNL     1       0.809   9.098  21.560  0.00  0.00    +0.000 C 
ATOM      9  F   UNL     1       1.282   8.506  22.688  0.00  0.00    +0.000 F 
ATOM     10  F   UNL     1       0.955  10.436  21.716  0.00  0.00    +0.000 F 
ATOM     11  F   UNL     1      -0.523   8.843  21.518  0.00  0.00    +0.000 F 
ENDBRANCH   3   8
BRANCH   1  12
ATOM     12  C   UNL     1       2.714   5.804  18.358  0.00  0.00    +0.000 C 
BRANCH  12  17
ATOM     13  C   UNL     1       6.195   5.725  16.768  0.00  0.00    +0.000 A 
ATOM     14  C   UNL     1       6.986   5.463  17.889  0.00  0.00    +0.000 A 
ATOM     15  C   UNL     1       6.412   5.348  19.153  0.00  0.00    +0.000 A 
ATOM     16  C   UNL     1       5.032   5.480  19.303  0.00  0.00    +0.000 A 
ATOM     17  C   UNL     1       4.214   5.718  18.188  0.00  0.00    +0.000 A 
ATOM     18  C   UNL     1       4.812   5.866  16.921  0.00  0.00    +0.000 A 
BRANCH  13  20
ATOM     19  C   UNL     1       6.554   4.874  14.571  0.00  0.00    +0.000 C 
ATOM     20  O   UNL     1       6.893   5.800  15.594  0.00  0.00    +0.000 OA
ENDBRANCH  13  20
ENDBRANCH  12  17
ENDBRANCH   1  12
BRANCH   4  21
ATOM     21  C   UNL     1       1.212  10.626  18.776  0.00  0.00    +0.000 C 
BRANCH  21  22
ATOM     22  C   UNL     1      -0.279  10.763  18.576  0.00  0.00    +0.000 A 
ATOM     23  C   UNL     1      -1.049  11.583  19.415  0.00  0.00    +0.000 A 
ATOM     24  C   UNL     1      -2.418  11.748  19.186  0.00  0.00    +0.000 A 
ATOM     25  C   UNL     1      -3.037  11.107  18.110  0.00  0.00    +0.000 A 
ATOM     26 CL   UNL     1      -4.728  11.377  17.874  0.00  0.00    +0.000 Cl
ATOM     27  C   UNL     1      -2.282  10.290  17.264  0.00  0.00    +0.000 A 
ATOM     28 CL   UNL     1      -2.969   9.480  15.900  0.00  0.00    +0.000 Cl
ATOM     29  C   UNL     1      -0.913  10.118  17.501  0.00  0.00    +0.000 A 
ENDBRANCH  21  22
ENDBRANCH   4  21
TORSDOF 6
ENDMDL
MODEL 3
REMARK VINA RESULT:      -8.0      0.751      1.028
REMARK  Name = 
REMARK  7 active torsions:
REMARK  status: ('A' for Active; 'I' for Inactive)
REMARK    1  A    between atoms: C_1  and  O_2
REMARK    2  A    between atoms: O_2  and  C_3
REMARK    3  A    between atoms: C_7  and  C_8
REMARK    4  A    between atoms: C_8  and  N_9
REMARK    5  A    between atoms: C_11  and  C_12
REMARK    6  A    between atoms: C_16  and  C_17
REMARK    7  A    between atoms: C_17  and  C_18
REMARK                            x       y       z     vdW  Elec       q    Type
REMARK                         _______ _______ _______ _____ _____    ______ ____
ROOT
ATOM      1  N   UNL     1       5.752   4.554  16.853  0.00  0.00    +0.000 N 
ATOM      2  N   UNL     1       5.473   3.398  17.584  0.00  0.00    +0.000 N 
ATOM      3  C   UNL     1       4.116   3.481  17.925  0.00  0.00    +0.000 A 
ATOM      4  C   UNL     1       3.581   4.673  17.589  0.00  0.00    +0.000 A 
ATOM      5  C   UNL     1       4.667   5.410  16.893  0.00  0.00    +0.000 A 
ATOM      6  O   UNL     1       4.566   6.532  16.432  0.00  0.00    +0.000 OA
ATOM      7  H   UNL     1       5.717   2.516  17.125  0.00  0.00    +0.000 HD
ENDROOT
BRANCH   3   8
ATOM      8  C   UNL     1       3.356   2.314  18.489  0.00  0.00    +0.000 C 
ATOM      9  F   UNL     1       2.679   2.654  19.616  0.00  0.00    +0.000 F 
ATOM     10  F   UNL     1       2.454   1.811  17.612  0.00  0.00    +0.000 F 
ATOM     11  F   UNL     1       4.191   1.299  18.830  0.00  0.00    +0.000 F 
ENDBRANCH   3   8
BRANCH   1  12
ATOM     12  C   UNL     1       7.039   4.785  16.238  0.00  0.00    +0.000 C 
BRANCH  12  17
ATOM     13  C   UNL     1       6.108   3.598  12.720  0.00  0.00    +0.000 A 
ATOM     14  C   UNL     1       6.986   4.363  11.948  0.00  0.00    +0.000 A 
ATOM     15  C   UNL     1       7.847   5.279  12.548  0.00  0.00    +0.000 A 
ATOM     16  C   UNL     1       7.845   5.428  13.934  0.00  0.00    +0.000 A 
ATOM     17  C   UNL     1       6.990   4.653  14.733  0.00  0.00    +0.000 A 
ATOM     18  C   UNL     1       6.102   3.754  14.110  0.00  0.00    +0.000 A 
BRANCH  13  20
ATOM     19  C   UNL     1       4.188   3.267  11.346  0.00  0.00    +0.000 C 
ATOM     20  O   UNL     1       5.333   2.734  11.998  0.00  0.00    +0.000 OA
ENDBRANCH  13  20
ENDBRANCH  12  17
ENDBRANCH   1  12
BRANCH   4  21
ATOM     21  C   UNL     1       2.178   5.161  17.619  0.00  0.00    +0.000 C 
BRANCH  21  22
ATOM     22  C   UNL     1       1.881   6.184  18.690  0.00  0.00    +0.000 A 
ATOM     23  C   UNL     1       1.803   5.816  20.042  0.00  0.00    +0.000 A 
ATOM     24  C   UNL     1       1.584   6.780  21.030  0.00  0.00    +0.000 A 
ATOM     25  C   UNL     1       1.454   8.128  20.686  0.00  0.00    +0.000 A 
ATOM     26 CL   UNL     1       1.211   9.267  21.963  0.00  0.00    +0.000 Cl
ATOM     27  C   UNL     1       1.533   8.510  19.344  0.00  0.00    +0.000 A 
ATOM     28 CL   UNL     1       1.403  10.158  18.840  0.00  0.00    +0.000 Cl
ATOM     29  C   UNL     1       1.742   7.541  18.355  0.00  0.00    +0.000 A 
ENDBRANCH  21  22
ENDBRANCH   4  21
TORSDOF 6
ENDMDL
MODEL 4
REMARK VINA RESULT:      -8.0      3.949      5.826
REMARK  Name = 
REMARK  7 active torsions:
REMARK  status: ('A' for Active; 'I' for Inactive)
REMARK    1  A    between atoms: C_1  and  O_2
REMARK    2  A    between atoms: O_2  and  C_3
REMARK    3  A    between atoms: C_7  and  C_8
REMARK    4  A    between atoms: C_8  and  N_9
REMARK    5  A    between atoms: C_11  and  C_12
REMARK    6  A    between atoms: C_16  and  C_17
REMARK    7  A    between atoms: C_17  and  C_18
REMARK                            x       y       z     vdW  Elec       q    Type
REMARK                         _______ _______ _______ _____ _____    ______ ____
ROOT
ATOM      1  N   UNL     1       2.215   7.136  18.992  0.00  0.00    +0.000 N 
ATOM      2  N   UNL     1       1.907   7.369  20.332  0.00  0.00    +0.000 N 
ATOM      3  C   UNL     1       1.441   8.689  20.393  0.00  0.00    +0.000 A 
ATOM      4  C   UNL     1       1.586   9.332  19.216  0.00  0.00    +0.000 A 
ATOM      5  C   UNL     1       2.123   8.315  18.276  0.00  0.00    +0.000 A 
ATOM      6  O   UNL     1       2.382   8.515  17.103  0.00  0.00    +0.000 OA
ATOM      7  H   UNL     1       1.263   6.697  20.761  0.00  0.00    +0.000 HD
ENDROOT
BRANCH   3   8
ATOM      8  C   UNL     1       0.761   9.247  21.612  0.00  0.00    +0.000 C 
ATOM      9  F   UNL     1       1.250   8.697  22.754  0.00  0.00    +0.000 F 
ATOM     10  F   UNL     1       0.906  10.589  21.716  0.00  0.00    +0.000 F 
ATOM     11  F   UNL     1      -0.571   8.988  21.596  0.00  0.00    +0.000 F 
ENDBRANCH   3   8
BRANCH   1  12
ATOM     12  C   UNL     1       2.636   5.840  18.512  0.00  0.00    +0.000 C 
BRANCH  12  17
ATOM     13  C   UNL     1       6.039   5.863  16.760  0.00  0.00    +0.000 A 
ATOM     14  C   UNL     1       6.883   5.550  17.828  0.00  0.00    +0.000 A 
ATOM     15  C   UNL     1       6.369   5.367  19.109  0.00  0.00    +0.000 A 
ATOM     16  C   UNL     1       4.997   5.483  19.330  0.00  0.00    +0.000 A 
ATOM     17  C   UNL     1       4.127   5.772  18.268  0.00  0.00    +0.000 A 
ATOM     18  C   UNL     1       4.664   5.987  16.984  0.00  0.00    +0.000 A 
BRANCH  13  20
ATOM     19  C   UNL     1       7.021   4.814  14.858  0.00  0.00    +0.000 C 
ATOM     20  O   UNL     1       6.681   6.002  15.560  0.00  0.00    +0.000 OA
ENDBRANCH  13  20
ENDBRANCH  12  17
ENDBRANCH   1  12
BRANCH   4  21
ATOM     21  C   UNL     1       1.116  10.667  18.764  0.00  0.00    +0.000 C 
BRANCH  21  22
ATOM     22  C   UNL     1      -0.368  10.767  18.504  0.00  0.00    +0.000 A 
ATOM     23  C   UNL     1      -0.995   9.938  17.561  0.00  0.00    +0.000 A 
ATOM     24  C   UNL     1      -2.379   9.999  17.369  0.00  0.00    +0.000 A 
ATOM     25  C   UNL     1      -3.159  10.878  18.124  0.00  0.00    +0.000 A 
ATOM     26 CL   UNL     1      -4.865  10.880  17.851  0.00  0.00    +0.000 Cl
ATOM     27  C   UNL     1      -2.549  11.707  19.070  0.00  0.00    +0.000 A 
ATOM     28 CL   UNL     1      -3.447  12.805  20.057  0.00  0.00    +0.000 Cl
ATOM     29  C   UNL     1      -1.162  11.652  19.253  0.00  0.00    +0.000 A 
ENDBRANCH  21  22
ENDBRANCH   4  21
TORSDOF 6
ENDMDL
MODEL 5
REMARK VINA RESULT:      -8.0      4.638      6.265
REMARK  Name = 
REMARK  7 active torsions:
REMARK  status: ('A' for Active; 'I' for Inactive)
REMARK    1  A    between atoms: C_1  and  O_2
REMARK    2  A    between atoms: O_2  and  C_3
REMARK    3  A    between atoms: C_7  and  C_8
REMARK    4  A    between atoms: C_8  and  N_9
REMARK    5  A    between atoms: C_11  and  C_12
REMARK    6  A    between atoms: C_16  and  C_17
REMARK    7  A    between atoms: C_17  and  C_18
REMARK                            x       y       z     vdW  Elec       q    Type
REMARK                         _______ _______ _______ _____ _____    ______ ____
ROOT
ATOM      1  N   UNL     1       2.163   7.449  18.838  0.00  0.00    +0.000 N 
ATOM      2  N   UNL     1       1.858   7.513  20.198  0.00  0.00    +0.000 N 
ATOM      3  C   UNL     1       1.315   8.789  20.408  0.00  0.00    +0.000 A 
ATOM      4  C   UNL     1       1.408   9.566  19.309  0.00  0.00    +0.000 A 
ATOM      5  C   UNL     1       1.993   8.693  18.258  0.00  0.00    +0.000 A 
ATOM      6  O   UNL     1       2.226   9.037  17.114  0.00  0.00    +0.000 OA
ATOM      7  H   UNL     1       1.260   6.761  20.552  0.00  0.00    +0.000 HD
ENDROOT
BRANCH   3   8
ATOM      8  C   UNL     1       0.618   9.166  21.684  0.00  0.00    +0.000 C 
ATOM      9  F   UNL     1       1.274   8.689  22.774  0.00  0.00    +0.000 F 
ATOM     10  F   UNL     1       0.505  10.507  21.835  0.00  0.00    +0.000 F 
ATOM     11  F   UNL     1      -0.638   8.652  21.732  0.00  0.00    +0.000 F 
ENDBRANCH   3   8
BRANCH   1  12
ATOM     12  C   UNL     1       2.655   6.242  18.215  0.00  0.00    +0.000 C 
BRANCH  12  17
ATOM     13  C   UNL     1       6.404   6.763  17.647  0.00  0.00    +0.000 A 
ATOM     14  C   UNL     1       6.932   5.774  18.480  0.00  0.00    +0.000 A 
ATOM     15  C   UNL     1       6.094   4.968  19.246  0.00  0.00    +0.000 A 
ATOM     16  C   UNL     1       4.712   5.138  19.174  0.00  0.00    +0.000 A 
ATOM     17  C   UNL     1       4.157   6.108  18.325  0.00  0.00    +0.000 A 
ATOM     18  C   UNL     1       5.018   6.937  17.581  0.00  0.00    +0.000 A 
BRANCH  13  20
ATOM     19  C   UNL     1       7.957   8.571  17.598  0.00  0.00    +0.000 C 
ATOM     20  O   UNL     1       7.344   7.467  16.946  0.00  0.00    +0.000 OA
ENDBRANCH  13  20
ENDBRANCH  12  17
ENDBRANCH   1  12
BRANCH   4  21
ATOM     21  C   UNL     1       0.855  10.912  19.011  0.00  0.00    +0.000 C 
BRANCH  21  22
ATOM     22  C   UNL     1      -0.620  10.938  18.685  0.00  0.00    +0.000 A 
ATOM     23  C   UNL     1      -1.521  11.681  19.463  0.00  0.00    +0.000 A 
ATOM     24  C   UNL     1      -2.874  11.745  19.118  0.00  0.00    +0.000 A 
ATOM     25  C   UNL     1      -3.347  11.077  17.986  0.00  0.00    +0.000 A 
ATOM     26 CL   UNL     1      -5.027  11.221  17.607  0.00  0.00    +0.000 Cl
ATOM     27  C   UNL     1      -2.461  10.336  17.199  0.00  0.00    +0.000 A 
ATOM     28 CL   UNL     1      -2.965   9.501  15.772  0.00  0.00    +0.000 Cl
ATOM     29  C   UNL     1      -1.108  10.266  17.551  0.00  0.00    +0.000 A 
ENDBRANCH  21  22
ENDBRANCH   4  21
TORSDOF 6
ENDMDL
MODEL 6
REMARK VINA RESULT:      -8.0      0.737      1.556
REMARK  Name = 
REMARK  7 active torsions:
REMARK  status: ('A' for Active; 'I' for Inactive)
REMARK    1  A    between atoms: C_1  and  O_2
REMARK    2  A    between atoms: O_2  and  C_3
REMARK    3  A    between atoms: C_7  and  C_8
REMARK    4  A    between atoms: C_8  and  N_9
REMARK    5  A    between atoms: C_11  and  C_12
REMARK    6  A    between atoms: C_16  and  C_17
REMARK    7  A    between atoms: C_17  and  C_18
REMARK                            x       y       z     vdW  Elec       q    Type
REMARK                         _______ _______ _______ _____ _____    ______ ____
ROOT
ATOM      1  N   UNL     1       6.081   4.899  17.076  0.00  0.00    +0.000 N 
ATOM      2  N   UNL     1       5.922   3.992  18.123  0.00  0.00    +0.000 N 
ATOM      3  C   UNL     1       4.579   4.088  18.512  0.00  0.00    +0.000 A 
ATOM      4  C   UNL     1       3.941   5.097  17.883  0.00  0.00    +0.000 A 
ATOM      5  C   UNL     1       4.937   5.663  16.936  0.00  0.00    +0.000 A 
ATOM      6  O   UNL     1       4.732   6.594  16.180  0.00  0.00    +0.000 OA
ATOM      7  H   UNL     1       6.213   3.031  17.923  0.00  0.00    +0.000 HD
ENDROOT
BRANCH   3   8
ATOM      8  C   UNL     1       3.936   3.093  19.435  0.00  0.00    +0.000 C 
ATOM      9  F   UNL     1       3.047   2.301  18.779  0.00  0.00    +0.000 F 
ATOM     10  F   UNL     1       4.840   2.278  20.029  0.00  0.00    +0.000 F 
ATOM     11  F   UNL     1       3.245   3.712  20.426  0.00  0.00    +0.000 F 
ENDBRANCH   3   8
BRANCH   1  12
ATOM     12  C   UNL     1       7.319   5.017  16.339  0.00  0.00    +0.000 C 
BRANCH  12  17
ATOM     13  C   UNL     1       6.068   3.597  13.012  0.00  0.00    +0.000 A 
ATOM     14  C   UNL     1       6.875   4.297  12.112  0.00  0.00    +0.000 A 
ATOM     15  C   UNL     1       7.790   5.244  12.566  0.00  0.00    +0.000 A 
ATOM     16  C   UNL     1       7.915   5.489  13.932  0.00  0.00    +0.000 A 
ATOM     17  C   UNL     1       7.133   4.781  14.858  0.00  0.00    +0.000 A 
ATOM     18  C   UNL     1       6.189   3.850  14.383  0.00  0.00    +0.000 A 
BRANCH  13  20
ATOM     19  C   UNL     1       4.379   3.163  11.388  0.00  0.00    +0.000 C 
ATOM     20  O   UNL     1       5.228   2.692  12.426  0.00  0.00    +0.000 OA
ENDBRANCH  13  20
ENDBRANCH  12  17
ENDBRANCH   1  12
BRANCH   4  21
ATOM     21  C   UNL     1       2.508   5.487  17.861  0.00  0.00    +0.000 C 
BRANCH  21  22
ATOM     22  C   UNL     1       2.216   6.874  18.384  0.00  0.00    +0.000 A 
ATOM     23  C   UNL     1       2.106   7.969  17.512  0.00  0.00    +0.000 A 
ATOM     24  C   UNL     1       1.779   9.237  18.001  0.00  0.00    +0.000 A 
ATOM     25  C   UNL     1       1.544   9.429  19.364  0.00  0.00    +0.000 A 
ATOM     26 CL   UNL     1       1.120  11.019  19.893  0.00  0.00    +0.000 Cl
ATOM     27  C   UNL     1       1.646   8.348  20.244  0.00  0.00    +0.000 A 
ATOM     28 CL   UNL     1       1.350   8.501  21.940  0.00  0.00    +0.000 Cl
ATOM     29  C   UNL     1       1.984   7.081  19.754  0.00  0.00    +0.000 A 
ENDBRANCH  21  22
ENDBRANCH   4  21
TORSDOF 6
ENDMDL
MODEL 7
REMARK VINA RESULT:      -7.7      5.497      7.228
REMARK  Name = 
REMARK  7 active torsions:
REMARK  status: ('A' for Active; 'I' for Inactive)
REMARK    1  A    between atoms: C_1  and  O_2
REMARK    2  A    between atoms: O_2  and  C_3
REMARK    3  A    between atoms: C_7  and  C_8
REMARK    4  A    between atoms: C_8  and  N_9
REMARK    5  A    between atoms: C_11  and  C_12
REMARK    6  A    between atoms: C_16  and  C_17
REMARK    7  A    between atoms: C_17  and  C_18
REMARK                            x       y       z     vdW  Elec       q    Type
REMARK                         _______ _______ _______ _____ _____    ______ ____
ROOT
ATOM      1  N   UNL     1       2.080   8.090  18.932  0.00  0.00    +0.000 N 
ATOM      2  N   UNL     1       1.652   7.922  20.249  0.00  0.00    +0.000 N 
ATOM      3  C   UNL     1       0.945   9.088  20.572  0.00  0.00    +0.000 A 
ATOM      4  C   UNL     1       1.041  10.023  19.605  0.00  0.00    +0.000 A 
ATOM      5  C   UNL     1       1.815   9.380  18.511  0.00  0.00    +0.000 A 
ATOM      6  O   UNL     1       2.105   9.910  17.454  0.00  0.00    +0.000 OA
ATOM      7  H   UNL     1       1.119   7.067  20.434  0.00  0.00    +0.000 HD
ENDROOT
BRANCH   3   8
ATOM      8  C   UNL     1       0.099   9.199  21.809  0.00  0.00    +0.000 C 
ATOM      9  F   UNL     1      -0.506  10.412  21.896  0.00  0.00    +0.000 F 
ATOM     10  F   UNL     1      -0.875   8.259  21.855  0.00  0.00    +0.000 F 
ATOM     11  F   UNL     1       0.846   9.056  22.934  0.00  0.00    +0.000 F 
ENDBRANCH   3   8
BRANCH   1  12
ATOM     12  C   UNL     1       2.765   7.045  18.205  0.00  0.00    +0.000 C 
BRANCH  12  17
ATOM     13  C   UNL     1       2.243   3.928  20.363  0.00  0.00    +0.000 A 
ATOM     14  C   UNL     1       1.655   3.065  19.435  0.00  0.00    +0.000 A 
ATOM     15  C   UNL     1       1.394   3.491  18.135  0.00  0.00    +0.000 A 
ATOM     16  C   UNL     1       1.735   4.786  17.747  0.00  0.00    +0.000 A 
ATOM     17  C   UNL     1       2.350   5.663  18.655  0.00  0.00    +0.000 A 
ATOM     18  C   UNL     1       2.577   5.230  19.975  0.00  0.00    +0.000 A 
BRANCH  13  20
ATOM     19  C   UNL     1       1.543   2.362  22.018  0.00  0.00    +0.000 C 
ATOM     20  O   UNL     1       2.450   3.370  21.594  0.00  0.00    +0.000 OA
ENDBRANCH  13  20
ENDBRANCH  12  17
ENDBRANCH   1  12
BRANCH   4  21
ATOM     21  C   UNL     1       0.360  11.333  19.436  0.00  0.00    +0.000 C 
BRANCH  21  22
ATOM     22  C   UNL     1      -1.057  11.253  18.919  0.00  0.00    +0.000 A 
ATOM     23  C   UNL     1      -2.096  11.962  19.541  0.00  0.00    +0.000 A 
ATOM     24  C   UNL     1      -3.393  11.927  19.020  0.00  0.00    +0.000 A 
ATOM     25  C   UNL     1      -3.670  11.194  17.863  0.00  0.00    +0.000 A 
ATOM     26 CL   UNL     1      -5.290  11.218  17.262  0.00  0.00    +0.000 Cl
ATOM     27  C   UNL     1      -2.645  10.486  17.230  0.00  0.00    +0.000 A 
ATOM     28 CL   UNL     1      -2.903   9.575  15.784  0.00  0.00    +0.000 Cl
ATOM     29  C   UNL     1      -1.349  10.515  17.759  0.00  0.00    +0.000 A 
ENDBRANCH  21  22
ENDBRANCH   4  21
TORSDOF 6
ENDMDL
MODEL 8
REMARK VINA RESULT:      -7.7      4.420      6.134
REMARK  Name = 
REMARK  7 active torsions:
REMARK  status: ('A' for Active; 'I' for Inactive)
REMARK    1  A    between atoms: C_1  and  O_2
REMARK    2  A    between atoms: O_2  and  C_3
REMARK    3  A    between atoms: C_7  and  C_8
REMARK    4  A    between atoms: C_8  and  N_9
REMARK    5  A    between atoms: C_11  and  C_12
REMARK    6  A    between atoms: C_16  and  C_17
REMARK    7  A    between atoms: C_17  and  C_18
REMARK                            x       y       z     vdW  Elec       q    Type
REMARK                         _______ _______ _______ _____ _____    ______ ____
ROOT
ATOM      1  N   UNL     1       1.936   6.663  19.559  0.00  0.00    +0.000 N 
ATOM      2  N   UNL     1       1.714   7.147  20.848  0.00  0.00    +0.000 N 
ATOM      3  C   UNL     1       1.443   8.515  20.701  0.00  0.00    +0.000 A 
ATOM      4  C   UNL     1       1.634   8.936  19.434  0.00  0.00    +0.000 A 
ATOM      5  C   UNL     1       1.986   7.715  18.662  0.00  0.00    +0.000 A 
ATOM      6  O   UNL     1       2.228   7.687  17.470  0.00  0.00    +0.000 OA
ATOM      7  H   UNL     1       0.998   6.654  21.388  0.00  0.00    +0.000 HD
ENDROOT
BRANCH   3   8
ATOM      8  C   UNL     1       0.895   9.351  21.822  0.00  0.00    +0.000 C 
ATOM      9  F   UNL     1      -0.462   9.308  21.862  0.00  0.00    +0.000 F 
ATOM     10  F   UNL     1       1.347   8.950  23.035  0.00  0.00    +0.000 F 
ATOM     11  F   UNL     1       1.238  10.656  21.680  0.00  0.00    +0.000 F 
ENDBRANCH   3   8
BRANCH   1  12
ATOM     12  C   UNL     1       2.152   5.260  19.288  0.00  0.00    +0.000 C 
BRANCH  12  17
ATOM     13  C   UNL     1       5.949   5.063  18.854  0.00  0.00    +0.000 A 
ATOM     14  C   UNL     1       6.036   4.565  17.552  0.00  0.00    +0.000 A 
ATOM     15  C   UNL     1       4.885   4.260  16.830  0.00  0.00    +0.000 A 
ATOM     16  C   UNL     1       3.631   4.466  17.403  0.00  0.00    +0.000 A 
ATOM     17  C   UNL     1       3.518   4.990  18.701  0.00  0.00    +0.000 A 
ATOM     18  C   UNL     1       4.691   5.262  19.431  0.00  0.00    +0.000 A 
BRANCH  13  20
ATOM     19  C   UNL     1       7.950   6.360  18.861  0.00  0.00    +0.000 C 
ATOM     20  O   UNL     1       7.159   5.328  19.435  0.00  0.00    +0.000 OA
ENDBRANCH  13  20
ENDBRANCH  12  17
ENDBRANCH   1  12
BRANCH   4  21
ATOM     21  C   UNL     1       1.342  10.237  18.778  0.00  0.00    +0.000 C 
BRANCH  21  22
ATOM     22  C   UNL     1      -0.124  10.526  18.559  0.00  0.00    +0.000 A 
ATOM     23  C   UNL     1      -0.810  11.444  19.370  0.00  0.00    +0.000 A 
ATOM     24  C   UNL     1      -2.152  11.747  19.123  0.00  0.00    +0.000 A 
ATOM     25  C   UNL     1      -2.826  11.149  18.055  0.00  0.00    +0.000 A 
ATOM     26 CL   UNL     1      -4.477  11.591  17.794  0.00  0.00    +0.000 Cl
ATOM     27  C   UNL     1      -2.155  10.236  17.237  0.00  0.00    +0.000 A 
ATOM     28 CL   UNL     1      -2.913   9.471  15.885  0.00  0.00    +0.000 Cl
ATOM     29  C   UNL     1      -0.814   9.926  17.493  0.00  0.00    +0.000 A 
ENDBRANCH  21  22
ENDBRANCH   4  21
TORSDOF 6
ENDMDL
MODEL 9
REMARK VINA RESULT:      -7.7      5.077      6.720
REMARK  Name = 
REMARK  7 active torsions:
REMARK  status: ('A' for Active; 'I' for Inactive)
REMARK    1  A    between atoms: C_1  and  O_2
REMARK    2  A    between atoms: O_2  and  C_3
REMARK    3  A    between atoms: C_7  and  C_8
REMARK    4  A    between atoms: C_8  and  N_9
REMARK    5  A    between atoms: C_11  and  C_12
REMARK    6  A    between atoms: C_16  and  C_17
REMARK    7  A    between atoms: C_17  and  C_18
REMARK                            x       y       z     vdW  Elec       q    Type
REMARK                         _______ _______ _______ _____ _____    ______ ____
ROOT
ATOM      1  N   UNL     1       2.235   8.384  18.616  0.00  0.00    +0.000 N 
ATOM      2  N   UNL     1       1.801   7.976  19.877  0.00  0.00    +0.000 N 
ATOM      3  C   UNL     1       1.015   9.027  20.369  0.00  0.00    +0.000 A 
ATOM      4  C   UNL     1       1.061  10.111  19.568  0.00  0.00    +0.000 A 
ATOM      5  C   UNL     1       1.891   9.706  18.404  0.00  0.00    +0.000 A 
ATOM      6  O   UNL     1       2.159  10.419  17.455  0.00  0.00    +0.000 OA
ATOM      7  H   UNL     1       1.324   7.070  19.908  0.00  0.00    +0.000 HD
ENDROOT
BRANCH   3   8
ATOM      8  C   UNL     1       0.147   8.880  21.586  0.00  0.00    +0.000 C 
ATOM      9  F   UNL     1      -0.637   7.773  21.513  0.00  0.00    +0.000 F 
ATOM     10  F   UNL     1       0.870   8.787  22.729  0.00  0.00    +0.000 F 
ATOM     11  F   UNL     1      -0.690   9.939  21.728  0.00  0.00    +0.000 F 
ENDBRANCH   3   8
BRANCH   1  12
ATOM     12  C   UNL     1       2.997   7.518  17.745  0.00  0.00    +0.000 C 
BRANCH  12  17
ATOM     13  C   UNL     1       3.915   4.053  19.088  0.00  0.00    +0.000 A 
ATOM     14  C   UNL     1       2.739   3.350  18.815  0.00  0.00    +0.000 A 
ATOM     15  C   UNL     1       1.646   3.990  18.236  0.00  0.00    +0.000 A 
ATOM     16  C   UNL     1       1.726   5.343  17.912  0.00  0.00    +0.000 A 
ATOM     17  C   UNL     1       2.905   6.065  18.153  0.00  0.00    +0.000 A 
ATOM     18  C   UNL     1       3.991   5.413  18.769  0.00  0.00    +0.000 A 
BRANCH  13  20
ATOM     19  C   UNL     1       4.530   2.064  20.248  0.00  0.00    +0.000 C 
ATOM     20  O   UNL     1       4.907   3.294  19.644  0.00  0.00    +0.000 OA
ENDBRANCH  13  20
ENDBRANCH  12  17
ENDBRANCH   1  12
BRANCH   4  21
ATOM     21  C   UNL     1       0.297  11.385  19.599  0.00  0.00    +0.000 C 
BRANCH  21  22
ATOM     22  C   UNL     1      -1.100  11.305  19.030  0.00  0.00    +0.000 A 
ATOM     23  C   UNL     1      -2.161  12.015  19.613  0.00  0.00    +0.000 A 
ATOM     24  C   UNL     1      -3.438  11.979  19.046  0.00  0.00    +0.000 A 
ATOM     25  C   UNL     1      -3.673  11.245  17.881  0.00  0.00    +0.000 A 
ATOM     26 CL   UNL     1      -5.270  11.267  17.222  0.00  0.00    +0.000 Cl
ATOM     27  C   UNL     1      -2.626  10.535  17.287  0.00  0.00    +0.000 A 
ATOM     28 CL   UNL     1      -2.831   9.621  15.834  0.00  0.00    +0.000 Cl
ATOM     29  C   UNL     1      -1.350  10.564  17.863  0.00  0.00    +0.000 A 
ENDBRANCH  21  22
ENDBRANCH   4  21
TORSDOF 6
ENDMDL
