MODEL 1
REMARK VINA RESULT:      -9.7      0.000      0.000
REMARK  Name = 
REMARK  4 active torsions:
REMARK  status: ('A' for Active; 'I' for Inactive)
REMARK    1  A    between atoms: C_2  and  C_19
REMARK    2  A    between atoms: N_3  and  C_4
REMARK    3  A    between atoms: C_8  and  S_9
REMARK    4  A    between atoms: S_9  and  N_12
REMARK                            x       y       z     vdW  Elec       q    Type
REMARK                         _______ _______ _______ _____ _____    ______ ____
ROOT
ATOM      1  O   UNL     1       2.160   9.112  17.158  0.00  0.00    +0.000 OA
ATOM      2  C   UNL     1       2.017   8.914  18.360  0.00  0.00    +0.000 C 
ATOM      3  N   UNL     1       2.276   7.751  19.053  0.00  0.00    +0.000 N 
ATOM      4  H   UNL     1       2.003   7.709  20.030  0.00  0.00    +0.000 HD
ENDROOT
BRANCH   2   5
ATOM      5  C   UNL     1       1.424  10.035  19.113  0.00  0.00    +0.000 A 
ATOM      6  C   UNL     1       1.124  11.270  18.545  0.00  0.00    +0.000 A 
ATOM      7  C   UNL     1       0.322  12.163  19.269  0.00  0.00    +0.000 A 
ATOM      8 CL   UNL     1      -0.056  13.689  18.549  0.00  0.00    +0.000 Cl
ATOM      9  C   UNL     1      -0.153  11.828  20.549  0.00  0.00    +0.000 A 
ATOM     10  C   UNL     1       0.356  10.689  21.173  0.00  0.00    +0.000 A 
ATOM     11  C   UNL     1       1.085   9.765  20.440  0.00  0.00    +0.000 A 
ATOM     12  O   UNL     1       0.393  10.538  22.530  0.00  0.00    +0.000 OA
ATOM     13  C   UNL     1      -0.859  10.252  23.137  0.00  0.00    +0.000 C 
ATOM     14  C   UNL     1      -1.779  11.459  23.160  0.00  0.00    +0.000 C 
ATOM     15  C   UNL     1      -2.154  11.866  21.744  0.00  0.00    +0.000 C 
ATOM     16  O   UNL     1      -1.091  12.630  21.147  0.00  0.00    +0.000 OA
ENDBRANCH   2   5
BRANCH   3  17
ATOM     17  C   UNL     1       2.681   6.532  18.455  0.00  0.00    +0.000 A 
ATOM     18  C   UNL     1       1.826   5.435  18.293  0.00  0.00    +0.000 A 
ATOM     19  C   UNL     1       2.286   4.225  17.770  0.00  0.00    +0.000 A 
ATOM     20  C   UNL     1       3.621   4.089  17.393  0.00  0.00    +0.000 A 
ATOM     21  C   UNL     1       4.478   5.182  17.537  0.00  0.00    +0.000 A 
ATOM     22  C   UNL     1       4.010   6.407  18.034  0.00  0.00    +0.000 A 
BRANCH  21  23
ATOM     23  S   UNL     1       6.158   5.035  16.982  0.00  0.00    +0.000 S 
ATOM     24  O   UNL     1       6.556   6.318  16.435  0.00  0.00    +0.000 OA
ATOM     25  O   UNL     1       6.947   4.424  18.037  0.00  0.00    +0.000 OA
BRANCH  23  26
ATOM     26  N   UNL     1       6.108   3.996  15.681  0.00  0.00    +0.000 N 
ATOM     27  C   UNL     1       6.586   4.305  14.414  0.00  0.00    +0.000 C 
ATOM     28  N   UNL     1       7.554   5.143  14.211  0.00  0.00    +0.000 NA
ATOM     29  C   UNL     1       7.727   5.203  12.752  0.00  0.00    +0.000 C 
ATOM     30  C   UNL     1       7.033   3.974  12.188  0.00  0.00    +0.000 C 
ATOM     31  C   UNL     1       5.967   3.668  13.216  0.00  0.00    +0.000 C 
ATOM     32  H   UNL     1       5.427   3.253  15.822  0.00  0.00    +0.000 HD
ENDBRANCH  23  26
ENDBRANCH  21  23
ENDBRANCH   3  17
TORSDOF 4
ENDMDL
MODEL 2
REMARK VINA RESULT:      -9.6      1.735      2.363
REMARK  Name = 
REMARK  4 active torsions:
REMARK  status: ('A' for Active; 'I' for Inactive)
REMARK    1  A    between atoms: C_2  and  C_19
REMARK    2  A    between atoms: N_3  and  C_4
REMARK    3  A    between atoms: C_8  and  S_9
REMARK    4  A    between atoms: S_9  and  N_12
REMARK                            x       y       z     vdW  Elec       q    Type
REMARK                         _______ _______ _______ _____ _____    ______ ____
ROOT
ATOM      1  O   UNL     1       2.413   8.057  17.977  0.00  0.00    +0.000 OA
ATOM      2  C   UNL     1       2.192   7.827  19.162  0.00  0.00    +0.000 C 
ATOM      3  N   UNL     1       2.623   6.746  19.899  0.00  0.00    +0.000 N 
ATOM      4  H   UNL     1       2.266   6.641  20.843  0.00  0.00    +0.000 HD
ENDROOT
BRANCH   2   5
ATOM      5  C   UNL     1       1.295   8.789  19.829  0.00  0.00    +0.000 A 
ATOM      6  C   UNL     1       0.916   8.689  21.165  0.00  0.00    +0.000 A 
ATOM      7  C   UNL     1       0.290   9.789  21.768  0.00  0.00    +0.000 A 
ATOM      8 CL   UNL     1      -0.164   9.659  23.431  0.00  0.00    +0.000 Cl
ATOM      9  C   UNL     1       0.032  10.960  21.036  0.00  0.00    +0.000 A 
ATOM     10  C   UNL     1       0.214  10.937  19.653  0.00  0.00    +0.000 A 
ATOM     11  C   UNL     1       0.901   9.887  19.061  0.00  0.00    +0.000 A 
ATOM     12  O   UNL     1      -0.457  11.766  18.800  0.00  0.00    +0.000 OA
ATOM     13  C   UNL     1      -0.002  13.111  18.789  0.00  0.00    +0.000 C 
ATOM     14  C   UNL     1      -0.395  13.865  20.047  0.00  0.00    +0.000 C 
ATOM     15  C   UNL     1       0.297  13.265  21.260  0.00  0.00    +0.000 C 
ATOM     16  O   UNL     1      -0.398  12.083  21.696  0.00  0.00    +0.000 OA
ENDBRANCH   2   5
BRANCH   3  17
ATOM     17  C   UNL     1       3.344   5.647  19.368  0.00  0.00    +0.000 A 
ATOM     18  C   UNL     1       3.056   4.314  19.688  0.00  0.00    +0.000 A 
ATOM     19  C   UNL     1       3.840   3.265  19.205  0.00  0.00    +0.000 A 
ATOM     20  C   UNL     1       4.934   3.531  18.382  0.00  0.00    +0.000 A 
ATOM     21  C   UNL     1       5.220   4.855  18.046  0.00  0.00    +0.000 A 
ATOM     22  C   UNL     1       4.415   5.907  18.507  0.00  0.00    +0.000 A 
BRANCH  21  23
ATOM     23  S   UNL     1       6.564   5.189  16.935  0.00  0.00    +0.000 S 
ATOM     24  O   UNL     1       6.351   6.506  16.367  0.00  0.00    +0.000 OA
ATOM     25  O   UNL     1       7.814   4.886  17.609  0.00  0.00    +0.000 OA
BRANCH  23  26
ATOM     26  N   UNL     1       6.368   4.125  15.667  0.00  0.00    +0.000 N 
ATOM     27  C   UNL     1       6.738   4.393  14.356  0.00  0.00    +0.000 C 
ATOM     28  N   UNL     1       7.706   5.198  14.048  0.00  0.00    +0.000 NA
ATOM     29  C   UNL     1       7.749   5.222  12.578  0.00  0.00    +0.000 C 
ATOM     30  C   UNL     1       6.972   4.003  12.108  0.00  0.00    +0.000 C 
ATOM     31  C   UNL     1       5.996   3.751  13.234  0.00  0.00    +0.000 C 
ATOM     32  H   UNL     1       5.682   3.406  15.886  0.00  0.00    +0.000 HD
ENDBRANCH  23  26
ENDBRANCH  21  23
ENDBRANCH   3  17
TORSDOF 4
ENDMDL
MODEL 3
REMARK VINA RESULT:      -9.5      1.722      2.458
REMARK  Name = 
REMARK  4 active torsions:
REMARK  status: ('A' for Active; 'I' for Inactive)
REMARK    1  A    between atoms: C_2  and  C_19
REMARK    2  A    between atoms: N_3  and  C_4
REMARK    3  A    between atoms: C_8  and  S_9
REMARK    4  A    between atoms: S_9  and  N_12
REMARK                            x       y       z     vdW  Elec       q    Type
REMARK                         _______ _______ _______ _____ _____    ______ ____
ROOT
ATOM      1  O   UNL     1       2.627   8.538  17.260  0.00  0.00    +0.000 OA
ATOM      2  C   UNL     1       2.309   8.094  18.358  0.00  0.00    +0.000 C 
ATOM      3  N   UNL     1       2.640   6.868  18.892  0.00  0.00    +0.000 N 
ATOM      4  H   UNL     1       2.209   6.600  19.771  0.00  0.00    +0.000 HD
ENDROOT
BRANCH   2   5
ATOM      5  C   UNL     1       1.404   8.954  19.143  0.00  0.00    +0.000 A 
ATOM      6  C   UNL     1       1.156   8.772  20.501  0.00  0.00    +0.000 A 
ATOM      7  C   UNL     1       0.504   9.794  21.205  0.00  0.00    +0.000 A 
ATOM      8 CL   UNL     1       0.212   9.565  22.894  0.00  0.00    +0.000 Cl
ATOM      9  C   UNL     1       0.091  10.968  20.552  0.00  0.00    +0.000 A 
ATOM     10  C   UNL     1       0.149  11.012  19.159  0.00  0.00    +0.000 A 
ATOM     11  C   UNL     1       0.859  10.045  18.463  0.00  0.00    +0.000 A 
ATOM     12  O   UNL     1      -0.658  11.816  18.405  0.00  0.00    +0.000 OA
ATOM     13  C   UNL     1      -0.312  13.193  18.416  0.00  0.00    +0.000 C 
ATOM     14  C   UNL     1      -0.646  13.864  19.736  0.00  0.00    +0.000 C 
ATOM     15  C   UNL     1       0.197  13.276  20.856  0.00  0.00    +0.000 C 
ATOM     16  O   UNL     1      -0.363  12.026  21.297  0.00  0.00    +0.000 OA
ENDBRANCH   2   5
BRANCH   3  17
ATOM     17  C   UNL     1       3.353   5.856  18.201  0.00  0.00    +0.000 A 
ATOM     18  C   UNL     1       2.771   4.650  17.792  0.00  0.00    +0.000 A 
ATOM     19  C   UNL     1       3.528   3.647  17.184  0.00  0.00    +0.000 A 
ATOM     20  C   UNL     1       4.892   3.834  16.968  0.00  0.00    +0.000 A 
ATOM     21  C   UNL     1       5.479   5.039  17.360  0.00  0.00    +0.000 A 
ATOM     22  C   UNL     1       4.714   6.058  17.944  0.00  0.00    +0.000 A 
BRANCH  21  23
ATOM     23  S   UNL     1       7.199   5.310  17.013  0.00  0.00    +0.000 S 
ATOM     24  O   UNL     1       7.632   6.453  17.793  0.00  0.00    +0.000 OA
ATOM     25  O   UNL     1       7.905   4.046  17.132  0.00  0.00    +0.000 OA
BRANCH  23  26
ATOM     26  N   UNL     1       7.260   5.810  15.425  0.00  0.00    +0.000 N 
ATOM     27  C   UNL     1       7.069   4.973  14.333  0.00  0.00    +0.000 C 
ATOM     28  N   UNL     1       6.332   3.908  14.383  0.00  0.00    +0.000 NA
ATOM     29  C   UNL     1       6.419   3.304  13.045  0.00  0.00    +0.000 C 
ATOM     30  C   UNL     1       6.943   4.390  12.118  0.00  0.00    +0.000 C 
ATOM     31  C   UNL     1       7.742   5.283  13.039  0.00  0.00    +0.000 C 
ATOM     32  H   UNL     1       7.750   6.697  15.332  0.00  0.00    +0.000 HD
ENDBRANCH  23  26
ENDBRANCH  21  23
ENDBRANCH   3  17
TORSDOF 4
ENDMDL
MODEL 4
REMARK VINA RESULT:      -9.4      1.000      1.073
REMARK  Name = 
REMARK  4 active torsions:
REMARK  status: ('A' for Active; 'I' for Inactive)
REMARK    1  A    between atoms: C_2  and  C_19
REMARK    2  A    between atoms: N_3  and  C_4
REMARK    3  A    between atoms: C_8  and  S_9
REMARK    4  A    between atoms: S_9  and  N_12
REMARK                            x       y       z     vdW  Elec       q    Type
REMARK                         _______ _______ _______ _____ _____    ______ ____
ROOT
ATOM      1  O   UNL     1       1.566   7.072  20.788  0.00  0.00    +0.000 OA
ATOM      2  C   UNL     1       1.665   7.836  19.835  0.00  0.00    +0.000 C 
ATOM      3  N   UNL     1       2.154   7.549  18.579  0.00  0.00    +0.000 N 
ATOM      4  H   UNL     1       2.273   8.317  17.927  0.00  0.00    +0.000 HD
ENDROOT
BRANCH   2   5
ATOM      5  C   UNL     1       1.287   9.235  20.111  0.00  0.00    +0.000 A 
ATOM      6  C   UNL     1       1.454  10.272  19.198  0.00  0.00    +0.000 A 
ATOM      7  C   UNL     1       0.820  11.496  19.451  0.00  0.00    +0.000 A 
ATOM      8 CL   UNL     1       1.022  12.773  18.304  0.00  0.00    +0.000 Cl
ATOM      9  C   UNL     1       0.049  11.680  20.612  0.00  0.00    +0.000 A 
ATOM     10  C   UNL     1       0.097  10.704  21.607  0.00  0.00    +0.000 A 
ATOM     11  C   UNL     1       0.655   9.464  21.335  0.00  0.00    +0.000 A 
ATOM     12  O   UNL     1      -0.153  10.969  22.923  0.00  0.00    +0.000 OA
ATOM     13  C   UNL     1      -1.522  11.164  23.247  0.00  0.00    +0.000 C 
ATOM     14  C   UNL     1      -2.054  12.492  22.737  0.00  0.00    +0.000 C 
ATOM     15  C   UNL     1      -2.040  12.519  21.217  0.00  0.00    +0.000 C 
ATOM     16  O   UNL     1      -0.716  12.812  20.737  0.00  0.00    +0.000 OA
ENDBRANCH   2   5
BRANCH   3  17
ATOM     17  C   UNL     1       2.718   6.304  18.202  0.00  0.00    +0.000 A 
ATOM     18  C   UNL     1       2.026   5.090  18.288  0.00  0.00    +0.000 A 
ATOM     19  C   UNL     1       2.644   3.876  17.981  0.00  0.00    +0.000 A 
ATOM     20  C   UNL     1       3.977   3.854  17.576  0.00  0.00    +0.000 A 
ATOM     21  C   UNL     1       4.672   5.061  17.473  0.00  0.00    +0.000 A 
ATOM     22  C   UNL     1       4.043   6.283  17.753  0.00  0.00    +0.000 A 
BRANCH  21  23
ATOM     23  S   UNL     1       6.346   5.041  16.881  0.00  0.00    +0.000 S 
ATOM     24  O   UNL     1       6.639   6.355  16.343  0.00  0.00    +0.000 OA
ATOM     25  O   UNL     1       7.200   4.476  17.910  0.00  0.00    +0.000 OA
BRANCH  23  26
ATOM     26  N   UNL     1       6.341   4.017  15.567  0.00  0.00    +0.000 N 
ATOM     27  C   UNL     1       6.774   4.372  14.296  0.00  0.00    +0.000 C 
ATOM     28  N   UNL     1       7.681   5.275  14.088  0.00  0.00    +0.000 NA
ATOM     29  C   UNL     1       7.823   5.363  12.627  0.00  0.00    +0.000 C 
ATOM     30  C   UNL     1       7.201   4.098  12.059  0.00  0.00    +0.000 C 
ATOM     31  C   UNL     1       6.177   3.710  13.101  0.00  0.00    +0.000 C 
ATOM     32  H   UNL     1       5.713   3.229  15.710  0.00  0.00    +0.000 HD
ENDBRANCH  23  26
ENDBRANCH  21  23
ENDBRANCH   3  17
TORSDOF 4
ENDMDL
MODEL 5
REMARK VINA RESULT:      -9.1      2.519      2.982
REMARK  Name = 
REMARK  4 active torsions:
REMARK  status: ('A' for Active; 'I' for Inactive)
REMARK    1  A    between atoms: C_2  and  C_19
REMARK    2  A    between atoms: N_3  and  C_4
REMARK    3  A    between atoms: C_8  and  S_9
REMARK    4  A    between atoms: S_9  and  N_12
REMARK                            x       y       z     vdW  Elec       q    Type
REMARK                         _______ _______ _______ _____ _____    ______ ____
ROOT
ATOM      1  O   UNL     1       2.084   7.920  18.436  0.00  0.00    +0.000 OA
ATOM      2  C   UNL     1       1.731   8.078  19.600  0.00  0.00    +0.000 C 
ATOM      3  N   UNL     1       1.612   7.113  20.576  0.00  0.00    +0.000 N 
ATOM      4  H   UNL     1       1.203   7.383  21.464  0.00  0.00    +0.000 HD
ENDROOT
BRANCH   2   5
ATOM      5  C   UNL     1       1.317   9.450  19.948  0.00  0.00    +0.000 A 
ATOM      6  C   UNL     1       1.431  10.532  19.080  0.00  0.00    +0.000 A 
ATOM      7  C   UNL     1       0.764  11.723  19.402  0.00  0.00    +0.000 A 
ATOM      8 CL   UNL     1       0.901  13.056  18.311  0.00  0.00    +0.000 Cl
ATOM      9  C   UNL     1       0.014  11.829  20.586  0.00  0.00    +0.000 A 
ATOM     10  C   UNL     1       0.114  10.811  21.534  0.00  0.00    +0.000 A 
ATOM     11  C   UNL     1       0.704   9.603  21.194  0.00  0.00    +0.000 A 
ATOM     12  O   UNL     1      -0.115  11.008  22.866  0.00  0.00    +0.000 OA
ATOM     13  C   UNL     1      -1.482  11.144  23.226  0.00  0.00    +0.000 C 
ATOM     14  C   UNL     1      -2.066  12.475  22.789  0.00  0.00    +0.000 C 
ATOM     15  C   UNL     1      -2.087  12.572  21.272  0.00  0.00    +0.000 C 
ATOM     16  O   UNL     1      -0.783  12.929  20.778  0.00  0.00    +0.000 OA
ENDBRANCH   2   5
BRANCH   3  17
ATOM     17  C   UNL     1       1.802   5.724  20.361  0.00  0.00    +0.000 A 
ATOM     18  C   UNL     1       0.827   4.763  20.651  0.00  0.00    +0.000 A 
ATOM     19  C   UNL     1       1.082   3.399  20.499  0.00  0.00    +0.000 A 
ATOM     20  C   UNL     1       2.327   2.968  20.046  0.00  0.00    +0.000 A 
ATOM     21  C   UNL     1       3.301   3.919  19.739  0.00  0.00    +0.000 A 
ATOM     22  C   UNL     1       3.036   5.291  19.864  0.00  0.00    +0.000 A 
BRANCH  21  23
ATOM     23  S   UNL     1       4.860   3.375  19.086  0.00  0.00    +0.000 S 
ATOM     24  O   UNL     1       5.258   2.190  19.821  0.00  0.00    +0.000 OA
ATOM     25  O   UNL     1       4.769   3.329  17.637  0.00  0.00    +0.000 OA
BRANCH  23  26
ATOM     26  N   UNL     1       5.958   4.552  19.516  0.00  0.00    +0.000 N 
ATOM     27  C   UNL     1       6.435   5.531  18.654  0.00  0.00    +0.000 C 
ATOM     28  N   UNL     1       5.747   5.981  17.652  0.00  0.00    +0.000 NA
ATOM     29  C   UNL     1       6.612   6.970  16.991  0.00  0.00    +0.000 C 
ATOM     30  C   UNL     1       7.695   7.330  17.995  0.00  0.00    +0.000 C 
ATOM     31  C   UNL     1       7.800   6.095  18.859  0.00  0.00    +0.000 C 
ATOM     32  H   UNL     1       6.469   4.296  20.359  0.00  0.00    +0.000 HD
ENDBRANCH  23  26
ENDBRANCH  21  23
ENDBRANCH   3  17
TORSDOF 4
ENDMDL
MODEL 6
REMARK VINA RESULT:      -9.1      4.052      9.344
REMARK  Name = 
REMARK  4 active torsions:
REMARK  status: ('A' for Active; 'I' for Inactive)
REMARK    1  A    between atoms: C_2  and  C_19
REMARK    2  A    between atoms: N_3  and  C_4
REMARK    3  A    between atoms: C_8  and  S_9
REMARK    4  A    between atoms: S_9  and  N_12
REMARK                            x       y       z     vdW  Elec       q    Type
REMARK                         _______ _______ _______ _____ _____    ______ ____
ROOT
ATOM      1  O   UNL     1       1.032   5.676  20.804  0.00  0.00    +0.000 OA
ATOM      2  C   UNL     1       1.961   6.251  20.246  0.00  0.00    +0.000 C 
ATOM      3  N   UNL     1       2.212   7.605  20.219  0.00  0.00    +0.000 N 
ATOM      4  H   UNL     1       2.961   7.939  19.622  0.00  0.00    +0.000 HD
ENDROOT
BRANCH   2   5
ATOM      5  C   UNL     1       2.850   5.381  19.453  0.00  0.00    +0.000 A 
ATOM      6  C   UNL     1       2.488   4.112  19.008  0.00  0.00    +0.000 A 
ATOM      7  C   UNL     1       3.291   3.486  18.044  0.00  0.00    +0.000 A 
ATOM      8 CL   UNL     1       2.825   1.917  17.488  0.00  0.00    +0.000 Cl
ATOM      9  C   UNL     1       4.446   4.117  17.551  0.00  0.00    +0.000 A 
ATOM     10  C   UNL     1       4.898   5.274  18.186  0.00  0.00    +0.000 A 
ATOM     11  C   UNL     1       4.075   5.938  19.083  0.00  0.00    +0.000 A 
ATOM     12  O   UNL     1       6.204   5.672  18.167  0.00  0.00    +0.000 OA
ATOM     13  C   UNL     1       6.645   6.230  16.939  0.00  0.00    +0.000 C 
ATOM     14  C   UNL     1       6.806   5.183  15.852  0.00  0.00    +0.000 C 
ATOM     15  C   UNL     1       5.459   4.571  15.502  0.00  0.00    +0.000 C 
ATOM     16  O   UNL     1       5.098   3.573  16.474  0.00  0.00    +0.000 OA
ENDBRANCH   2   5
BRANCH   3  17
ATOM     17  C   UNL     1       1.361   8.592  20.780  0.00  0.00    +0.000 A 
ATOM     18  C   UNL     1       1.069   8.665  22.147  0.00  0.00    +0.000 A 
ATOM     19  C   UNL     1       0.164   9.603  22.648  0.00  0.00    +0.000 A 
ATOM     20  C   UNL     1      -0.468  10.495  21.784  0.00  0.00    +0.000 A 
ATOM     21  C   UNL     1      -0.172  10.439  20.421  0.00  0.00    +0.000 A 
ATOM     22  C   UNL     1       0.759   9.517  19.921  0.00  0.00    +0.000 A 
BRANCH  21  23
ATOM     23  S   UNL     1      -0.915  11.627  19.330  0.00  0.00    +0.000 S 
ATOM     24  O   UNL     1      -2.283  11.830  19.764  0.00  0.00    +0.000 OA
ATOM     25  O   UNL     1      -0.022  12.766  19.201  0.00  0.00    +0.000 OA
BRANCH  23  26
ATOM     26  N   UNL     1      -1.029  10.865  17.853  0.00  0.00    +0.000 N 
ATOM     27  C   UNL     1      -2.196  10.778  17.105  0.00  0.00    +0.000 C 
ATOM     28  N   UNL     1      -3.137  11.668  17.163  0.00  0.00    +0.000 NA
ATOM     29  C   UNL     1      -4.188  11.191  16.252  0.00  0.00    +0.000 C 
ATOM     30  C   UNL     1      -3.537  10.153  15.352  0.00  0.00    +0.000 C 
ATOM     31  C   UNL     1      -2.406   9.614  16.198  0.00  0.00    +0.000 C 
ATOM     32  H   UNL     1      -0.258  10.217  17.707  0.00  0.00    +0.000 HD
ENDBRANCH  23  26
ENDBRANCH  21  23
ENDBRANCH   3  17
TORSDOF 4
ENDMDL
MODEL 7
REMARK VINA RESULT:      -9.1      1.159      1.409
REMARK  Name = 
REMARK  4 active torsions:
REMARK  status: ('A' for Active; 'I' for Inactive)
REMARK    1  A    between atoms: C_2  and  C_19
REMARK    2  A    between atoms: N_3  and  C_4
REMARK    3  A    between atoms: C_8  and  S_9
REMARK    4  A    between atoms: S_9  and  N_12
REMARK                            x       y       z     vdW  Elec       q    Type
REMARK                         _______ _______ _______ _____ _____    ______ ____
ROOT
ATOM      1  O   UNL     1       1.743   6.886  20.366  0.00  0.00    +0.000 OA
ATOM      2  C   UNL     1       1.981   7.750  19.528  0.00  0.00    +0.000 C 
ATOM      3  N   UNL     1       2.694   7.605  18.357  0.00  0.00    +0.000 N 
ATOM      4  H   UNL     1       2.899   8.440  17.819  0.00  0.00    +0.000 HD
ENDROOT
BRANCH   2   5
ATOM      5  C   UNL     1       1.511   9.104  19.872  0.00  0.00    +0.000 A 
ATOM      6  C   UNL     1       1.534  10.176  18.984  0.00  0.00    +0.000 A 
ATOM      7  C   UNL     1       0.821  11.336  19.316  0.00  0.00    +0.000 A 
ATOM      8 CL   UNL     1       0.845  12.656  18.200  0.00  0.00    +0.000 Cl
ATOM      9  C   UNL     1       0.114  11.424  20.527  0.00  0.00    +0.000 A 
ATOM     10  C   UNL     1       0.304  10.428  21.485  0.00  0.00    +0.000 A 
ATOM     11  C   UNL     1       0.942   9.246  21.139  0.00  0.00    +0.000 A 
ATOM     12  O   UNL     1       0.118  10.637  22.822  0.00  0.00    +0.000 OA
ATOM     13  C   UNL     1      -1.238  10.709  23.236  0.00  0.00    +0.000 C 
ATOM     14  C   UNL     1      -1.907  12.001  22.803  0.00  0.00    +0.000 C 
ATOM     15  C   UNL     1      -1.993  12.071  21.287  0.00  0.00    +0.000 C 
ATOM     16  O   UNL     1      -0.730  12.485  20.735  0.00  0.00    +0.000 OA
ENDBRANCH   2   5
BRANCH   3  17
ATOM     17  C   UNL     1       3.361   6.417  17.964  0.00  0.00    +0.000 A 
ATOM     18  C   UNL     1       2.724   5.173  17.879  0.00  0.00    +0.000 A 
ATOM     19  C   UNL     1       3.434   4.013  17.563  0.00  0.00    +0.000 A 
ATOM     20  C   UNL     1       4.806   4.077  17.322  0.00  0.00    +0.000 A 
ATOM     21  C   UNL     1       5.446   5.315  17.390  0.00  0.00    +0.000 A 
ATOM     22  C   UNL     1       4.728   6.485  17.677  0.00  0.00    +0.000 A 
BRANCH  21  23
ATOM     23  S   UNL     1       7.177   5.411  17.004  0.00  0.00    +0.000 S 
ATOM     24  O   UNL     1       7.730   6.537  17.730  0.00  0.00    +0.000 OA
ATOM     25  O   UNL     1       7.764   4.092  17.161  0.00  0.00    +0.000 OA
BRANCH  23  26
ATOM     26  N   UNL     1       7.251   5.842  15.396  0.00  0.00    +0.000 N 
ATOM     27  C   UNL     1       7.029   4.967  14.340  0.00  0.00    +0.000 C 
ATOM     28  N   UNL     1       6.256   3.932  14.435  0.00  0.00    +0.000 NA
ATOM     29  C   UNL     1       6.319   3.270  13.123  0.00  0.00    +0.000 C 
ATOM     30  C   UNL     1       6.878   4.297  12.152  0.00  0.00    +0.000 C 
ATOM     31  C   UNL     1       7.710   5.200  13.034  0.00  0.00    +0.000 C 
ATOM     32  H   UNL     1       7.771   6.707  15.265  0.00  0.00    +0.000 HD
ENDBRANCH  23  26
ENDBRANCH  21  23
ENDBRANCH   3  17
TORSDOF 4
ENDMDL
MODEL 8
REMARK VINA RESULT:      -9.0      1.945      2.586
REMARK  Name = 
REMARK  4 active torsions:
REMARK  status: ('A' for Active; 'I' for Inactive)
REMARK    1  A    between atoms: C_2  and  C_19
REMARK    2  A    between atoms: N_3  and  C_4
REMARK    3  A    between atoms: C_8  and  S_9
REMARK    4  A    between atoms: S_9  and  N_12
REMARK                            x       y       z     vdW  Elec       q    Type
REMARK                         _______ _______ _______ _____ _____    ______ ____
ROOT
ATOM      1  O   UNL     1       2.182   8.531  17.021  0.00  0.00    +0.000 OA
ATOM      2  C   UNL     1       2.191   8.363  18.236  0.00  0.00    +0.000 C 
ATOM      3  N   UNL     1       2.495   7.205  18.918  0.00  0.00    +0.000 N 
ATOM      4  H   UNL     1       2.352   7.193  19.922  0.00  0.00    +0.000 HD
ENDROOT
BRANCH   2   5
ATOM      5  C   UNL     1       1.745   9.521  19.032  0.00  0.00    +0.000 A 
ATOM      6  C   UNL     1       1.621  10.808  18.515  0.00  0.00    +0.000 A 
ATOM      7  C   UNL     1       0.937  11.771  19.271  0.00  0.00    +0.000 A 
ATOM      8 CL   UNL     1       0.777  13.362  18.614  0.00  0.00    +0.000 Cl
ATOM      9  C   UNL     1       0.404  11.450  20.531  0.00  0.00    +0.000 A 
ATOM     10  C   UNL     1       0.747  10.228  21.110  0.00  0.00    +0.000 A 
ATOM     11  C   UNL     1       1.355   9.245  20.344  0.00  0.00    +0.000 A 
ATOM     12  O   UNL     1       0.746  10.017  22.459  0.00  0.00    +0.000 OA
ATOM     13  C   UNL     1      -0.540   9.878  23.044  0.00  0.00    +0.000 C 
ATOM     14  C   UNL     1      -1.290  11.196  23.112  0.00  0.00    +0.000 C 
ATOM     15  C   UNL     1      -1.589  11.708  21.712  0.00  0.00    +0.000 C 
ATOM     16  O   UNL     1      -0.425  12.346  21.157  0.00  0.00    +0.000 OA
ENDBRANCH   2   5
BRANCH   3  17
ATOM     17  C   UNL     1       2.773   5.958  18.302  0.00  0.00    +0.000 A 
ATOM     18  C   UNL     1       2.067   4.785  18.594  0.00  0.00    +0.000 A 
ATOM     19  C   UNL     1       2.423   3.561  18.023  0.00  0.00    +0.000 A 
ATOM     20  C   UNL     1       3.499   3.489  17.140  0.00  0.00    +0.000 A 
ATOM     21  C   UNL     1       4.199   4.656  16.832  0.00  0.00    +0.000 A 
ATOM     22  C   UNL     1       3.824   5.891  17.381  0.00  0.00    +0.000 A 
BRANCH  21  23
ATOM     23  S   UNL     1       5.518   4.580  15.645  0.00  0.00    +0.000 S 
ATOM     24  O   UNL     1       6.363   3.455  15.996  0.00  0.00    +0.000 OA
ATOM     25  O   UNL     1       4.952   4.668  14.311  0.00  0.00    +0.000 OA
BRANCH  23  26
ATOM     26  N   UNL     1       6.447   5.934  15.924  0.00  0.00    +0.000 N 
ATOM     27  C   UNL     1       7.062   6.226  17.135  0.00  0.00    +0.000 C 
ATOM     28  N   UNL     1       7.439   5.311  17.972  0.00  0.00    +0.000 NA
ATOM     29  C   UNL     1       8.008   6.034  19.119  0.00  0.00    +0.000 C 
ATOM     30  C   UNL     1       8.298   7.446  18.634  0.00  0.00    +0.000 C 
ATOM     31  C   UNL     1       7.297   7.648  17.519  0.00  0.00    +0.000 C 
ATOM     32  H   UNL     1       6.263   6.661  15.236  0.00  0.00    +0.000 HD
ENDBRANCH  23  26
ENDBRANCH  21  23
ENDBRANCH   3  17
TORSDOF 4
ENDMDL
MODEL 9
REMARK VINA RESULT:      -9.0      4.175      9.214
REMARK  Name = 
REMARK  4 active torsions:
REMARK  status: ('A' for Active; 'I' for Inactive)
REMARK    1  A    between atoms: C_2  and  C_19
REMARK    2  A    between atoms: N_3  and  C_4
REMARK    3  A    between atoms: C_8  and  S_9
REMARK    4  A    between atoms: S_9  and  N_12
REMARK                            x       y       z     vdW  Elec       q    Type
REMARK                         _______ _______ _______ _____ _____    ______ ____
ROOT
ATOM      1  O   UNL     1       2.082   9.256  17.465  0.00  0.00    +0.000 OA
ATOM      2  C   UNL     1       2.051   8.344  18.284  0.00  0.00    +0.000 C 
ATOM      3  N   UNL     1       1.487   8.367  19.541  0.00  0.00    +0.000 N 
ATOM      4  H   UNL     1       1.638   7.566  20.145  0.00  0.00    +0.000 HD
ENDROOT
BRANCH   2   5
ATOM      5  C   UNL     1       2.775   7.122  17.889  0.00  0.00    +0.000 A 
ATOM      6  C   UNL     1       4.133   7.097  17.582  0.00  0.00    +0.000 A 
ATOM      7  C   UNL     1       4.776   5.855  17.486  0.00  0.00    +0.000 A 
ATOM      8 CL   UNL     1       6.465   5.836  17.118  0.00  0.00    +0.000 Cl
ATOM      9  C   UNL     1       4.062   4.659  17.675  0.00  0.00    +0.000 A 
ATOM     10  C   UNL     1       2.670   4.717  17.749  0.00  0.00    +0.000 A 
ATOM     11  C   UNL     1       2.035   5.938  17.922  0.00  0.00    +0.000 A 
ATOM     12  O   UNL     1       1.863   3.667  17.416  0.00  0.00    +0.000 OA
ATOM     13  C   UNL     1       1.822   2.615  18.369  0.00  0.00    +0.000 C 
ATOM     14  C   UNL     1       3.103   1.801  18.387  0.00  0.00    +0.000 C 
ATOM     15  C   UNL     1       4.269   2.659  18.853  0.00  0.00    +0.000 C 
ATOM     16  O   UNL     1       4.749   3.476  17.770  0.00  0.00    +0.000 OA
ENDBRANCH   2   5
BRANCH   3  17
ATOM     17  C   UNL     1       0.908   9.514  20.141  0.00  0.00    +0.000 A 
ATOM     18  C   UNL     1       0.523   9.564  21.486  0.00  0.00    +0.000 A 
ATOM     19  C   UNL     1      -0.116  10.685  22.019  0.00  0.00    +0.000 A 
ATOM     20  C   UNL     1      -0.380  11.789  21.209  0.00  0.00    +0.000 A 
ATOM     21  C   UNL     1       0.013  11.754  19.871  0.00  0.00    +0.000 A 
ATOM     22  C   UNL     1       0.681  10.640  19.342  0.00  0.00    +0.000 A 
BRANCH  21  23
ATOM     23  S   UNL     1      -0.252  13.189  18.859  0.00  0.00    +0.000 S 
ATOM     24  O   UNL     1      -1.213  14.037  19.538  0.00  0.00    +0.000 OA
ATOM     25  O   UNL     1       1.038  13.730  18.468  0.00  0.00    +0.000 OA
BRANCH  23  26
ATOM     26  N   UNL     1      -1.035  12.636  17.497  0.00  0.00    +0.000 N 
ATOM     27  C   UNL     1      -2.154  11.812  17.517  0.00  0.00    +0.000 C 
ATOM     28  N   UNL     1      -3.008  11.809  18.492  0.00  0.00    +0.000 NA
ATOM     29  C   UNL     1      -4.008  10.790  18.138  0.00  0.00    +0.000 C 
ATOM     30  C   UNL     1      -3.846  10.530  16.649  0.00  0.00    +0.000 C 
ATOM     31  C   UNL     1      -2.397  10.870  16.388  0.00  0.00    +0.000 C 
ATOM     32  H   UNL     1      -0.442  12.701  16.673  0.00  0.00    +0.000 HD
ENDBRANCH  23  26
ENDBRANCH  21  23
ENDBRANCH   3  17
TORSDOF 4
ENDMDL
