MODEL 1
REMARK VINA RESULT:      -7.7      0.000      0.000
REMARK  Name = 
REMARK  6 active torsions:
REMARK  status: ('A' for Active; 'I' for Inactive)
REMARK    1  A    between atoms: C_1  and  C_2
REMARK    2  A    between atoms: C_5  and  C_6
REMARK    3  A    between atoms: C_7  and  C_8
REMARK    4  A    between atoms: N_10  and  C_11
REMARK    5  A    between atoms: C_11  and  N_13
REMARK    6  A    between atoms: N_16  and  C_17
REMARK                            x       y       z     vdW  Elec       q    Type
REMARK                         _______ _______ _______ _____ _____    ______ ____
ROOT
ATOM      1  C   UNL     1       7.652   7.198  17.880  0.00  0.00    +0.000 C 
ATOM      2  O   UNL     1       8.019   6.415  18.750  0.00  0.00    +0.000 OA
ATOM      3  N   UNL     1       6.877   6.880  16.780  0.00  0.00    +0.000 N 
ATOM      4  H   UNL     1       6.964   7.487  15.977  0.00  0.00    +0.000 HD
ENDROOT
BRANCH   1   6
ATOM      5  C   UNL     1       8.866   9.059  18.885  0.00  0.00    +0.000 C 
ATOM      6  C   UNL     1       8.050   8.631  17.908  0.00  0.00    +0.000 C 
BRANCH   5  11
ATOM      7  C   UNL     1      10.533  14.576  19.470  0.00  0.00    +0.000 C 
ATOM      8  C   UNL     1      10.109  13.146  19.315  0.00  0.00    +0.000 A 
ATOM      9  C   UNL     1       9.974  12.561  18.052  0.00  0.00    +0.000 A 
ATOM     10  C   UNL     1       9.576  11.226  17.929  0.00  0.00    +0.000 A 
ATOM     11  C   UNL     1       9.311  10.448  19.063  0.00  0.00    +0.000 A 
ATOM     12  C   UNL     1       9.428  11.045  20.324  0.00  0.00    +0.000 A 
ATOM     13  C   UNL     1       9.829  12.378  20.449  0.00  0.00    +0.000 A 
ENDBRANCH   5  11
ENDBRANCH   1   6
BRANCH   3  14
ATOM     14  C   UNL     1       6.210   5.709  16.482  0.00  0.00    +0.000 C 
ATOM     15  S   UNL     1       6.725   4.926  15.086  0.00  0.00    +0.000 S 
BRANCH  14  16
ATOM     16  N   UNL     1       5.157   5.304  17.298  0.00  0.00    +0.000 N 
ATOM     17  C   UNL     1       4.720   3.891  17.311  0.00  0.00    +0.000 C 
ATOM     18  C   UNL     1       3.811   3.532  18.505  0.00  0.00    +0.000 C 
ATOM     19  N   UNL     1       2.684   4.456  18.741  0.00  0.00    +0.000 NA
ATOM     20  C   UNL     1       1.655   4.339  17.710  0.00  0.00    +0.000 C 
ATOM     21  C   UNL     1       3.218   5.829  18.822  0.00  0.00    +0.000 C 
ATOM     22  C   UNL     1       4.069   6.250  17.611  0.00  0.00    +0.000 C 
ENDBRANCH  14  16
ENDBRANCH   3  14
TORSDOF 4
ENDMDL
MODEL 2
REMARK VINA RESULT:      -7.7      0.581      1.655
REMARK  Name = 
REMARK  6 active torsions:
REMARK  status: ('A' for Active; 'I' for Inactive)
REMARK    1  A    between atoms: C_1  and  C_2
REMARK    2  A    between atoms: C_5  and  C_6
REMARK    3  A    between atoms: C_7  and  C_8
REMARK    4  A    between atoms: N_10  and  C_11
REMARK    5  A    between atoms: C_11  and  N_13
REMARK    6  A    between atoms: N_16  and  C_17
REMARK                            x       y       z     vdW  Elec       q    Type
REMARK                         _______ _______ _______ _____ _____    ______ ____
ROOT
ATOM      1  C   UNL     1       7.551   7.190  17.647  0.00  0.00    +0.000 C 
ATOM      2  O   UNL     1       7.904   6.370  18.488  0.00  0.00    +0.000 OA
ATOM      3  N   UNL     1       6.744   6.931  16.553  0.00  0.00    +0.000 N 
ATOM      4  H   UNL     1       6.839   7.557  15.765  0.00  0.00    +0.000 HD
ENDROOT
BRANCH   1   6
ATOM      5  C   UNL     1       8.682   9.026  18.785  0.00  0.00    +0.000 C 
ATOM      6  C   UNL     1       8.002   8.606  17.706  0.00  0.00    +0.000 C 
BRANCH   5  11
ATOM      7  C   UNL     1      10.662  14.390  19.718  0.00  0.00    +0.000 C 
ATOM      8  C   UNL     1      10.143  13.002  19.481  0.00  0.00    +0.000 A 
ATOM      9  C   UNL     1      10.136  12.046  20.502  0.00  0.00    +0.000 A 
ATOM     10  C   UNL     1       9.650  10.757  20.261  0.00  0.00    +0.000 A 
ATOM     11  C   UNL     1       9.156  10.400  19.000  0.00  0.00    +0.000 A 
ATOM     12  C   UNL     1       9.184  11.356  17.977  0.00  0.00    +0.000 A 
ATOM     13  C   UNL     1       9.667  12.645  18.217  0.00  0.00    +0.000 A 
ENDBRANCH   5  11
ENDBRANCH   1   6
BRANCH   3  14
ATOM     14  C   UNL     1       6.029   5.794  16.237  0.00  0.00    +0.000 C 
ATOM     15  S   UNL     1       6.694   4.846  15.017  0.00  0.00    +0.000 S 
BRANCH  14  16
ATOM     16  N   UNL     1       4.822   5.551  16.886  0.00  0.00    +0.000 N 
ATOM     17  C   UNL     1       4.144   6.629  17.637  0.00  0.00    +0.000 C 
ATOM     18  C   UNL     1       2.673   6.317  17.983  0.00  0.00    +0.000 C 
ATOM     19  N   UNL     1       2.435   4.993  18.591  0.00  0.00    +0.000 NA
ATOM     20  C   UNL     1       2.945   4.919  19.959  0.00  0.00    +0.000 C 
ATOM     21  C   UNL     1       3.049   3.967  17.726  0.00  0.00    +0.000 C 
ATOM     22  C   UNL     1       4.537   4.205  17.421  0.00  0.00    +0.000 C 
ENDBRANCH  14  16
ENDBRANCH   3  14
TORSDOF 4
ENDMDL
MODEL 3
REMARK VINA RESULT:      -7.7      0.592      1.051
REMARK  Name = 
REMARK  6 active torsions:
REMARK  status: ('A' for Active; 'I' for Inactive)
REMARK    1  A    between atoms: C_1  and  C_2
REMARK    2  A    between atoms: C_5  and  C_6
REMARK    3  A    between atoms: C_7  and  C_8
REMARK    4  A    between atoms: N_10  and  C_11
REMARK    5  A    between atoms: C_11  and  N_13
REMARK    6  A    between atoms: N_16  and  C_17
REMARK                            x       y       z     vdW  Elec       q    Type
REMARK                         _______ _______ _______ _____ _____    ______ ____
ROOT
ATOM      1  C   UNL     1       7.728   7.338  17.785  0.00  0.00    +0.000 C 
ATOM      2  O   UNL     1       7.994   6.669  18.777  0.00  0.00    +0.000 OA
ATOM      3  N   UNL     1       6.998   6.911  16.691  0.00  0.00    +0.000 N 
ATOM      4  H   UNL     1       7.169   7.392  15.819  0.00  0.00    +0.000 HD
ENDROOT
BRANCH   1   6
ATOM      5  C   UNL     1       8.764   9.347  18.703  0.00  0.00    +0.000 C 
ATOM      6  C   UNL     1       8.214   8.737  17.640  0.00  0.00    +0.000 C 
BRANCH   5  11
ATOM      7  C   UNL     1      10.822  14.761  18.785  0.00  0.00    +0.000 C 
ATOM      8  C   UNL     1      10.287  13.360  18.771  0.00  0.00    +0.000 A 
ATOM      9  C   UNL     1      10.821  12.370  19.603  0.00  0.00    +0.000 A 
ATOM     10  C   UNL     1      10.309  11.069  19.574  0.00  0.00    +0.000 A 
ATOM     11  C   UNL     1       9.250  10.733  18.721  0.00  0.00    +0.000 A 
ATOM     12  C   UNL     1       8.733  11.723  17.876  0.00  0.00    +0.000 A 
ATOM     13  C   UNL     1       9.242  13.025  17.906  0.00  0.00    +0.000 A 
ENDBRANCH   5  11
ENDBRANCH   1   6
BRANCH   3  14
ATOM     14  C   UNL     1       6.276   5.748  16.515  0.00  0.00    +0.000 C 
ATOM     15  S   UNL     1       6.714   4.828  15.177  0.00  0.00    +0.000 S 
BRANCH  14  16
ATOM     16  N   UNL     1       5.236   5.457  17.393  0.00  0.00    +0.000 N 
ATOM     17  C   UNL     1       4.898   4.055  17.719  0.00  0.00    +0.000 C 
ATOM     18  C   UNL     1       3.990   3.904  18.957  0.00  0.00    +0.000 C 
ATOM     19  N   UNL     1       2.796   4.772  18.972  0.00  0.00    +0.000 NA
ATOM     20  C   UNL     1       1.801   4.354  17.987  0.00  0.00    +0.000 C 
ATOM     21  C   UNL     1       3.230   6.165  18.749  0.00  0.00    +0.000 C 
ATOM     22  C   UNL     1       4.077   6.367  17.480  0.00  0.00    +0.000 C 
ENDBRANCH  14  16
ENDBRANCH   3  14
TORSDOF 4
ENDMDL
MODEL 4
REMARK VINA RESULT:      -7.7      0.628      1.331
REMARK  Name = 
REMARK  6 active torsions:
REMARK  status: ('A' for Active; 'I' for Inactive)
REMARK    1  A    between atoms: C_1  and  C_2
REMARK    2  A    between atoms: C_5  and  C_6
REMARK    3  A    between atoms: C_7  and  C_8
REMARK    4  A    between atoms: N_10  and  C_11
REMARK    5  A    between atoms: C_11  and  N_13
REMARK    6  A    between atoms: N_16  and  C_17
REMARK                            x       y       z     vdW  Elec       q    Type
REMARK                         _______ _______ _______ _____ _____    ______ ____
ROOT
ATOM      1  C   UNL     1       7.547   7.288  17.722  0.00  0.00    +0.000 C 
ATOM      2  O   UNL     1       7.957   6.434  18.501  0.00  0.00    +0.000 OA
ATOM      3  N   UNL     1       6.668   7.076  16.675  0.00  0.00    +0.000 N 
ATOM      4  H   UNL     1       6.709   7.736  15.912  0.00  0.00    +0.000 HD
ENDROOT
BRANCH   1   6
ATOM      5  C   UNL     1       8.783   9.068  18.841  0.00  0.00    +0.000 C 
ATOM      6  C   UNL     1       8.002   8.702  17.812  0.00  0.00    +0.000 C 
BRANCH   5  11
ATOM      7  C   UNL     1      10.613  14.496  19.704  0.00  0.00    +0.000 C 
ATOM      8  C   UNL     1      10.145  13.090  19.476  0.00  0.00    +0.000 A 
ATOM      9  C   UNL     1       9.734  12.657  18.211  0.00  0.00    +0.000 A 
ATOM     10  C   UNL     1       9.301  11.341  18.019  0.00  0.00    +0.000 A 
ATOM     11  C   UNL     1       9.275  10.431  19.083  0.00  0.00    +0.000 A 
ATOM     12  C   UNL     1       9.668  10.876  20.352  0.00  0.00    +0.000 A 
ATOM     13  C   UNL     1      10.105  12.189  20.544  0.00  0.00    +0.000 A 
ENDBRANCH   5  11
ENDBRANCH   1   6
BRANCH   3  14
ATOM     14  C   UNL     1       5.933   5.952  16.359  0.00  0.00    +0.000 C 
ATOM     15  S   UNL     1       6.604   4.968  15.172  0.00  0.00    +0.000 S 
BRANCH  14  16
ATOM     16  N   UNL     1       4.704   5.749  16.980  0.00  0.00    +0.000 N 
ATOM     17  C   UNL     1       4.040   6.852  17.707  0.00  0.00    +0.000 C 
ATOM     18  C   UNL     1       2.553   6.586  18.020  0.00  0.00    +0.000 C 
ATOM     19  N   UNL     1       2.262   5.274  18.632  0.00  0.00    +0.000 NA
ATOM     20  C   UNL     1       2.736   5.197  20.012  0.00  0.00    +0.000 C 
ATOM     21  C   UNL     1       2.866   4.224  17.790  0.00  0.00    +0.000 C 
ATOM     22  C   UNL     1       4.368   4.416  17.519  0.00  0.00    +0.000 C 
ENDBRANCH  14  16
ENDBRANCH   3  14
TORSDOF 4
ENDMDL
MODEL 5
REMARK VINA RESULT:      -7.5      0.996      1.887
REMARK  Name = 
REMARK  6 active torsions:
REMARK  status: ('A' for Active; 'I' for Inactive)
REMARK    1  A    between atoms: C_1  and  C_2
REMARK    2  A    between atoms: C_5  and  C_6
REMARK    3  A    between atoms: C_7  and  C_8
REMARK    4  A    between atoms: N_10  and  C_11
REMARK    5  A    between atoms: C_11  and  N_13
REMARK    6  A    between atoms: N_16  and  C_17
REMARK                            x       y       z     vdW  Elec       q    Type
REMARK                         _______ _______ _______ _____ _____    ______ ____
ROOT
ATOM      1  C   UNL     1       7.516   5.985  18.012  0.00  0.00    +0.000 C 
ATOM      2  O   UNL     1       7.829   4.892  18.472  0.00  0.00    +0.000 OA
ATOM      3  N   UNL     1       6.642   6.201  16.962  0.00  0.00    +0.000 N 
ATOM      4  H   UNL     1       6.759   7.063  16.448  0.00  0.00    +0.000 HD
ENDROOT
BRANCH   1   6
ATOM      5  C   UNL     1       7.935   8.382  17.845  0.00  0.00    +0.000 C 
ATOM      6  C   UNL     1       8.097   7.247  18.544  0.00  0.00    +0.000 C 
BRANCH   5  11
ATOM      7  C   UNL     1      10.231  13.476  19.372  0.00  0.00    +0.000 C 
ATOM      8  C   UNL     1       9.633  12.157  18.983  0.00  0.00    +0.000 A 
ATOM      9  C   UNL     1       9.903  10.994  19.712  0.00  0.00    +0.000 A 
ATOM     10  C   UNL     1       9.336   9.773  19.332  0.00  0.00    +0.000 A 
ATOM     11  C   UNL     1       8.484   9.691  18.224  0.00  0.00    +0.000 A 
ATOM     12  C   UNL     1       8.233  10.855  17.486  0.00  0.00    +0.000 A 
ATOM     13  C   UNL     1       8.796  12.076  17.866  0.00  0.00    +0.000 A 
ENDBRANCH   5  11
ENDBRANCH   1   6
BRANCH   3  14
ATOM     14  C   UNL     1       5.813   5.310  16.310  0.00  0.00    +0.000 C 
ATOM     15  S   UNL     1       6.389   4.743  14.836  0.00  0.00    +0.000 S 
BRANCH  14  16
ATOM     16  N   UNL     1       4.577   5.001  16.871  0.00  0.00    +0.000 N 
ATOM     17  C   UNL     1       3.918   5.943  17.801  0.00  0.00    +0.000 C 
ATOM     18  C   UNL     1       2.426   5.636  18.045  0.00  0.00    +0.000 C 
ATOM     19  N   UNL     1       2.117   4.232  18.380  0.00  0.00    +0.000 NA
ATOM     20  C   UNL     1       2.580   3.873  19.719  0.00  0.00    +0.000 C 
ATOM     21  C   UNL     1       2.717   3.365  17.347  0.00  0.00    +0.000 C 
ATOM     22  C   UNL     1       4.223   3.591  17.129  0.00  0.00    +0.000 C 
ENDBRANCH  14  16
ENDBRANCH   3  14
TORSDOF 4
ENDMDL
MODEL 6
REMARK VINA RESULT:      -7.5      0.893      1.154
REMARK  Name = 
REMARK  6 active torsions:
REMARK  status: ('A' for Active; 'I' for Inactive)
REMARK    1  A    between atoms: C_1  and  C_2
REMARK    2  A    between atoms: C_5  and  C_6
REMARK    3  A    between atoms: C_7  and  C_8
REMARK    4  A    between atoms: N_10  and  C_11
REMARK    5  A    between atoms: C_11  and  N_13
REMARK    6  A    between atoms: N_16  and  C_17
REMARK                            x       y       z     vdW  Elec       q    Type
REMARK                         _______ _______ _______ _____ _____    ______ ____
ROOT
ATOM      1  C   UNL     1       7.771   7.391  17.952  0.00  0.00    +0.000 C 
ATOM      2  O   UNL     1       8.274   6.701  18.833  0.00  0.00    +0.000 OA
ATOM      3  N   UNL     1       6.905   6.946  16.971  0.00  0.00    +0.000 N 
ATOM      4  H   UNL     1       6.870   7.491  16.120  0.00  0.00    +0.000 HD
ENDROOT
BRANCH   1   6
ATOM      5  C   UNL     1       8.906   9.406  18.728  0.00  0.00    +0.000 C 
ATOM      6  C   UNL     1       8.083   8.841  17.830  0.00  0.00    +0.000 C 
BRANCH   5  11
ATOM      7  C   UNL     1      10.208  15.050  18.810  0.00  0.00    +0.000 C 
ATOM      8  C   UNL     1       9.874  13.588  18.782  0.00  0.00    +0.000 A 
ATOM      9  C   UNL     1       9.019  13.057  17.811  0.00  0.00    +0.000 A 
ATOM     10  C   UNL     1       8.720  11.691  17.802  0.00  0.00    +0.000 A 
ATOM     11  C   UNL     1       9.272  10.828  18.758  0.00  0.00    +0.000 A 
ATOM     12  C   UNL     1      10.112  11.369  19.740  0.00  0.00    +0.000 A 
ATOM     13  C   UNL     1      10.415  12.734  19.748  0.00  0.00    +0.000 A 
ENDBRANCH   5  11
ENDBRANCH   1   6
BRANCH   3  14
ATOM     14  C   UNL     1       6.282   5.723  16.836  0.00  0.00    +0.000 C 
ATOM     15  S   UNL     1       6.968   4.691  15.699  0.00  0.00    +0.000 S 
BRANCH  14  16
ATOM     16  N   UNL     1       5.137   5.460  17.582  0.00  0.00    +0.000 N 
ATOM     17  C   UNL     1       5.226   5.247  19.043  0.00  0.00    +0.000 C 
ATOM     18  C   UNL     1       3.867   5.331  19.769  0.00  0.00    +0.000 C 
ATOM     19  N   UNL     1       2.779   4.535  19.165  0.00  0.00    +0.000 NA
ATOM     20  C   UNL     1       2.980   3.100  19.357  0.00  0.00    +0.000 C 
ATOM     21  C   UNL     1       2.686   4.885  17.735  0.00  0.00    +0.000 C 
ATOM     22  C   UNL     1       4.007   4.741  16.961  0.00  0.00    +0.000 C 
ENDBRANCH  14  16
ENDBRANCH   3  14
TORSDOF 4
ENDMDL
MODEL 7
REMARK VINA RESULT:      -7.5      1.481      1.623
REMARK  Name = 
REMARK  6 active torsions:
REMARK  status: ('A' for Active; 'I' for Inactive)
REMARK    1  A    between atoms: C_1  and  C_2
REMARK    2  A    between atoms: C_5  and  C_6
REMARK    3  A    between atoms: C_7  and  C_8
REMARK    4  A    between atoms: N_10  and  C_11
REMARK    5  A    between atoms: C_11  and  N_13
REMARK    6  A    between atoms: N_16  and  C_17
REMARK                            x       y       z     vdW  Elec       q    Type
REMARK                         _______ _______ _______ _____ _____    ______ ____
ROOT
ATOM      1  C   UNL     1       6.952   7.107  17.294  0.00  0.00    +0.000 C 
ATOM      2  O   UNL     1       5.991   7.671  16.781  0.00  0.00    +0.000 OA
ATOM      3  N   UNL     1       7.136   5.739  17.382  0.00  0.00    +0.000 N 
ATOM      4  H   UNL     1       7.735   5.413  18.128  0.00  0.00    +0.000 HD
ENDROOT
BRANCH   1   6
ATOM      5  C   UNL     1       8.010   9.219  17.901  0.00  0.00    +0.000 C 
ATOM      6  C   UNL     1       8.055   7.877  17.929  0.00  0.00    +0.000 C 
BRANCH   5  11
ATOM      7  C   UNL     1      12.048  12.828  19.958  0.00  0.00    +0.000 C 
ATOM      8  C   UNL     1      11.008  11.889  19.422  0.00  0.00    +0.000 A 
ATOM      9  C   UNL     1      10.827  11.715  18.047  0.00  0.00    +0.000 A 
ATOM     10  C   UNL     1       9.851  10.835  17.567  0.00  0.00    +0.000 A 
ATOM     11  C   UNL     1       9.042  10.109  18.450  0.00  0.00    +0.000 A 
ATOM     12  C   UNL     1       9.215  10.303  19.826  0.00  0.00    +0.000 A 
ATOM     13  C   UNL     1      10.192  11.179  20.307  0.00  0.00    +0.000 A 
ENDBRANCH   5  11
ENDBRANCH   1   6
BRANCH   3  14
ATOM     14  C   UNL     1       6.416   4.716  16.801  0.00  0.00    +0.000 C 
ATOM     15  S   UNL     1       6.834   4.359  15.212  0.00  0.00    +0.000 S 
BRANCH  14  16
ATOM     16  N   UNL     1       5.392   4.112  17.525  0.00  0.00    +0.000 N 
ATOM     17  C   UNL     1       4.039   3.981  16.944  0.00  0.00    +0.000 C 
ATOM     18  C   UNL     1       3.131   2.986  17.698  0.00  0.00    +0.000 C 
ATOM     19  N   UNL     1       3.083   3.162  19.163  0.00  0.00    +0.000 NA
ATOM     20  C   UNL     1       2.357   4.370  19.546  0.00  0.00    +0.000 C 
ATOM     21  C   UNL     1       4.466   3.173  19.675  0.00  0.00    +0.000 C 
ATOM     22  C   UNL     1       5.383   4.207  18.998  0.00  0.00    +0.000 C 
ENDBRANCH  14  16
ENDBRANCH   3  14
TORSDOF 4
ENDMDL
MODEL 8
REMARK VINA RESULT:      -7.3      1.404      1.805
REMARK  Name = 
REMARK  6 active torsions:
REMARK  status: ('A' for Active; 'I' for Inactive)
REMARK    1  A    between atoms: C_1  and  C_2
REMARK    2  A    between atoms: C_5  and  C_6
REMARK    3  A    between atoms: C_7  and  C_8
REMARK    4  A    between atoms: N_10  and  C_11
REMARK    5  A    between atoms: C_11  and  N_13
REMARK    6  A    between atoms: N_16  and  C_17
REMARK                            x       y       z     vdW  Elec       q    Type
REMARK                         _______ _______ _______ _____ _____    ______ ____
ROOT
ATOM      1  C   UNL     1       7.057   7.327  17.413  0.00  0.00    +0.000 C 
ATOM      2  O   UNL     1       6.257   7.866  16.656  0.00  0.00    +0.000 OA
ATOM      3  N   UNL     1       7.025   6.004  17.818  0.00  0.00    +0.000 N 
ATOM      4  H   UNL     1       7.478   5.791  18.696  0.00  0.00    +0.000 HD
ENDROOT
BRANCH   1   6
ATOM      5  C   UNL     1       8.152   9.430  17.983  0.00  0.00    +0.000 C 
ATOM      6  C   UNL     1       8.179   8.088  18.026  0.00  0.00    +0.000 C 
BRANCH   5  11
ATOM      7  C   UNL     1      12.268  13.003  19.946  0.00  0.00    +0.000 C 
ATOM      8  C   UNL     1      11.208  12.074  19.435  0.00  0.00    +0.000 A 
ATOM      9  C   UNL     1      11.015  11.876  18.064  0.00  0.00    +0.000 A 
ATOM     10  C   UNL     1      10.020  11.005  17.607  0.00  0.00    +0.000 A 
ATOM     11  C   UNL     1       9.204  10.311  18.509  0.00  0.00    +0.000 A 
ATOM     12  C   UNL     1       9.388  10.529  19.880  0.00  0.00    +0.000 A 
ATOM     13  C   UNL     1      10.384  11.396  20.338  0.00  0.00    +0.000 A 
ENDBRANCH   5  11
ENDBRANCH   1   6
BRANCH   3  14
ATOM     14  C   UNL     1       6.236   4.966  17.368  0.00  0.00    +0.000 C 
ATOM     15  S   UNL     1       6.793   4.191  15.983  0.00  0.00    +0.000 S 
BRANCH  14  16
ATOM     16  N   UNL     1       5.048   4.680  18.034  0.00  0.00    +0.000 N 
ATOM     17  C   UNL     1       4.825   5.166  19.412  0.00  0.00    +0.000 C 
ATOM     18  C   UNL     1       3.354   5.089  19.871  0.00  0.00    +0.000 C 
ATOM     19  N   UNL     1       2.687   3.793  19.633  0.00  0.00    +0.000 NA
ATOM     20  C   UNL     1       3.191   2.746  20.520  0.00  0.00    +0.000 C 
ATOM     21  C   UNL     1       2.863   3.433  18.213  0.00  0.00    +0.000 C 
ATOM     22  C   UNL     1       4.327   3.427  17.738  0.00  0.00    +0.000 C 
ENDBRANCH  14  16
ENDBRANCH   3  14
TORSDOF 4
ENDMDL
MODEL 9
REMARK VINA RESULT:      -7.1      1.369      2.005
REMARK  Name = 
REMARK  6 active torsions:
REMARK  status: ('A' for Active; 'I' for Inactive)
REMARK    1  A    between atoms: C_1  and  C_2
REMARK    2  A    between atoms: C_5  and  C_6
REMARK    3  A    between atoms: C_7  and  C_8
REMARK    4  A    between atoms: N_10  and  C_11
REMARK    5  A    between atoms: C_11  and  N_13
REMARK    6  A    between atoms: N_16  and  C_17
REMARK                            x       y       z     vdW  Elec       q    Type
REMARK                         _______ _______ _______ _____ _____    ______ ____
ROOT
ATOM      1  C   UNL     1       6.970   7.395  17.367  0.00  0.00    +0.000 C 
ATOM      2  O   UNL     1       5.933   7.955  17.027  0.00  0.00    +0.000 OA
ATOM      3  N   UNL     1       7.177   6.028  17.409  0.00  0.00    +0.000 N 
ATOM      4  H   UNL     1       7.894   5.701  18.042  0.00  0.00    +0.000 HD
ENDROOT
BRANCH   1   6
ATOM      5  C   UNL     1       8.021   9.485  18.060  0.00  0.00    +0.000 C 
ATOM      6  C   UNL     1       8.157   8.170  17.821  0.00  0.00    +0.000 C 
BRANCH   5  11
ATOM      7  C   UNL     1      12.333  12.937  19.805  0.00  0.00    +0.000 C 
ATOM      8  C   UNL     1      11.211  12.048  19.356  0.00  0.00    +0.000 A 
ATOM      9  C   UNL     1      10.313  11.493  20.273  0.00  0.00    +0.000 A 
ATOM     10  C   UNL     1       9.274  10.666  19.834  0.00  0.00    +0.000 A 
ATOM     11  C   UNL     1       9.108  10.383  18.472  0.00  0.00    +0.000 A 
ATOM     12  C   UNL     1      10.023  10.925  17.561  0.00  0.00    +0.000 A 
ATOM     13  C   UNL     1      11.060  11.754  17.998  0.00  0.00    +0.000 A 
ENDBRANCH   5  11
ENDBRANCH   1   6
BRANCH   3  14
ATOM     14  C   UNL     1       6.379   5.004  16.943  0.00  0.00    +0.000 C 
ATOM     15  S   UNL     1       6.890   4.295  15.506  0.00  0.00    +0.000 S 
BRANCH  14  16
ATOM     16  N   UNL     1       5.218   4.679  17.639  0.00  0.00    +0.000 N 
ATOM     17  C   UNL     1       5.107   4.961  19.086  0.00  0.00    +0.000 C 
ATOM     18  C   UNL     1       3.664   4.887  19.627  0.00  0.00    +0.000 C 
ATOM     19  N   UNL     1       2.910   3.676  19.246  0.00  0.00    +0.000 NA
ATOM     20  C   UNL     1       3.404   2.484  19.932  0.00  0.00    +0.000 C 
ATOM     21  C   UNL     1       2.979   3.527  17.780  0.00  0.00    +0.000 C 
ATOM     22  C   UNL     1       4.409   3.521  17.211  0.00  0.00    +0.000 C 
ENDBRANCH  14  16
ENDBRANCH   3  14
TORSDOF 4
ENDMDL
