MODEL 1
REMARK VINA RESULT:      -7.8      0.000      0.000
REMARK  Name = 
REMARK  6 active torsions:
REMARK  status: ('A' for Active; 'I' for Inactive)
REMARK    1  A    between atoms: C_1  and  C_2
REMARK    2  A    between atoms: C_6  and  C_7
REMARK    3  A    between atoms: C_7  and  N_8
REMARK    4  A    between atoms: C_12  and  C_13
REMARK    5  A    between atoms: C_13  and  N_14
REMARK    6  A    between atoms: C_15  and  C_17
REMARK                            x       y       z     vdW  Elec       q    Type
REMARK                         _______ _______ _______ _____ _____    ______ ____
ROOT
ATOM      1  N   UNL     1       2.747   6.110  18.864  0.00  0.00    +0.000 NA
ATOM      2  C   UNL     1       1.897   5.127  18.189  0.00  0.00    +0.000 C 
ATOM      3  C   UNL     1       2.363   3.682  18.336  0.00  0.00    +0.000 C 
ATOM      4  C   UNL     1       3.811   3.542  17.897  0.00  0.00    +0.000 C 
ATOM      5  C   UNL     1       4.696   4.467  18.737  0.00  0.00    +0.000 C 
ATOM      6  C   UNL     1       4.193   5.921  18.689  0.00  0.00    +0.000 C 
ENDROOT
BRANCH   1   7
ATOM      7  C   UNL     1       2.320   7.495  18.565  0.00  0.00    +0.000 C 
BRANCH   7  13
ATOM      8  C   UNL     1       0.441  10.301  18.760  0.00  0.00    +0.000 C 
ATOM      9  C   UNL     1       0.961   9.404  19.818  0.00  0.00    +0.000 A 
ATOM     10  N   UNL     1       0.688   9.693  21.138  0.00  0.00    +0.000 NA
ATOM     11  C   UNL     1       1.257   8.740  21.833  0.00  0.00    +0.000 A 
ATOM     12  N   UNL     1       1.869   7.831  21.024  0.00  0.00    +0.000 N 
ATOM     13  C   UNL     1       1.731   8.253  19.720  0.00  0.00    +0.000 A 
ATOM     14  H   UNL     1       2.376   7.012  21.333  0.00  0.00    +0.000 HD
ENDBRANCH   7  13
ENDBRANCH   1   7
BRANCH   5  15
ATOM     15  C   UNL     1       6.175   4.376  18.307  0.00  0.00    +0.000 C 
BRANCH  15  16
ATOM     16  N   UNL     1       6.357   4.215  16.874  0.00  0.00    +0.000 N 
ATOM     17  C   UNL     1       6.932   5.174  16.065  0.00  0.00    +0.000 C 
ATOM     18  O   UNL     1       7.369   6.244  16.471  0.00  0.00    +0.000 OA
ATOM     19  H   UNL     1       6.002   3.386  16.405  0.00  0.00    +0.000 HD
BRANCH  17  20
ATOM     20  C   UNL     1       6.962   4.839  14.605  0.00  0.00    +0.000 A 
ATOM     21  C   UNL     1       6.124   3.861  14.117  0.00  0.00    +0.000 A 
ATOM     22  C   UNL     1       6.249   3.595  12.777  0.00  0.00    +0.000 A 
ATOM     23  N   UNL     1       7.135   4.225  11.978  0.00  0.00    +0.000 NA
ATOM     24  C   UNL     1       7.895   5.164  12.562  0.00  0.00    +0.000 A 
ATOM     25  N   UNL     1       7.858   5.522  13.851  0.00  0.00    +0.000 NA
ENDBRANCH  17  20
ENDBRANCH  15  16
ENDBRANCH   5  15
TORSDOF 5
ENDMDL
MODEL 2
REMARK VINA RESULT:      -7.5      2.839      8.258
REMARK  Name = 
REMARK  6 active torsions:
REMARK  status: ('A' for Active; 'I' for Inactive)
REMARK    1  A    between atoms: C_1  and  C_2
REMARK    2  A    between atoms: C_6  and  C_7
REMARK    3  A    between atoms: C_7  and  N_8
REMARK    4  A    between atoms: C_12  and  C_13
REMARK    5  A    between atoms: C_13  and  N_14
REMARK    6  A    between atoms: C_15  and  C_17
REMARK                            x       y       z     vdW  Elec       q    Type
REMARK                         _______ _______ _______ _____ _____    ______ ____
ROOT
ATOM      1  N   UNL     1       4.081   5.090  18.685  0.00  0.00    +0.000 NA
ATOM      2  C   UNL     1       3.490   4.865  20.006  0.00  0.00    +0.000 C 
ATOM      3  C   UNL     1       2.077   5.414  20.167  0.00  0.00    +0.000 C 
ATOM      4  C   UNL     1       2.031   6.887  19.793  0.00  0.00    +0.000 C 
ATOM      5  C   UNL     1       2.503   7.067  18.348  0.00  0.00    +0.000 C 
ATOM      6  C   UNL     1       3.889   6.435  18.127  0.00  0.00    +0.000 C 
ENDROOT
BRANCH   1   7
ATOM      7  C   UNL     1       5.497   4.660  18.642  0.00  0.00    +0.000 C 
BRANCH   7  13
ATOM      8  C   UNL     1       7.501   7.107  17.441  0.00  0.00    +0.000 C 
ATOM      9  C   UNL     1       7.015   5.854  16.817  0.00  0.00    +0.000 A 
ATOM     10  N   UNL     1       7.385   5.561  15.522  0.00  0.00    +0.000 NA
ATOM     11  C   UNL     1       6.824   4.411  15.245  0.00  0.00    +0.000 A 
ATOM     12  N   UNL     1       6.123   3.930  16.310  0.00  0.00    +0.000 N 
ATOM     13  C   UNL     1       6.192   4.858  17.326  0.00  0.00    +0.000 A 
ATOM     14  H   UNL     1       5.604   3.063  16.332  0.00  0.00    +0.000 HD
ENDBRANCH   7  13
ENDBRANCH   1   7
BRANCH   5  15
ATOM     15  C   UNL     1       2.496   8.553  17.934  0.00  0.00    +0.000 C 
BRANCH  15  16
ATOM     16  N   UNL     1       1.162   9.106  17.767  0.00  0.00    +0.000 N 
ATOM     17  C   UNL     1       0.630  10.078  18.588  0.00  0.00    +0.000 C 
ATOM     18  O   UNL     1       1.232  10.593  19.523  0.00  0.00    +0.000 OA
ATOM     19  H   UNL     1       0.544   8.736  17.049  0.00  0.00    +0.000 HD
BRANCH  17  20
ATOM     20  C   UNL     1      -0.787  10.461  18.287  0.00  0.00    +0.000 A 
ATOM     21  C   UNL     1      -1.404  11.427  19.051  0.00  0.00    +0.000 A 
ATOM     22  C   UNL     1      -2.712  11.684  18.728  0.00  0.00    +0.000 A 
ATOM     23  N   UNL     1      -3.372  11.038  17.745  0.00  0.00    +0.000 NA
ATOM     24  C   UNL     1      -2.667  10.122  17.062  0.00  0.00    +0.000 A 
ATOM     25  N   UNL     1      -1.387   9.792  17.273  0.00  0.00    +0.000 NA
ENDBRANCH  17  20
ENDBRANCH  15  16
ENDBRANCH   5  15
TORSDOF 5
ENDMDL
MODEL 3
REMARK VINA RESULT:      -7.4      0.994      1.499
REMARK  Name = 
REMARK  6 active torsions:
REMARK  status: ('A' for Active; 'I' for Inactive)
REMARK    1  A    between atoms: C_1  and  C_2
REMARK    2  A    between atoms: C_6  and  C_7
REMARK    3  A    between atoms: C_7  and  N_8
REMARK    4  A    between atoms: C_12  and  C_13
REMARK    5  A    between atoms: C_13  and  N_14
REMARK    6  A    between atoms: C_15  and  C_17
REMARK                            x       y       z     vdW  Elec       q    Type
REMARK                         _______ _______ _______ _____ _____    ______ ____
ROOT
ATOM      1  N   UNL     1       2.782   6.699  18.487  0.00  0.00    +0.000 NA
ATOM      2  C   UNL     1       1.707   5.966  17.816  0.00  0.00    +0.000 C 
ATOM      3  C   UNL     1       1.723   4.460  18.061  0.00  0.00    +0.000 C 
ATOM      4  C   UNL     1       3.082   3.878  17.709  0.00  0.00    +0.000 C 
ATOM      5  C   UNL     1       4.167   4.557  18.549  0.00  0.00    +0.000 C 
ATOM      6  C   UNL     1       4.114   6.088  18.402  0.00  0.00    +0.000 C 
ENDROOT
BRANCH   1   7
ATOM      7  C   UNL     1       2.792   8.127  18.097  0.00  0.00    +0.000 C 
BRANCH   7  13
ATOM      8  C   UNL     1       1.327   8.459  21.128  0.00  0.00    +0.000 C 
ATOM      9  C   UNL     1       1.013   9.085  19.823  0.00  0.00    +0.000 A 
ATOM     10  N   UNL     1      -0.050   9.958  19.735  0.00  0.00    +0.000 NA
ATOM     11  C   UNL     1      -0.082  10.353  18.487  0.00  0.00    +0.000 A 
ATOM     12  N   UNL     1       0.927   9.793  17.763  0.00  0.00    +0.000 N 
ATOM     13  C   UNL     1       1.627   8.939  18.586  0.00  0.00    +0.000 A 
ATOM     14  H   UNL     1       1.102   9.946  16.779  0.00  0.00    +0.000 HD
ENDBRANCH   7  13
ENDBRANCH   1   7
BRANCH   5  15
ATOM     15  C   UNL     1       5.569   4.012  18.207  0.00  0.00    +0.000 C 
BRANCH  15  16
ATOM     16  N   UNL     1       5.853   3.988  16.781  0.00  0.00    +0.000 N 
ATOM     17  C   UNL     1       6.852   4.733  16.189  0.00  0.00    +0.000 C 
ATOM     18  O   UNL     1       7.616   5.468  16.803  0.00  0.00    +0.000 OA
ATOM     19  H   UNL     1       5.265   3.446  16.154  0.00  0.00    +0.000 HD
BRANCH  17  20
ATOM     20  C   UNL     1       6.934   4.616  14.698  0.00  0.00    +0.000 A 
ATOM     21  C   UNL     1       6.130   3.708  14.044  0.00  0.00    +0.000 A 
ATOM     22  C   UNL     1       6.301   3.644  12.685  0.00  0.00    +0.000 A 
ATOM     23  N   UNL     1       7.199   4.396  12.016  0.00  0.00    +0.000 NA
ATOM     24  C   UNL     1       7.923   5.251  12.756  0.00  0.00    +0.000 A 
ATOM     25  N   UNL     1       7.839   5.415  14.082  0.00  0.00    +0.000 NA
ENDBRANCH  17  20
ENDBRANCH  15  16
ENDBRANCH   5  15
TORSDOF 5
ENDMDL
MODEL 4
REMARK VINA RESULT:      -7.4      2.698      8.013
REMARK  Name = 
REMARK  6 active torsions:
REMARK  status: ('A' for Active; 'I' for Inactive)
REMARK    1  A    between atoms: C_1  and  C_2
REMARK    2  A    between atoms: C_6  and  C_7
REMARK    3  A    between atoms: C_7  and  N_8
REMARK    4  A    between atoms: C_12  and  C_13
REMARK    5  A    between atoms: C_13  and  N_14
REMARK    6  A    between atoms: C_15  and  C_17
REMARK                            x       y       z     vdW  Elec       q    Type
REMARK                         _______ _______ _______ _____ _____    ______ ____
ROOT
ATOM      1  N   UNL     1       3.178   4.201  18.056  0.00  0.00    +0.000 NA
ATOM      2  C   UNL     1       3.133   3.981  19.503  0.00  0.00    +0.000 C 
ATOM      3  C   UNL     1       2.177   4.904  20.252  0.00  0.00    +0.000 C 
ATOM      4  C   UNL     1       2.480   6.359  19.931  0.00  0.00    +0.000 C 
ATOM      5  C   UNL     1       2.359   6.590  18.423  0.00  0.00    +0.000 C 
ATOM      6  C   UNL     1       3.239   5.606  17.631  0.00  0.00    +0.000 C 
ENDROOT
BRANCH   1   7
ATOM      7  C   UNL     1       4.223   3.373  17.412  0.00  0.00    +0.000 C 
BRANCH   7  13
ATOM      8  C   UNL     1       5.763   4.829  14.775  0.00  0.00    +0.000 C 
ATOM      9  C   UNL     1       6.207   4.635  16.175  0.00  0.00    +0.000 A 
ATOM     10  N   UNL     1       7.454   5.084  16.552  0.00  0.00    +0.000 NA
ATOM     11  C   UNL     1       7.569   4.788  17.822  0.00  0.00    +0.000 A 
ATOM     12  N   UNL     1       6.442   4.186  18.295  0.00  0.00    +0.000 N 
ATOM     13  C   UNL     1       5.561   4.035  17.247  0.00  0.00    +0.000 A 
ATOM     14  H   UNL     1       6.298   3.864  19.243  0.00  0.00    +0.000 HD
ENDBRANCH   7  13
ENDBRANCH   1   7
BRANCH   5  15
ATOM     15  C   UNL     1       2.683   8.051  18.049  0.00  0.00    +0.000 C 
BRANCH  15  16
ATOM     16  N   UNL     1       1.503   8.872  17.825  0.00  0.00    +0.000 N 
ATOM     17  C   UNL     1       0.867   9.581  18.823  0.00  0.00    +0.000 C 
ATOM     18  O   UNL     1       1.241   9.614  19.989  0.00  0.00    +0.000 OA
ATOM     19  H   UNL     1       1.068   8.899  16.907  0.00  0.00    +0.000 HD
BRANCH  17  20
ATOM     20  C   UNL     1      -0.372  10.307  18.397  0.00  0.00    +0.000 A 
ATOM     21  C   UNL     1      -0.752  11.449  19.067  0.00  0.00    +0.000 A 
ATOM     22  C   UNL     1      -1.919  12.024  18.633  0.00  0.00    +0.000 A 
ATOM     23  N   UNL     1      -2.667  11.515  17.633  0.00  0.00    +0.000 NA
ATOM     24  C   UNL     1      -2.194  10.404  17.048  0.00  0.00    +0.000 A 
ATOM     25  N   UNL     1      -1.067   9.758  17.371  0.00  0.00    +0.000 NA
ENDBRANCH  17  20
ENDBRANCH  15  16
ENDBRANCH   5  15
TORSDOF 5
ENDMDL
MODEL 5
REMARK VINA RESULT:      -7.3      2.520      8.464
REMARK  Name = 
REMARK  6 active torsions:
REMARK  status: ('A' for Active; 'I' for Inactive)
REMARK    1  A    between atoms: C_1  and  C_2
REMARK    2  A    between atoms: C_6  and  C_7
REMARK    3  A    between atoms: C_7  and  N_8
REMARK    4  A    between atoms: C_12  and  C_13
REMARK    5  A    between atoms: C_13  and  N_14
REMARK    6  A    between atoms: C_15  and  C_17
REMARK                            x       y       z     vdW  Elec       q    Type
REMARK                         _______ _______ _______ _____ _____    ______ ____
ROOT
ATOM      1  N   UNL     1       3.213   3.794  18.004  0.00  0.00    +0.000 NA
ATOM      2  C   UNL     1       3.135   3.174  19.327  0.00  0.00    +0.000 C 
ATOM      3  C   UNL     1       2.089   3.787  20.252  0.00  0.00    +0.000 C 
ATOM      4  C   UNL     1       2.293   5.289  20.366  0.00  0.00    +0.000 C 
ATOM      5  C   UNL     1       2.206   5.928  18.977  0.00  0.00    +0.000 C 
ATOM      6  C   UNL     1       3.182   5.262  17.991  0.00  0.00    +0.000 C 
ENDROOT
BRANCH   1   7
ATOM      7  C   UNL     1       4.337   3.248  17.211  0.00  0.00    +0.000 C 
BRANCH   7  13
ATOM      8  C   UNL     1       5.732   5.357  14.965  0.00  0.00    +0.000 C 
ATOM      9  C   UNL     1       6.181   4.935  16.312  0.00  0.00    +0.000 A 
ATOM     10  N   UNL     1       7.367   5.430  16.811  0.00  0.00    +0.000 NA
ATOM     11  C   UNL     1       7.501   4.900  18.000  0.00  0.00    +0.000 A 
ATOM     12  N   UNL     1       6.443   4.098  18.308  0.00  0.00    +0.000 N 
ATOM     13  C   UNL     1       5.595   4.067  17.223  0.00  0.00    +0.000 A 
ATOM     14  H   UNL     1       6.326   3.580  19.169  0.00  0.00    +0.000 HD
ENDBRANCH   7  13
ENDBRANCH   1   7
BRANCH   5  15
ATOM     15  C   UNL     1       2.432   7.452  19.042  0.00  0.00    +0.000 C 
BRANCH  15  16
ATOM     16  N   UNL     1       1.632   8.118  20.057  0.00  0.00    +0.000 N 
ATOM     17  C   UNL     1       1.047   9.355  19.878  0.00  0.00    +0.000 C 
ATOM     18  O   UNL     1       1.118  10.005  18.842  0.00  0.00    +0.000 OA
ATOM     19  H   UNL     1       1.528   7.701  20.978  0.00  0.00    +0.000 HD
BRANCH  17  20
ATOM     20  C   UNL     1       0.322   9.895  21.072  0.00  0.00    +0.000 A 
ATOM     21  C   UNL     1      -0.340  11.099  20.975  0.00  0.00    +0.000 A 
ATOM     22  C   UNL     1      -0.942  11.534  22.129  0.00  0.00    +0.000 A 
ATOM     23  N   UNL     1      -0.888  10.854  23.292  0.00  0.00    +0.000 NA
ATOM     24  C   UNL     1      -0.221   9.689  23.266  0.00  0.00    +0.000 A 
ATOM     25  N   UNL     1       0.395   9.154  22.205  0.00  0.00    +0.000 NA
ENDBRANCH  17  20
ENDBRANCH  15  16
ENDBRANCH   5  15
TORSDOF 5
ENDMDL
MODEL 6
REMARK VINA RESULT:      -7.2      2.246      8.427
REMARK  Name = 
REMARK  6 active torsions:
REMARK  status: ('A' for Active; 'I' for Inactive)
REMARK    1  A    between atoms: C_1  and  C_2
REMARK    2  A    between atoms: C_6  and  C_7
REMARK    3  A    between atoms: C_7  and  N_8
REMARK    4  A    between atoms: C_12  and  C_13
REMARK    5  A    between atoms: C_13  and  N_14
REMARK    6  A    between atoms: C_15  and  C_17
REMARK                            x       y       z     vdW  Elec       q    Type
REMARK                         _______ _______ _______ _____ _____    ______ ____
ROOT
ATOM      1  N   UNL     1       3.416   3.799  17.660  0.00  0.00    +0.000 NA
ATOM      2  C   UNL     1       2.915   3.173  18.885  0.00  0.00    +0.000 C 
ATOM      3  C   UNL     1       1.694   3.857  19.490  0.00  0.00    +0.000 C 
ATOM      4  C   UNL     1       1.965   5.338  19.706  0.00  0.00    +0.000 C 
ATOM      5  C   UNL     1       2.329   5.995  18.373  0.00  0.00    +0.000 C 
ATOM      6  C   UNL     1       3.497   5.265  17.687  0.00  0.00    +0.000 C 
ENDROOT
BRANCH   1   7
ATOM      7  C   UNL     1       4.678   3.173  17.207  0.00  0.00    +0.000 C 
BRANCH   7  13
ATOM      8  C   UNL     1       7.370   5.050  18.025  0.00  0.00    +0.000 C 
ATOM      9  C   UNL     1       6.693   4.836  16.725  0.00  0.00    +0.000 A 
ATOM     10  N   UNL     1       7.169   5.484  15.605  0.00  0.00    +0.000 NA
ATOM     11  C   UNL     1       6.393   5.105  14.621  0.00  0.00    +0.000 A 
ATOM     12  N   UNL     1       5.447   4.222  15.045  0.00  0.00    +0.000 N 
ATOM     13  C   UNL     1       5.587   4.060  16.406  0.00  0.00    +0.000 A 
ATOM     14  H   UNL     1       4.735   3.796  14.467  0.00  0.00    +0.000 HD
ENDBRANCH   7  13
ENDBRANCH   1   7
BRANCH   5  15
ATOM     15  C   UNL     1       2.637   7.496  18.549  0.00  0.00    +0.000 C 
BRANCH  15  16
ATOM     16  N   UNL     1       1.951   8.103  19.678  0.00  0.00    +0.000 N 
ATOM     17  C   UNL     1       1.230   9.276  19.592  0.00  0.00    +0.000 C 
ATOM     18  O   UNL     1       1.071   9.911  18.556  0.00  0.00    +0.000 OA
ATOM     19  H   UNL     1       2.036   7.696  20.606  0.00  0.00    +0.000 HD
BRANCH  17  20
ATOM     20  C   UNL     1       0.659   9.769  20.886  0.00  0.00    +0.000 A 
ATOM     21  C   UNL     1       0.736   8.972  22.007  0.00  0.00    +0.000 A 
ATOM     22  C   UNL     1       0.152   9.488  23.136  0.00  0.00    +0.000 A 
ATOM     23  N   UNL     1      -0.472  10.683  23.165  0.00  0.00    +0.000 NA
ATOM     24  C   UNL     1      -0.479  11.375  22.016  0.00  0.00    +0.000 A 
ATOM     25  N   UNL     1       0.065  10.987  20.856  0.00  0.00    +0.000 NA
ENDBRANCH  17  20
ENDBRANCH  15  16
ENDBRANCH   5  15
TORSDOF 5
ENDMDL
MODEL 7
REMARK VINA RESULT:      -7.1      2.605      7.863
REMARK  Name = 
REMARK  6 active torsions:
REMARK  status: ('A' for Active; 'I' for Inactive)
REMARK    1  A    between atoms: C_1  and  C_2
REMARK    2  A    between atoms: C_6  and  C_7
REMARK    3  A    between atoms: C_7  and  N_8
REMARK    4  A    between atoms: C_12  and  C_13
REMARK    5  A    between atoms: C_13  and  N_14
REMARK    6  A    between atoms: C_15  and  C_17
REMARK                            x       y       z     vdW  Elec       q    Type
REMARK                         _______ _______ _______ _____ _____    ______ ____
ROOT
ATOM      1  N   UNL     1       3.511   4.081  18.443  0.00  0.00    +0.000 NA
ATOM      2  C   UNL     1       2.833   2.805  18.680  0.00  0.00    +0.000 C 
ATOM      3  C   UNL     1       1.359   2.932  19.051  0.00  0.00    +0.000 C 
ATOM      4  C   UNL     1       1.187   3.869  20.236  0.00  0.00    +0.000 C 
ATOM      5  C   UNL     1       1.763   5.246  19.892  0.00  0.00    +0.000 C 
ATOM      6  C   UNL     1       3.224   5.140  19.418  0.00  0.00    +0.000 C 
ENDROOT
BRANCH   1   7
ATOM      7  C   UNL     1       4.964   3.893  18.227  0.00  0.00    +0.000 C 
BRANCH   7  13
ATOM      8  C   UNL     1       4.949   6.899  16.676  0.00  0.00    +0.000 C 
ATOM      9  C   UNL     1       5.486   5.587  16.248  0.00  0.00    +0.000 A 
ATOM     10  N   UNL     1       6.090   5.479  15.014  0.00  0.00    +0.000 NA
ATOM     11  C   UNL     1       6.468   4.229  14.912  0.00  0.00    +0.000 A 
ATOM     12  N   UNL     1       6.156   3.523  16.035  0.00  0.00    +0.000 N 
ATOM     13  C   UNL     1       5.485   4.361  16.899  0.00  0.00    +0.000 A 
ATOM     14  H   UNL     1       6.345   2.542  16.187  0.00  0.00    +0.000 HD
ENDBRANCH   7  13
ENDBRANCH   1   7
BRANCH   5  15
ATOM     15  C   UNL     1       1.631   6.223  21.078  0.00  0.00    +0.000 C 
BRANCH  15  16
ATOM     16  N   UNL     1       1.687   7.623  20.689  0.00  0.00    +0.000 N 
ATOM     17  C   UNL     1       0.706   8.542  21.001  0.00  0.00    +0.000 C 
ATOM     18  O   UNL     1      -0.295   8.282  21.657  0.00  0.00    +0.000 OA
ATOM     19  H   UNL     1       2.449   7.961  20.107  0.00  0.00    +0.000 HD
BRANCH  17  20
ATOM     20  C   UNL     1       0.921   9.917  20.446  0.00  0.00    +0.000 A 
ATOM     21  C   UNL     1       1.139  10.075  19.095  0.00  0.00    +0.000 A 
ATOM     22  C   UNL     1       1.365  11.363  18.683  0.00  0.00    +0.000 A 
ATOM     23  N   UNL     1       1.393  12.415  19.527  0.00  0.00    +0.000 NA
ATOM     24  C   UNL     1       1.160  12.142  20.820  0.00  0.00    +0.000 A 
ATOM     25  N   UNL     1       0.915  10.933  21.341  0.00  0.00    +0.000 NA
ENDBRANCH  17  20
ENDBRANCH  15  16
ENDBRANCH   5  15
TORSDOF 5
ENDMDL
MODEL 8
REMARK VINA RESULT:      -7.1      2.592      7.700
REMARK  Name = 
REMARK  6 active torsions:
REMARK  status: ('A' for Active; 'I' for Inactive)
REMARK    1  A    between atoms: C_1  and  C_2
REMARK    2  A    between atoms: C_6  and  C_7
REMARK    3  A    between atoms: C_7  and  N_8
REMARK    4  A    between atoms: C_12  and  C_13
REMARK    5  A    between atoms: C_13  and  N_14
REMARK    6  A    between atoms: C_15  and  C_17
REMARK                            x       y       z     vdW  Elec       q    Type
REMARK                         _______ _______ _______ _____ _____    ______ ____
ROOT
ATOM      1  N   UNL     1       4.526   4.300  19.012  0.00  0.00    +0.000 NA
ATOM      2  C   UNL     1       4.351   2.946  19.540  0.00  0.00    +0.000 C 
ATOM      3  C   UNL     1       2.900   2.544  19.779  0.00  0.00    +0.000 C 
ATOM      4  C   UNL     1       2.201   3.566  20.660  0.00  0.00    +0.000 C 
ATOM      5  C   UNL     1       2.262   4.945  19.997  0.00  0.00    +0.000 C 
ATOM      6  C   UNL     1       3.709   5.339  19.653  0.00  0.00    +0.000 C 
ENDROOT
BRANCH   1   7
ATOM      7  C   UNL     1       5.956   4.675  18.937  0.00  0.00    +0.000 C 
BRANCH   7  13
ATOM      8  C   UNL     1       7.549   7.320  17.556  0.00  0.00    +0.000 C 
ATOM      9  C   UNL     1       7.135   6.023  16.974  0.00  0.00    +0.000 A 
ATOM     10  N   UNL     1       7.393   5.770  15.644  0.00  0.00    +0.000 NA
ATOM     11  C   UNL     1       6.931   4.566  15.416  0.00  0.00    +0.000 A 
ATOM     12  N   UNL     1       6.403   4.015  16.544  0.00  0.00    +0.000 N 
ATOM     13  C   UNL     1       6.481   4.945  17.557  0.00  0.00    +0.000 A 
ATOM     14  H   UNL     1       5.984   3.097  16.612  0.00  0.00    +0.000 HD
ENDBRANCH   7  13
ENDBRANCH   1   7
BRANCH   5  15
ATOM     15  C   UNL     1       1.585   6.021  20.871  0.00  0.00    +0.000 C 
BRANCH  15  16
ATOM     16  N   UNL     1       1.611   7.351  20.284  0.00  0.00    +0.000 N 
ATOM     17  C   UNL     1       1.116   8.473  20.915  0.00  0.00    +0.000 C 
ATOM     18  O   UNL     1       0.631   8.472  22.040  0.00  0.00    +0.000 OA
ATOM     19  H   UNL     1       1.954   7.483  19.336  0.00  0.00    +0.000 HD
BRANCH  17  20
ATOM     20  C   UNL     1       1.176   9.735  20.109  0.00  0.00    +0.000 A 
ATOM     21  C   UNL     1       1.511   9.670  18.774  0.00  0.00    +0.000 A 
ATOM     22  C   UNL     1       1.579  10.877  18.127  0.00  0.00    +0.000 A 
ATOM     23  N   UNL     1       1.352  12.058  18.738  0.00  0.00    +0.000 NA
ATOM     24  C   UNL     1       1.026  11.998  20.038  0.00  0.00    +0.000 A 
ATOM     25  N   UNL     1       0.915  10.886  20.775  0.00  0.00    +0.000 NA
ENDBRANCH  17  20
ENDBRANCH  15  16
ENDBRANCH   5  15
TORSDOF 5
ENDMDL
MODEL 9
REMARK VINA RESULT:      -7.1      3.247      7.823
REMARK  Name = 
REMARK  6 active torsions:
REMARK  status: ('A' for Active; 'I' for Inactive)
REMARK    1  A    between atoms: C_1  and  C_2
REMARK    2  A    between atoms: C_6  and  C_7
REMARK    3  A    between atoms: C_7  and  N_8
REMARK    4  A    between atoms: C_12  and  C_13
REMARK    5  A    between atoms: C_13  and  N_14
REMARK    6  A    between atoms: C_15  and  C_17
REMARK                            x       y       z     vdW  Elec       q    Type
REMARK                         _______ _______ _______ _____ _____    ______ ____
ROOT
ATOM      1  N   UNL     1       4.547   4.369  18.504  0.00  0.00    +0.000 NA
ATOM      2  C   UNL     1       5.455   4.407  17.357  0.00  0.00    +0.000 C 
ATOM      3  C   UNL     1       5.899   5.808  16.949  0.00  0.00    +0.000 C 
ATOM      4  C   UNL     1       4.692   6.703  16.718  0.00  0.00    +0.000 C 
ATOM      5  C   UNL     1       3.848   6.770  17.994  0.00  0.00    +0.000 C 
ATOM      6  C   UNL     1       3.466   5.363  18.489  0.00  0.00    +0.000 C 
ENDROOT
BRANCH   1   7
ATOM      7  C   UNL     1       4.047   2.999  18.757  0.00  0.00    +0.000 C 
BRANCH   7  13
ATOM      8  C   UNL     1       0.698   2.536  18.645  0.00  0.00    +0.000 C 
ATOM      9  C   UNL     1       1.620   2.693  19.794  0.00  0.00    +0.000 A 
ATOM     10  N   UNL     1       1.109   2.670  21.074  0.00  0.00    +0.000 NA
ATOM     11  C   UNL     1       2.137   2.822  21.869  0.00  0.00    +0.000 A 
ATOM     12  N   UNL     1       3.300   2.919  21.165  0.00  0.00    +0.000 N 
ATOM     13  C   UNL     1       2.995   2.881  19.822  0.00  0.00    +0.000 A 
ATOM     14  H   UNL     1       4.221   3.044  21.562  0.00  0.00    +0.000 HD
ENDBRANCH   7  13
ENDBRANCH   1   7
BRANCH   5  15
ATOM     15  C   UNL     1       2.597   7.650  17.797  0.00  0.00    +0.000 C 
BRANCH  15  16
ATOM     16  N   UNL     1       2.047   8.170  19.038  0.00  0.00    +0.000 N 
ATOM     17  C   UNL     1       1.191   9.250  19.101  0.00  0.00    +0.000 C 
ATOM     18  O   UNL     1       0.787   9.864  18.121  0.00  0.00    +0.000 OA
ATOM     19  H   UNL     1       2.335   7.772  19.929  0.00  0.00    +0.000 HD
BRANCH  17  20
ATOM     20  C   UNL     1       0.796   9.669  20.484  0.00  0.00    +0.000 A 
ATOM     21  C   UNL     1       1.100   8.853  21.551  0.00  0.00    +0.000 A 
ATOM     22  C   UNL     1       0.664   9.298  22.773  0.00  0.00    +0.000 A 
ATOM     23  N   UNL     1      -0.028  10.444  22.939  0.00  0.00    +0.000 NA
ATOM     24  C   UNL     1      -0.260  11.161  21.829  0.00  0.00    +0.000 A 
ATOM     25  N   UNL     1       0.122  10.840  20.587  0.00  0.00    +0.000 NA
ENDBRANCH  17  20
ENDBRANCH  15  16
ENDBRANCH   5  15
TORSDOF 5
ENDMDL
