MODEL 1
REMARK VINA RESULT:      -7.5      0.000      0.000
REMARK  Name = 
REMARK  7 active torsions:
REMARK  status: ('A' for Active; 'I' for Inactive)
REMARK    1  A    between atoms: C_1  and  C_2
REMARK    2  A    between atoms: C_2  and  C_3
REMARK    3  A    between atoms: C_3  and  N_4
REMARK    4  A    between atoms: C_3  and  C_15
REMARK    5  A    between atoms: N_4  and  C_5
REMARK    6  A    between atoms: C_12  and  C_13
REMARK    7  A    between atoms: N_27  and  C_28
REMARK                            x       y       z     vdW  Elec       q    Type
REMARK                         _______ _______ _______ _____ _____    ______ ____
ROOT
ATOM      1  C   UNL     1       1.640  10.087  18.569  0.00  0.00    +0.000 C 
ENDROOT
BRANCH   1   2
ATOM      2  C   UNL     1       2.147   8.614  18.703  0.00  0.00    +0.000 A 
ATOM      3  N   UNL     1       2.885   8.143  17.748  0.00  0.00    +0.000 NA
ATOM      4  C   UNL     1       3.415   6.856  17.821  0.00  0.00    +0.000 A 
ATOM      5  C   UNL     1       4.182   6.396  16.741  0.00  0.00    +0.000 A 
ATOM      6  F   UNL     1       4.380   7.183  15.671  0.00  0.00    +0.000 F 
ATOM      7  C   UNL     1       4.756   5.133  16.742  0.00  0.00    +0.000 A 
ATOM      8  C   UNL     1       4.556   4.303  17.839  0.00  0.00    +0.000 A 
ATOM      9  C   UNL     1       3.793   4.741  18.933  0.00  0.00    +0.000 A 
ATOM     10 CL   UNL     1       3.616   3.596  20.215  0.00  0.00    +0.000 Cl
ATOM     11  C   UNL     1       3.226   6.030  18.929  0.00  0.00    +0.000 A 
ATOM     12  C   UNL     1       2.428   6.601  20.044  0.00  0.00    +0.000 A 
ATOM     13  O   UNL     1       2.286   5.960  21.081  0.00  0.00    +0.000 OA
ATOM     14  N   UNL     1       1.864   7.873  19.846  0.00  0.00    +0.000 N 
BRANCH  14  15
ATOM     15  C   UNL     1       1.107   8.418  20.926  0.00  0.00    +0.000 A 
ATOM     16  C   UNL     1      -0.255   8.135  21.068  0.00  0.00    +0.000 A 
ATOM     17  C   UNL     1      -0.957   8.637  22.163  0.00  0.00    +0.000 A 
ATOM     18  C   UNL     1      -0.277   9.422  23.079  0.00  0.00    +0.000 A 
ATOM     19  N   UNL     1       1.025   9.749  22.957  0.00  0.00    +0.000 NA
ATOM     20  C   UNL     1       1.677   9.257  21.878  0.00  0.00    +0.000 A 
ENDBRANCH  14  15
ENDBRANCH   1   2
BRANCH   1  22
ATOM     21  C   UNL     1       2.430  12.486  18.238  0.00  0.00    +0.000 C 
ATOM     22  C   UNL     1       2.630  11.019  17.851  0.00  0.00    +0.000 C 
ENDBRANCH   1  22
BRANCH   1  23
ATOM     23  N   UNL     1       0.276  10.162  17.989  0.00  0.00    +0.000 N 
ATOM     24  H   UNL     1      -0.012   9.302  17.525  0.00  0.00    +0.000 HD
BRANCH  23  25
ATOM     25  C   UNL     1      -0.785  10.802  18.632  0.00  0.00    +0.000 A 
ATOM     26  N   UNL     1      -0.564  11.367  19.826  0.00  0.00    +0.000 NA
ATOM     27  C   UNL     1      -1.549  12.064  20.394  0.00  0.00    +0.000 A 
ATOM     28  N   UNL     1      -1.362  12.488  21.687  0.00  0.00    +0.000 N 
ATOM     29  N   UNL     1      -2.705  12.353  19.799  0.00  0.00    +0.000 NA
ATOM     30  C   UNL     1      -2.931  11.781  18.608  0.00  0.00    +0.000 A 
ATOM     31  N   UNL     1      -4.176  12.073  18.045  0.00  0.00    +0.000 N 
ATOM     32  C   UNL     1      -2.024  10.917  18.016  0.00  0.00    +0.000 A 
ATOM     33  H   UNL     1      -0.382  12.512  21.942  0.00  0.00    +0.000 HD
ATOM     34  H   UNL     1      -1.960  13.255  21.945  0.00  0.00    +0.000 HD
ATOM     35  H   UNL     1      -4.626  12.789  18.612  0.00  0.00    +0.000 HD
ATOM     36  H   UNL     1      -4.140  12.331  17.063  0.00  0.00    +0.000 HD
BRANCH  32  37
ATOM     37  C   UNL     1      -2.352  10.218  16.813  0.00  0.00    +0.000 C 
ATOM     38  N   UNL     1      -2.623   9.674  15.828  0.00  0.00    +0.000 NA
ENDBRANCH  32  37
ENDBRANCH  23  25
ENDBRANCH   1  23
TORSDOF 6
ENDMDL
MODEL 2
REMARK VINA RESULT:      -7.2      4.405      6.791
REMARK  Name = 
REMARK  7 active torsions:
REMARK  status: ('A' for Active; 'I' for Inactive)
REMARK    1  A    between atoms: C_1  and  C_2
REMARK    2  A    between atoms: C_2  and  C_3
REMARK    3  A    between atoms: C_3  and  N_4
REMARK    4  A    between atoms: C_3  and  C_15
REMARK    5  A    between atoms: N_4  and  C_5
REMARK    6  A    between atoms: C_12  and  C_13
REMARK    7  A    between atoms: N_27  and  C_28
REMARK                            x       y       z     vdW  Elec       q    Type
REMARK                         _______ _______ _______ _____ _____    ______ ____
ROOT
ATOM      1  C   UNL     1      -0.317  11.299  21.562  0.00  0.00    +0.000 C 
ENDROOT
BRANCH   1   2
ATOM      2  C   UNL     1      -1.374  11.455  20.421  0.00  0.00    +0.000 A 
ATOM      3  N   UNL     1      -1.206  10.753  19.345  0.00  0.00    +0.000 NA
ATOM      4  C   UNL     1      -2.133  10.802  18.306  0.00  0.00    +0.000 A 
ATOM      5  C   UNL     1      -1.878  10.040  17.157  0.00  0.00    +0.000 A 
ATOM      6  F   UNL     1      -0.761   9.299  17.074  0.00  0.00    +0.000 F 
ATOM      7  C   UNL     1      -2.758  10.024  16.085  0.00  0.00    +0.000 A 
ATOM      8  C   UNL     1      -3.916  10.789  16.151  0.00  0.00    +0.000 A 
ATOM      9  C   UNL     1      -4.194  11.560  17.291  0.00  0.00    +0.000 A 
ATOM     10 CL   UNL     1      -5.660  12.473  17.225  0.00  0.00    +0.000 Cl
ATOM     11  C   UNL     1      -3.302  11.560  18.381  0.00  0.00    +0.000 A 
ATOM     12  C   UNL     1      -3.515  12.314  19.642  0.00  0.00    +0.000 A 
ATOM     13  O   UNL     1      -4.557  12.941  19.807  0.00  0.00    +0.000 OA
ATOM     14  N   UNL     1      -2.487  12.271  20.599  0.00  0.00    +0.000 N 
BRANCH  14  15
ATOM     15  C   UNL     1      -2.703  12.992  21.812  0.00  0.00    +0.000 A 
ATOM     16  C   UNL     1      -3.435  12.431  22.862  0.00  0.00    +0.000 A 
ATOM     17  C   UNL     1      -3.585  13.135  24.057  0.00  0.00    +0.000 A 
ATOM     18  C   UNL     1      -3.008  14.390  24.159  0.00  0.00    +0.000 A 
ATOM     19  N   UNL     1      -2.328  14.980  23.157  0.00  0.00    +0.000 NA
ATOM     20  C   UNL     1      -2.209  14.277  22.005  0.00  0.00    +0.000 A 
ENDBRANCH  14  15
ENDBRANCH   1   2
BRANCH   1  22
ATOM     21  C   UNL     1       0.761   9.071  22.170  0.00  0.00    +0.000 C 
ATOM     22  C   UNL     1      -0.451   9.987  22.354  0.00  0.00    +0.000 C 
ENDBRANCH   1  22
BRANCH   1  23
ATOM     23  N   UNL     1       1.068  11.524  21.081  0.00  0.00    +0.000 N 
ATOM     24  H   UNL     1       1.446  10.737  20.555  0.00  0.00    +0.000 HD
BRANCH  23  25
ATOM     25  C   UNL     1       1.506  12.754  20.585  0.00  0.00    +0.000 A 
ATOM     26  N   UNL     1       1.364  13.842  21.352  0.00  0.00    +0.000 NA
ATOM     27  C   UNL     1       1.871  14.997  20.922  0.00  0.00    +0.000 A 
ATOM     28  N   UNL     1       1.567  16.130  21.637  0.00  0.00    +0.000 N 
ATOM     29  N   UNL     1       2.630  15.126  19.835  0.00  0.00    +0.000 NA
ATOM     30  C   UNL     1       2.766  14.041  19.061  0.00  0.00    +0.000 A 
ATOM     31  N   UNL     1       3.529  14.235  17.907  0.00  0.00    +0.000 N 
ATOM     32  C   UNL     1       2.142  12.838  19.354  0.00  0.00    +0.000 A 
ATOM     33  H   UNL     1       1.274  15.916  22.583  0.00  0.00    +0.000 HD
ATOM     34  H   UNL     1       2.210  16.887  21.477  0.00  0.00    +0.000 HD
ATOM     35  H   UNL     1       3.950  15.161  17.951  0.00  0.00    +0.000 HD
ATOM     36  H   UNL     1       4.220  13.510  17.735  0.00  0.00    +0.000 HD
BRANCH  32  37
ATOM     37  C   UNL     1       2.196  11.740  18.440  0.00  0.00    +0.000 C 
ATOM     38  N   UNL     1       2.255  10.864  17.686  0.00  0.00    +0.000 NA
ENDBRANCH  32  37
ENDBRANCH  23  25
ENDBRANCH   1  23
TORSDOF 6
ENDMDL
MODEL 3
REMARK VINA RESULT:      -7.2      3.623      7.454
REMARK  Name = 
REMARK  7 active torsions:
REMARK  status: ('A' for Active; 'I' for Inactive)
REMARK    1  A    between atoms: C_1  and  C_2
REMARK    2  A    between atoms: C_2  and  C_3
REMARK    3  A    between atoms: C_3  and  N_4
REMARK    4  A    between atoms: C_3  and  C_15
REMARK    5  A    between atoms: N_4  and  C_5
REMARK    6  A    between atoms: C_12  and  C_13
REMARK    7  A    between atoms: N_27  and  C_28
REMARK                            x       y       z     vdW  Elec       q    Type
REMARK                         _______ _______ _______ _____ _____    ______ ____
ROOT
ATOM      1  C   UNL     1       3.191   5.428  18.024  0.00  0.00    +0.000 C 
ENDROOT
BRANCH   1   2
ATOM      2  C   UNL     1       2.531   6.608  18.809  0.00  0.00    +0.000 A 
ATOM      3  N   UNL     1       2.556   7.783  18.262  0.00  0.00    +0.000 NA
ATOM      4  C   UNL     1       1.944   8.873  18.877  0.00  0.00    +0.000 A 
ATOM      5  C   UNL     1       2.031  10.122  18.248  0.00  0.00    +0.000 A 
ATOM      6  F   UNL     1       2.699  10.247  17.089  0.00  0.00    +0.000 F 
ATOM      7  C   UNL     1       1.439  11.253  18.789  0.00  0.00    +0.000 A 
ATOM      8  C   UNL     1       0.748  11.143  19.990  0.00  0.00    +0.000 A 
ATOM      9  C   UNL     1       0.647   9.903  20.641  0.00  0.00    +0.000 A 
ATOM     10 CL   UNL     1      -0.225   9.922  22.133  0.00  0.00    +0.000 Cl
ATOM     11  C   UNL     1       1.240   8.757  20.076  0.00  0.00    +0.000 A 
ATOM     12  C   UNL     1       1.167   7.396  20.665  0.00  0.00    +0.000 A 
ATOM     13  O   UNL     1       0.500   7.206  21.678  0.00  0.00    +0.000 OA
ATOM     14  N   UNL     1       1.884   6.375  20.018  0.00  0.00    +0.000 N 
BRANCH  14  15
ATOM     15  C   UNL     1       1.801   5.068  20.586  0.00  0.00    +0.000 A 
ATOM     16  C   UNL     1       0.790   4.181  20.206  0.00  0.00    +0.000 A 
ATOM     17  C   UNL     1       0.765   2.891  20.736  0.00  0.00    +0.000 A 
ATOM     18  C   UNL     1       1.747   2.531  21.644  0.00  0.00    +0.000 A 
ATOM     19  N   UNL     1       2.716   3.370  22.063  0.00  0.00    +0.000 NA
ATOM     20  C   UNL     1       2.707   4.619  21.541  0.00  0.00    +0.000 A 
ENDBRANCH  14  15
ENDBRANCH   1   2
BRANCH   1  22
ATOM     21  C   UNL     1       2.625   3.064  17.261  0.00  0.00    +0.000 C 
ATOM     22  C   UNL     1       2.180   4.528  17.294  0.00  0.00    +0.000 C 
ENDBRANCH   1  22
BRANCH   1  23
ATOM     23  N   UNL     1       4.282   5.887  17.130  0.00  0.00    +0.000 N 
ATOM     24  H   UNL     1       3.971   6.550  16.421  0.00  0.00    +0.000 HD
BRANCH  23  25
ATOM     25  C   UNL     1       5.571   6.166  17.591  0.00  0.00    +0.000 A 
ATOM     26  N   UNL     1       6.208   7.238  17.103  0.00  0.00    +0.000 NA
ATOM     27  C   UNL     1       7.395   7.563  17.615  0.00  0.00    +0.000 A 
ATOM     28  N   UNL     1       8.106   8.557  16.989  0.00  0.00    +0.000 N 
ATOM     29  N   UNL     1       7.944   6.971  18.675  0.00  0.00    +0.000 NA
ATOM     30  C   UNL     1       7.313   5.892  19.158  0.00  0.00    +0.000 A 
ATOM     31  N   UNL     1       7.950   5.275  20.238  0.00  0.00    +0.000 N 
ATOM     32  C   UNL     1       6.152   5.394  18.587  0.00  0.00    +0.000 A 
ATOM     33  H   UNL     1       7.513   9.150  16.421  0.00  0.00    +0.000 HD
ATOM     34  H   UNL     1       8.808   8.975  17.576  0.00  0.00    +0.000 HD
ATOM     35  H   UNL     1       8.726   5.864  20.533  0.00  0.00    +0.000 HD
ATOM     36  H   UNL     1       7.332   5.043  21.011  0.00  0.00    +0.000 HD
BRANCH  32  37
ATOM     37  C   UNL     1       5.579   4.165  19.041  0.00  0.00    +0.000 C 
ATOM     38  N   UNL     1       5.137   3.162  19.412  0.00  0.00    +0.000 NA
ENDBRANCH  32  37
ENDBRANCH  23  25
ENDBRANCH   1  23
TORSDOF 6
ENDMDL
MODEL 4
REMARK VINA RESULT:      -7.2      3.544      7.901
REMARK  Name = 
REMARK  7 active torsions:
REMARK  status: ('A' for Active; 'I' for Inactive)
REMARK    1  A    between atoms: C_1  and  C_2
REMARK    2  A    between atoms: C_2  and  C_3
REMARK    3  A    between atoms: C_3  and  N_4
REMARK    4  A    between atoms: C_3  and  C_15
REMARK    5  A    between atoms: N_4  and  C_5
REMARK    6  A    between atoms: C_12  and  C_13
REMARK    7  A    between atoms: N_27  and  C_28
REMARK                            x       y       z     vdW  Elec       q    Type
REMARK                         _______ _______ _______ _____ _____    ______ ____
ROOT
ATOM      1  C   UNL     1       3.120   5.681  18.011  0.00  0.00    +0.000 C 
ENDROOT
BRANCH   1   2
ATOM      2  C   UNL     1       2.433   6.807  18.850  0.00  0.00    +0.000 A 
ATOM      3  N   UNL     1       2.424   8.005  18.355  0.00  0.00    +0.000 NA
ATOM      4  C   UNL     1       1.788   9.050  19.021  0.00  0.00    +0.000 A 
ATOM      5  C   UNL     1       1.839  10.327  18.446  0.00  0.00    +0.000 A 
ATOM      6  F   UNL     1       2.497  10.521  17.291  0.00  0.00    +0.000 F 
ATOM      7  C   UNL     1       1.219  11.418  19.039  0.00  0.00    +0.000 A 
ATOM      8  C   UNL     1       0.538  11.237  20.238  0.00  0.00    +0.000 A 
ATOM      9  C   UNL     1       0.473   9.967  20.833  0.00  0.00    +0.000 A 
ATOM     10 CL   UNL     1      -0.391   9.897  22.328  0.00  0.00    +0.000 Cl
ATOM     11  C   UNL     1       1.093   8.863  20.217  0.00  0.00    +0.000 A 
ATOM     12  C   UNL     1       1.059   7.476  20.745  0.00  0.00    +0.000 A 
ATOM     13  O   UNL     1       0.402   7.224  21.751  0.00  0.00    +0.000 OA
ATOM     14  N   UNL     1       1.799   6.504  20.051  0.00  0.00    +0.000 N 
BRANCH  14  15
ATOM     15  C   UNL     1       1.753   5.171  20.560  0.00  0.00    +0.000 A 
ATOM     16  C   UNL     1       0.744   4.286  20.172  0.00  0.00    +0.000 A 
ATOM     17  C   UNL     1       0.755   2.973  20.644  0.00  0.00    +0.000 A 
ATOM     18  C   UNL     1       1.771   2.589  21.503  0.00  0.00    +0.000 A 
ATOM     19  N   UNL     1       2.739   3.423  21.930  0.00  0.00    +0.000 NA
ATOM     20  C   UNL     1       2.696   4.694  21.465  0.00  0.00    +0.000 A 
ENDBRANCH  14  15
ENDBRANCH   1   2
BRANCH   1  22
ATOM     21  C   UNL     1       2.632   3.276  17.325  0.00  0.00    +0.000 C 
ATOM     22  C   UNL     1       2.128   4.720  17.334  0.00  0.00    +0.000 C 
ENDBRANCH   1  22
BRANCH   1  23
ATOM     23  N   UNL     1       4.120   6.219  17.056  0.00  0.00    +0.000 N 
ATOM     24  H   UNL     1       4.352   7.197  17.225  0.00  0.00    +0.000 HD
BRANCH  23  25
ATOM     25  C   UNL     1       5.218   5.479  16.615  0.00  0.00    +0.000 A 
ATOM     26  N   UNL     1       5.365   5.272  15.300  0.00  0.00    +0.000 NA
ATOM     27  C   UNL     1       6.465   4.653  14.870  0.00  0.00    +0.000 A 
ATOM     28  N   UNL     1       6.517   4.299  13.544  0.00  0.00    +0.000 N 
ATOM     29  N   UNL     1       7.501   4.337  15.645  0.00  0.00    +0.000 NA
ATOM     30  C   UNL     1       7.352   4.534  16.963  0.00  0.00    +0.000 A 
ATOM     31  N   UNL     1       8.444   4.142  17.741  0.00  0.00    +0.000 N 
ATOM     32  C   UNL     1       6.179   5.030  17.511  0.00  0.00    +0.000 A 
ATOM     33  H   UNL     1       5.869   4.836  12.981  0.00  0.00    +0.000 HD
ATOM     34  H   UNL     1       7.453   4.142  13.210  0.00  0.00    +0.000 HD
ATOM     35  H   UNL     1       9.211   3.895  17.119  0.00  0.00    +0.000 HD
ATOM     36  H   UNL     1       8.725   4.824  18.440  0.00  0.00    +0.000 HD
BRANCH  32  37
ATOM     37  C   UNL     1       6.003   5.102  18.927  0.00  0.00    +0.000 C 
ATOM     38  N   UNL     1       5.875   5.178  20.075  0.00  0.00    +0.000 NA
ENDBRANCH  32  37
ENDBRANCH  23  25
ENDBRANCH   1  23
TORSDOF 6
ENDMDL
MODEL 5
REMARK VINA RESULT:      -7.0      4.936      7.231
REMARK  Name = 
REMARK  7 active torsions:
REMARK  status: ('A' for Active; 'I' for Inactive)
REMARK    1  A    between atoms: C_1  and  C_2
REMARK    2  A    between atoms: C_2  and  C_3
REMARK    3  A    between atoms: C_3  and  N_4
REMARK    4  A    between atoms: C_3  and  C_15
REMARK    5  A    between atoms: N_4  and  C_5
REMARK    6  A    between atoms: C_12  and  C_13
REMARK    7  A    between atoms: N_27  and  C_28
REMARK                            x       y       z     vdW  Elec       q    Type
REMARK                         _______ _______ _______ _____ _____    ______ ____
ROOT
ATOM      1  C   UNL     1      -0.790  11.927  21.937  0.00  0.00    +0.000 C 
ENDROOT
BRANCH   1   2
ATOM      2  C   UNL     1      -1.728  11.890  20.687  0.00  0.00    +0.000 A 
ATOM      3  N   UNL     1      -1.377  11.135  19.694  0.00  0.00    +0.000 NA
ATOM      4  C   UNL     1      -2.186  11.012  18.567  0.00  0.00    +0.000 A 
ATOM      5  C   UNL     1      -1.735  10.202  17.515  0.00  0.00    +0.000 A 
ATOM      6  F   UNL     1      -0.548   9.580  17.605  0.00  0.00    +0.000 F 
ATOM      7  C   UNL     1      -2.488  10.017  16.365  0.00  0.00    +0.000 A 
ATOM      8  C   UNL     1      -3.716  10.658  16.252  0.00  0.00    +0.000 A 
ATOM      9  C   UNL     1      -4.190  11.474  17.292  0.00  0.00    +0.000 A 
ATOM     10 CL   UNL     1      -5.722  12.220  17.005  0.00  0.00    +0.000 Cl
ATOM     11  C   UNL     1      -3.425  11.645  18.462  0.00  0.00    +0.000 A 
ATOM     12  C   UNL     1      -3.846  12.460  19.630  0.00  0.00    +0.000 A 
ATOM     13  O   UNL     1      -4.956  12.983  19.639  0.00  0.00    +0.000 OA
ATOM     14  N   UNL     1      -2.928  12.594  20.686  0.00  0.00    +0.000 N 
BRANCH  14  15
ATOM     15  C   UNL     1      -3.344  13.371  21.808  0.00  0.00    +0.000 A 
ATOM     16  C   UNL     1      -2.981  14.716  21.929  0.00  0.00    +0.000 A 
ATOM     17  C   UNL     1      -3.447  15.465  23.009  0.00  0.00    +0.000 A 
ATOM     18  C   UNL     1      -4.253  14.841  23.946  0.00  0.00    +0.000 A 
ATOM     19  N   UNL     1      -4.593  13.538  23.886  0.00  0.00    +0.000 NA
ATOM     20  C   UNL     1      -4.115  12.833  22.833  0.00  0.00    +0.000 A 
ENDBRANCH  14  15
ENDBRANCH   1   2
BRANCH   1  22
ATOM     21  C   UNL     1      -0.093   9.687  22.932  0.00  0.00    +0.000 C 
ATOM     22  C   UNL     1      -1.101  10.838  22.977  0.00  0.00    +0.000 C 
ENDBRANCH   1  22
BRANCH   1  23
ATOM     23  N   UNL     1       0.646  11.952  21.564  0.00  0.00    +0.000 N 
ATOM     24  H   UNL     1       1.065  11.025  21.513  0.00  0.00    +0.000 HD
BRANCH  23  25
ATOM     25  C   UNL     1       1.162  12.823  20.602  0.00  0.00    +0.000 A 
ATOM     26  N   UNL     1       1.642  12.309  19.463  0.00  0.00    +0.000 NA
ATOM     27  C   UNL     1       2.042  13.145  18.505  0.00  0.00    +0.000 A 
ATOM     28  N   UNL     1       2.687  12.604  17.419  0.00  0.00    +0.000 N 
ATOM     29  N   UNL     1       1.878  14.466  18.542  0.00  0.00    +0.000 NA
ATOM     30  C   UNL     1       1.406  14.983  19.685  0.00  0.00    +0.000 A 
ATOM     31  N   UNL     1       1.297  16.376  19.697  0.00  0.00    +0.000 N 
ATOM     32  C   UNL     1       1.111  14.198  20.789  0.00  0.00    +0.000 A 
ATOM     33  H   UNL     1       2.492  11.615  17.314  0.00  0.00    +0.000 HD
ATOM     34  H   UNL     1       2.674  13.201  16.609  0.00  0.00    +0.000 HD
ATOM     35  H   UNL     1       1.483  16.722  18.758  0.00  0.00    +0.000 HD
ATOM     36  H   UNL     1       0.415  16.723  20.063  0.00  0.00    +0.000 HD
BRANCH  32  37
ATOM     37  C   UNL     1       0.740  14.792  22.035  0.00  0.00    +0.000 C 
ATOM     38  N   UNL     1       0.459  15.286  23.044  0.00  0.00    +0.000 NA
ENDBRANCH  32  37
ENDBRANCH  23  25
ENDBRANCH   1  23
TORSDOF 6
ENDMDL
MODEL 6
REMARK VINA RESULT:      -6.9      4.024      6.271
REMARK  Name = 
REMARK  7 active torsions:
REMARK  status: ('A' for Active; 'I' for Inactive)
REMARK    1  A    between atoms: C_1  and  C_2
REMARK    2  A    between atoms: C_2  and  C_3
REMARK    3  A    between atoms: C_3  and  N_4
REMARK    4  A    between atoms: C_3  and  C_15
REMARK    5  A    between atoms: N_4  and  C_5
REMARK    6  A    between atoms: C_12  and  C_13
REMARK    7  A    between atoms: N_27  and  C_28
REMARK                            x       y       z     vdW  Elec       q    Type
REMARK                         _______ _______ _______ _____ _____    ______ ____
ROOT
ATOM      1  C   UNL     1      -3.650  14.207  20.778  0.00  0.00    +0.000 C 
ENDROOT
BRANCH   1   2
ATOM      2  C   UNL     1      -2.597  13.052  20.830  0.00  0.00    +0.000 A 
ATOM      3  N   UNL     1      -2.213  12.538  19.704  0.00  0.00    +0.000 NA
ATOM      4  C   UNL     1      -1.242  11.540  19.667  0.00  0.00    +0.000 A 
ATOM      5  C   UNL     1      -0.891  11.005  18.420  0.00  0.00    +0.000 A 
ATOM      6  F   UNL     1      -1.494  11.447  17.304  0.00  0.00    +0.000 F 
ATOM      7  C   UNL     1       0.076  10.018  18.297  0.00  0.00    +0.000 A 
ATOM      8  C   UNL     1       0.706   9.545  19.442  0.00  0.00    +0.000 A 
ATOM      9  C   UNL     1       0.372  10.065  20.703  0.00  0.00    +0.000 A 
ATOM     10 CL   UNL     1       1.223   9.369  22.036  0.00  0.00    +0.000 Cl
ATOM     11  C   UNL     1      -0.601  11.076  20.817  0.00  0.00    +0.000 A 
ATOM     12  C   UNL     1      -1.006  11.714  22.095  0.00  0.00    +0.000 A 
ATOM     13  O   UNL     1      -0.430  11.410  23.136  0.00  0.00    +0.000 OA
ATOM     14  N   UNL     1      -2.052  12.651  22.045  0.00  0.00    +0.000 N 
BRANCH  14  15
ATOM     15  C   UNL     1      -2.428  13.266  23.277  0.00  0.00    +0.000 A 
ATOM     16  C   UNL     1      -3.544  12.823  23.992  0.00  0.00    +0.000 A 
ATOM     17  C   UNL     1      -3.857  13.407  25.220  0.00  0.00    +0.000 A 
ATOM     18  C   UNL     1      -3.048  14.428  25.690  0.00  0.00    +0.000 A 
ATOM     19  N   UNL     1      -1.987  14.908  25.012  0.00  0.00    +0.000 NA
ATOM     20  C   UNL     1      -1.716  14.331  23.817  0.00  0.00    +0.000 A 
ENDBRANCH  14  15
ENDBRANCH   1   2
BRANCH   1  22
ATOM     21  C   UNL     1      -3.235  16.654  21.354  0.00  0.00    +0.000 C 
ATOM     22  C   UNL     1      -3.071  15.552  20.306  0.00  0.00    +0.000 C 
ENDBRANCH   1  22
BRANCH   1  23
ATOM     23  N   UNL     1      -4.868  13.826  20.023  0.00  0.00    +0.000 N 
ATOM     24  H   UNL     1      -4.756  13.899  19.012  0.00  0.00    +0.000 HD
BRANCH  23  25
ATOM     25  C   UNL     1      -5.681  12.751  20.391  0.00  0.00    +0.000 A 
ATOM     26  N   UNL     1      -6.259  12.769  21.599  0.00  0.00    +0.000 NA
ATOM     27  C   UNL     1      -7.113  11.795  21.912  0.00  0.00    +0.000 A 
ATOM     28  N   UNL     1      -7.561  11.736  23.209  0.00  0.00    +0.000 N 
ATOM     29  N   UNL     1      -7.539  10.865  21.058  0.00  0.00    +0.000 NA
ATOM     30  C   UNL     1      -6.954  10.840  19.852  0.00  0.00    +0.000 A 
ATOM     31  N   UNL     1      -7.397   9.818  19.008  0.00  0.00    +0.000 N 
ATOM     32  C   UNL     1      -5.945  11.721  19.498  0.00  0.00    +0.000 A 
ATOM     33  H   UNL     1      -7.456  12.621  23.689  0.00  0.00    +0.000 HD
ATOM     34  H   UNL     1      -8.416  11.215  23.312  0.00  0.00    +0.000 HD
ATOM     35  H   UNL     1      -8.193   9.360  19.446  0.00  0.00    +0.000 HD
ATOM     36  H   UNL     1      -7.605  10.120  18.060  0.00  0.00    +0.000 HD
BRANCH  32  37
ATOM     37  C   UNL     1      -5.249  11.582  18.257  0.00  0.00    +0.000 C 
ATOM     38  N   UNL     1      -4.665  11.468  17.264  0.00  0.00    +0.000 NA
ENDBRANCH  32  37
ENDBRANCH  23  25
ENDBRANCH   1  23
TORSDOF 6
ENDMDL
MODEL 7
REMARK VINA RESULT:      -6.9      4.921      6.975
REMARK  Name = 
REMARK  7 active torsions:
REMARK  status: ('A' for Active; 'I' for Inactive)
REMARK    1  A    between atoms: C_1  and  C_2
REMARK    2  A    between atoms: C_2  and  C_3
REMARK    3  A    between atoms: C_3  and  N_4
REMARK    4  A    between atoms: C_3  and  C_15
REMARK    5  A    between atoms: N_4  and  C_5
REMARK    6  A    between atoms: C_12  and  C_13
REMARK    7  A    between atoms: N_27  and  C_28
REMARK                            x       y       z     vdW  Elec       q    Type
REMARK                         _______ _______ _______ _____ _____    ______ ____
ROOT
ATOM      1  C   UNL     1      -0.233  11.671  21.468  0.00  0.00    +0.000 C 
ENDROOT
BRANCH   1   2
ATOM      2  C   UNL     1      -1.327  11.696  20.352  0.00  0.00    +0.000 A 
ATOM      3  N   UNL     1      -1.129  10.967  19.299  0.00  0.00    +0.000 NA
ATOM      4  C   UNL     1      -2.082  10.899  18.285  0.00  0.00    +0.000 A 
ATOM      5  C   UNL     1      -1.794  10.115  17.159  0.00  0.00    +0.000 A 
ATOM      6  F   UNL     1      -0.623   9.463  17.075  0.00  0.00    +0.000 F 
ATOM      7  C   UNL     1      -2.695   9.985  16.113  0.00  0.00    +0.000 A 
ATOM      8  C   UNL     1      -3.910  10.657  16.182  0.00  0.00    +0.000 A 
ATOM      9  C   UNL     1      -4.222  11.449  17.299  0.00  0.00    +0.000 A 
ATOM     10 CL   UNL     1      -5.757  12.238  17.237  0.00  0.00    +0.000 Cl
ATOM     11  C   UNL     1      -3.306  11.564  18.363  0.00  0.00    +0.000 A 
ATOM     12  C   UNL     1      -3.549  12.349  19.599  0.00  0.00    +0.000 A 
ATOM     13  O   UNL     1      -4.634  12.896  19.769  0.00  0.00    +0.000 OA
ATOM     14  N   UNL     1      -2.498  12.427  20.529  0.00  0.00    +0.000 N 
BRANCH  14  15
ATOM     15  C   UNL     1      -2.742  13.176  21.719  0.00  0.00    +0.000 A 
ATOM     16  C   UNL     1      -3.233  12.557  22.872  0.00  0.00    +0.000 A 
ATOM     17  C   UNL     1      -3.412  13.303  24.037  0.00  0.00    +0.000 A 
ATOM     18  C   UNL     1      -3.106  14.654  24.009  0.00  0.00    +0.000 A 
ATOM     19  N   UNL     1      -2.667  15.294  22.907  0.00  0.00    +0.000 NA
ATOM     20  C   UNL     1      -2.515  14.547  21.788  0.00  0.00    +0.000 A 
ENDBRANCH  14  15
ENDBRANCH   1   2
BRANCH   1  22
ATOM     21  C   UNL     1      -0.751   9.958  23.282  0.00  0.00    +0.000 C 
ATOM     22  C   UNL     1       0.057  10.265  22.019  0.00  0.00    +0.000 C 
ENDBRANCH   1  22
BRANCH   1  23
ATOM     23  N   UNL     1       1.004  12.380  21.061  0.00  0.00    +0.000 N 
ATOM     24  H   UNL     1       1.432  11.994  20.220  0.00  0.00    +0.000 HD
BRANCH  23  25
ATOM     25  C   UNL     1       1.141  13.768  21.138  0.00  0.00    +0.000 A 
ATOM     26  N   UNL     1       0.735  14.391  22.251  0.00  0.00    +0.000 NA
ATOM     27  C   UNL     1       0.956  15.701  22.366  0.00  0.00    +0.000 A 
ATOM     28  N   UNL     1       0.383  16.350  23.432  0.00  0.00    +0.000 N 
ATOM     29  N   UNL     1       1.675  16.420  21.506  0.00  0.00    +0.000 NA
ATOM     30  C   UNL     1       2.075  15.800  20.386  0.00  0.00    +0.000 A 
ATOM     31  N   UNL     1       2.782  16.606  19.491  0.00  0.00    +0.000 N 
ATOM     32  C   UNL     1       1.753  14.479  20.115  0.00  0.00    +0.000 A 
ATOM     33  H   UNL     1       0.139  15.713  24.180  0.00  0.00    +0.000 HD
ATOM     34  H   UNL     1       0.829  17.225  23.652  0.00  0.00    +0.000 HD
ATOM     35  H   UNL     1       2.970  17.500  19.940  0.00  0.00    +0.000 HD
ATOM     36  H   UNL     1       3.628  16.179  19.123  0.00  0.00    +0.000 HD
BRANCH  32  37
ATOM     37  C   UNL     1       2.077  13.889  18.854  0.00  0.00    +0.000 C 
ATOM     38  N   UNL     1       2.316  13.407  17.829  0.00  0.00    +0.000 NA
ENDBRANCH  32  37
ENDBRANCH  23  25
ENDBRANCH   1  23
TORSDOF 6
ENDMDL
MODEL 8
REMARK VINA RESULT:      -6.8      4.842      7.072
REMARK  Name = 
REMARK  7 active torsions:
REMARK  status: ('A' for Active; 'I' for Inactive)
REMARK    1  A    between atoms: C_1  and  C_2
REMARK    2  A    between atoms: C_2  and  C_3
REMARK    3  A    between atoms: C_3  and  N_4
REMARK    4  A    between atoms: C_3  and  C_15
REMARK    5  A    between atoms: N_4  and  C_5
REMARK    6  A    between atoms: C_12  and  C_13
REMARK    7  A    between atoms: N_27  and  C_28
REMARK                            x       y       z     vdW  Elec       q    Type
REMARK                         _______ _______ _______ _____ _____    ______ ____
ROOT
ATOM      1  C   UNL     1      -0.490  11.673  21.701  0.00  0.00    +0.000 C 
ENDROOT
BRANCH   1   2
ATOM      2  C   UNL     1      -1.516  11.716  20.522  0.00  0.00    +0.000 A 
ATOM      3  N   UNL     1      -1.259  10.999  19.474  0.00  0.00    +0.000 NA
ATOM      4  C   UNL     1      -2.150  10.948  18.404  0.00  0.00    +0.000 A 
ATOM      5  C   UNL     1      -1.799  10.177  17.288  0.00  0.00    +0.000 A 
ATOM      6  F   UNL     1      -0.626   9.522  17.263  0.00  0.00    +0.000 F 
ATOM      7  C   UNL     1      -2.638  10.063  16.189  0.00  0.00    +0.000 A 
ATOM      8  C   UNL     1      -3.852  10.739  16.195  0.00  0.00    +0.000 A 
ATOM      9  C   UNL     1      -4.227  11.517  17.302  0.00  0.00    +0.000 A 
ATOM     10 CL   UNL     1      -5.755  12.313  17.161  0.00  0.00    +0.000 Cl
ATOM     11  C   UNL     1      -3.375  11.616  18.419  0.00  0.00    +0.000 A 
ATOM     12  C   UNL     1      -3.688  12.386  19.649  0.00  0.00    +0.000 A 
ATOM     13  O   UNL     1      -4.780  12.934  19.762  0.00  0.00    +0.000 OA
ATOM     14  N   UNL     1      -2.693  12.449  20.640  0.00  0.00    +0.000 N 
BRANCH  14  15
ATOM     15  C   UNL     1      -3.006  13.183  21.823  0.00  0.00    +0.000 A 
ATOM     16  C   UNL     1      -3.521  12.543  22.954  0.00  0.00    +0.000 A 
ATOM     17  C   UNL     1      -3.766  13.276  24.114  0.00  0.00    +0.000 A 
ATOM     18  C   UNL     1      -3.500  14.636  24.104  0.00  0.00    +0.000 A 
ATOM     19  N   UNL     1      -3.039  15.296  23.023  0.00  0.00    +0.000 NA
ATOM     20  C   UNL     1      -2.823  14.559  21.907  0.00  0.00    +0.000 A 
ENDBRANCH  14  15
ENDBRANCH   1   2
BRANCH   1  22
ATOM     21  C   UNL     1      -0.131   9.519  23.013  0.00  0.00    +0.000 C 
ATOM     22  C   UNL     1       0.286  10.348  21.797  0.00  0.00    +0.000 C 
ENDBRANCH   1  22
BRANCH   1  23
ATOM     23  N   UNL     1       0.410  12.852  21.707  0.00  0.00    +0.000 N 
ATOM     24  H   UNL     1       1.030  12.881  22.516  0.00  0.00    +0.000 HD
BRANCH  23  25
ATOM     25  C   UNL     1       1.019  13.345  20.551  0.00  0.00    +0.000 A 
ATOM     26  N   UNL     1       1.530  12.472  19.674  0.00  0.00    +0.000 NA
ATOM     27  C   UNL     1       2.021  12.936  18.524  0.00  0.00    +0.000 A 
ATOM     28  N   UNL     1       2.692  12.050  17.717  0.00  0.00    +0.000 N 
ATOM     29  N   UNL     1       1.923  14.201  18.122  0.00  0.00    +0.000 NA
ATOM     30  C   UNL     1       1.421  15.078  19.002  0.00  0.00    +0.000 A 
ATOM     31  N   UNL     1       1.383  16.402  18.555  0.00  0.00    +0.000 N 
ATOM     32  C   UNL     1       1.029  14.706  20.279  0.00  0.00    +0.000 A 
ATOM     33  H   UNL     1       2.453  11.088  17.925  0.00  0.00    +0.000 HD
ATOM     34  H   UNL     1       2.751  12.350  16.759  0.00  0.00    +0.000 HD
ATOM     35  H   UNL     1       1.635  16.416  17.569  0.00  0.00    +0.000 HD
ATOM     36  H   UNL     1       0.502  16.877  18.731  0.00  0.00    +0.000 HD
BRANCH  32  37
ATOM     37  C   UNL     1       0.626  15.685  21.238  0.00  0.00    +0.000 C 
ATOM     38  N   UNL     1       0.300  16.496  21.998  0.00  0.00    +0.000 NA
ENDBRANCH  32  37
ENDBRANCH  23  25
ENDBRANCH   1  23
TORSDOF 6
ENDMDL
MODEL 9
REMARK VINA RESULT:      -6.6      4.485      8.512
REMARK  Name = 
REMARK  7 active torsions:
REMARK  status: ('A' for Active; 'I' for Inactive)
REMARK    1  A    between atoms: C_1  and  C_2
REMARK    2  A    between atoms: C_2  and  C_3
REMARK    3  A    between atoms: C_3  and  N_4
REMARK    4  A    between atoms: C_3  and  C_15
REMARK    5  A    between atoms: N_4  and  C_5
REMARK    6  A    between atoms: C_12  and  C_13
REMARK    7  A    between atoms: N_27  and  C_28
REMARK                            x       y       z     vdW  Elec       q    Type
REMARK                         _______ _______ _______ _____ _____    ______ ____
ROOT
ATOM      1  C   UNL     1      -1.092  12.781  19.385  0.00  0.00    +0.000 C 
ENDROOT
BRANCH   1   2
ATOM      2  C   UNL     1      -2.528  12.675  19.996  0.00  0.00    +0.000 A 
ATOM      3  N   UNL     1      -2.765  13.326  21.091  0.00  0.00    +0.000 NA
ATOM      4  C   UNL     1      -4.033  13.320  21.667  0.00  0.00    +0.000 A 
ATOM      5  C   UNL     1      -4.217  14.020  22.868  0.00  0.00    +0.000 A 
ATOM      6  F   UNL     1      -3.184  14.664  23.436  0.00  0.00    +0.000 F 
ATOM      7  C   UNL     1      -5.451  14.074  23.497  0.00  0.00    +0.000 A 
ATOM      8  C   UNL     1      -6.530  13.409  22.925  0.00  0.00    +0.000 A 
ATOM      9  C   UNL     1      -6.371  12.701  21.723  0.00  0.00    +0.000 A 
ATOM     10 CL   UNL     1      -7.793  11.910  21.141  0.00  0.00    +0.000 Cl
ATOM     11  C   UNL     1      -5.117  12.663  21.084  0.00  0.00    +0.000 A 
ATOM     12  C   UNL     1      -4.850  11.970  19.798  0.00  0.00    +0.000 A 
ATOM     13  O   UNL     1      -5.773  11.437  19.191  0.00  0.00    +0.000 OA
ATOM     14  N   UNL     1      -3.522  11.959  19.337  0.00  0.00    +0.000 N 
BRANCH  14  15
ATOM     15  C   UNL     1      -3.275  11.299  18.096  0.00  0.00    +0.000 A 
ATOM     16  C   UNL     1      -2.393  10.218  18.017  0.00  0.00    +0.000 A 
ATOM     17  C   UNL     1      -2.212   9.558  16.802  0.00  0.00    +0.000 A 
ATOM     18  C   UNL     1      -2.912  10.009  15.695  0.00  0.00    +0.000 A 
ATOM     19  N   UNL     1      -3.742  11.071  15.722  0.00  0.00    +0.000 NA
ATOM     20  C   UNL     1      -3.888  11.700  16.913  0.00  0.00    +0.000 A 
ENDBRANCH  14  15
ENDBRANCH   1   2
BRANCH   1  22
ATOM     21  C   UNL     1       0.805  14.381  18.808  0.00  0.00    +0.000 C 
ATOM     22  C   UNL     1      -0.709  14.206  18.950  0.00  0.00    +0.000 C 
ENDBRANCH   1  22
BRANCH   1  23
ATOM     23  N   UNL     1      -0.062  12.164  20.256  0.00  0.00    +0.000 N 
ATOM     24  H   UNL     1      -0.198  12.367  21.246  0.00  0.00    +0.000 HD
BRANCH  23  25
ATOM     25  C   UNL     1       0.440  10.880  20.040  0.00  0.00    +0.000 A 
ATOM     26  N   UNL     1       0.948  10.584  18.836  0.00  0.00    +0.000 NA
ATOM     27  C   UNL     1       1.518   9.392  18.659  0.00  0.00    +0.000 A 
ATOM     28  N   UNL     1       1.877   9.044  17.380  0.00  0.00    +0.000 N 
ATOM     29  N   UNL     1       1.740   8.513  19.635  0.00  0.00    +0.000 NA
ATOM     30  C   UNL     1       1.225   8.803  20.838  0.00  0.00    +0.000 A 
ATOM     31  N   UNL     1       1.440   7.830  21.817  0.00  0.00    +0.000 N 
ATOM     32  C   UNL     1       0.483   9.950  21.070  0.00  0.00    +0.000 A 
ATOM     33  H   UNL     1       1.972   9.852  16.777  0.00  0.00    +0.000 HD
ATOM     34  H   UNL     1       2.571   8.316  17.345  0.00  0.00    +0.000 HD
ATOM     35  H   UNL     1       2.077   7.130  21.442  0.00  0.00    +0.000 HD
ATOM     36  H   UNL     1       1.760   8.197  22.709  0.00  0.00    +0.000 HD
BRANCH  32  37
ATOM     37  C   UNL     1      -0.167  10.163  22.325  0.00  0.00    +0.000 C 
ATOM     38  N   UNL     1      -0.678  10.320  23.352  0.00  0.00    +0.000 NA
ENDBRANCH  32  37
ENDBRANCH  23  25
ENDBRANCH   1  23
TORSDOF 6
ENDMDL
