MODEL 1
REMARK VINA RESULT:      -8.7      0.000      0.000
REMARK  Name = 
REMARK  5 active torsions:
REMARK  status: ('A' for Active; 'I' for Inactive)
REMARK    1  A    between atoms: C_1  and  C_2
REMARK    2  A    between atoms: C_2  and  C_3
REMARK    3  A    between atoms: C_6  and  C_7
REMARK    4  A    between atoms: N_15  and  C_16
REMARK    5  A    between atoms: C_19  and  C_20
REMARK                            x       y       z     vdW  Elec       q    Type
REMARK                         _______ _______ _______ _____ _____    ______ ____
ROOT
ATOM      1  C   UNL     1       4.191   3.653  18.801  0.00  0.00    +0.000 C 
ATOM      2  C   UNL     1       3.931   2.395  17.925  0.00  0.00    +0.000 C 
ATOM      3  O   UNL     1       3.327   1.321  18.661  0.00  0.00    +0.000 OA
ATOM      4  C   UNL     1       2.079   1.744  19.222  0.00  0.00    +0.000 C 
ATOM      5  C   UNL     1       2.297   2.915  20.177  0.00  0.00    +0.000 C 
ATOM      6  N   UNL     1       2.913   4.059  19.476  0.00  0.00    +0.000 N 
ATOM      7  C   UNL     1       2.309   5.293  19.708  0.00  0.00    +0.000 C 
ATOM      8  O   UNL     1       1.305   5.365  20.419  0.00  0.00    +0.000 OA
ATOM      9  N   UNL     1       2.804   6.377  19.048  0.00  0.00    +0.000 N 
ATOM     10  H   UNL     1       3.624   6.251  18.492  0.00  0.00    +0.000 HD
ENDROOT
BRANCH   9  11
ATOM     11  C   UNL     1       2.283   7.687  19.009  0.00  0.00    +0.000 A 
ATOM     12  C   UNL     1       2.356   8.525  17.902  0.00  0.00    +0.000 A 
ATOM     13  C   UNL     1       1.787   9.801  17.948  0.00  0.00    +0.000 A 
ATOM     14  C   UNL     1       1.162  10.277  19.112  0.00  0.00    +0.000 A 
ATOM     15  C   UNL     1       1.098   9.439  20.230  0.00  0.00    +0.000 A 
ATOM     16 CL   UNL     1       0.343   9.875  21.724  0.00  0.00    +0.000 Cl
ATOM     17  C   UNL     1       1.645   8.150  20.167  0.00  0.00    +0.000 A 
BRANCH  14  18
ATOM     18  C   UNL     1       0.593  11.647  19.031  0.00  0.00    +0.000 C 
ATOM     19  N   UNL     1      -0.454  11.870  18.186  0.00  0.00    +0.000 N 
ATOM     20  O   UNL     1       1.026  12.553  19.732  0.00  0.00    +0.000 OA
ATOM     21  H   UNL     1      -0.804  11.175  17.542  0.00  0.00    +0.000 HD
ATOM     22  H   UNL     1      -0.801  12.817  18.116  0.00  0.00    +0.000 HD
ENDBRANCH  14  18
ENDBRANCH   9  11
BRANCH   1  26
ATOM     23  C   UNL     1       6.467   6.214  17.728  0.00  0.00    +0.000 A 
ATOM     24  C   UNL     1       5.666   6.283  16.609  0.00  0.00    +0.000 A 
ATOM     25  C   UNL     1       4.659   5.299  16.773  0.00  0.00    +0.000 A 
ATOM     26  C   UNL     1       4.893   4.692  17.994  0.00  0.00    +0.000 A 
ATOM     27  O   UNL     1       5.994   5.256  18.574  0.00  0.00    +0.000 OA
BRANCH  23  29
ATOM     28  C   UNL     1       7.739   8.353  17.577  0.00  0.00    +0.000 C 
ATOM     29  C   UNL     1       7.675   6.955  18.173  0.00  0.00    +0.000 C 
ENDBRANCH  23  29
ENDBRANCH   1  26
TORSDOF 4
ENDMDL
MODEL 2
REMARK VINA RESULT:      -8.3      0.786      1.465
REMARK  Name = 
REMARK  5 active torsions:
REMARK  status: ('A' for Active; 'I' for Inactive)
REMARK    1  A    between atoms: C_1  and  C_2
REMARK    2  A    between atoms: C_2  and  C_3
REMARK    3  A    between atoms: C_6  and  C_7
REMARK    4  A    between atoms: N_15  and  C_16
REMARK    5  A    between atoms: C_19  and  C_20
REMARK                            x       y       z     vdW  Elec       q    Type
REMARK                         _______ _______ _______ _____ _____    ______ ____
ROOT
ATOM      1  C   UNL     1       4.095   3.557  19.294  0.00  0.00    +0.000 C 
ATOM      2  C   UNL     1       3.981   2.304  18.380  0.00  0.00    +0.000 C 
ATOM      3  O   UNL     1       3.249   1.234  18.997  0.00  0.00    +0.000 OA
ATOM      4  C   UNL     1       1.926   1.666  19.335  0.00  0.00    +0.000 C 
ATOM      5  C   UNL     1       1.986   2.833  20.319  0.00  0.00    +0.000 C 
ATOM      6  N   UNL     1       2.723   3.974  19.740  0.00  0.00    +0.000 N 
ATOM      7  C   UNL     1       2.099   5.211  19.871  0.00  0.00    +0.000 C 
ATOM      8  O   UNL     1       0.988   5.291  20.397  0.00  0.00    +0.000 OA
ATOM      9  N   UNL     1       2.710   6.293  19.311  0.00  0.00    +0.000 N 
ATOM     10  H   UNL     1       3.612   6.162  18.904  0.00  0.00    +0.000 HD
ENDROOT
BRANCH   9  11
ATOM     11  C   UNL     1       2.215   7.608  19.189  0.00  0.00    +0.000 A 
ATOM     12  C   UNL     1       2.311   8.376  18.033  0.00  0.00    +0.000 A 
ATOM     13  C   UNL     1       1.766   9.663  17.998  0.00  0.00    +0.000 A 
ATOM     14  C   UNL     1       1.143  10.220  19.127  0.00  0.00    +0.000 A 
ATOM     15  C   UNL     1       1.056   9.453  20.292  0.00  0.00    +0.000 A 
ATOM     16 CL   UNL     1       0.300   9.993  21.752  0.00  0.00    +0.000 Cl
ATOM     17  C   UNL     1       1.579   8.153  20.312  0.00  0.00    +0.000 A 
BRANCH  14  18
ATOM     18  C   UNL     1       0.601  11.593  18.958  0.00  0.00    +0.000 C 
ATOM     19  N   UNL     1      -0.430  11.785  18.088  0.00  0.00    +0.000 N 
ATOM     20  O   UNL     1       1.042  12.531  19.612  0.00  0.00    +0.000 OA
ATOM     21  H   UNL     1      -0.785  11.061  17.480  0.00  0.00    +0.000 HD
ATOM     22  H   UNL     1      -0.758  12.733  17.958  0.00  0.00    +0.000 HD
ENDBRANCH  14  18
ENDBRANCH   9  11
BRANCH   1  26
ATOM     23  C   UNL     1       5.599   5.703  16.839  0.00  0.00    +0.000 A 
ATOM     24  C   UNL     1       6.405   6.117  17.877  0.00  0.00    +0.000 A 
ATOM     25  C   UNL     1       5.974   5.412  19.029  0.00  0.00    +0.000 A 
ATOM     26  C   UNL     1       4.935   4.593  18.625  0.00  0.00    +0.000 A 
ATOM     27  O   UNL     1       4.713   4.771  17.289  0.00  0.00    +0.000 OA
BRANCH  23  29
ATOM     28  C   UNL     1       5.591   4.813  14.510  0.00  0.00    +0.000 C 
ATOM     29  C   UNL     1       5.525   6.048  15.396  0.00  0.00    +0.000 C 
ENDBRANCH  23  29
ENDBRANCH   1  26
TORSDOF 4
ENDMDL
MODEL 3
REMARK VINA RESULT:      -8.2      2.129      4.327
REMARK  Name = 
REMARK  5 active torsions:
REMARK  status: ('A' for Active; 'I' for Inactive)
REMARK    1  A    between atoms: C_1  and  C_2
REMARK    2  A    between atoms: C_2  and  C_3
REMARK    3  A    between atoms: C_6  and  C_7
REMARK    4  A    between atoms: N_15  and  C_16
REMARK    5  A    between atoms: C_19  and  C_20
REMARK                            x       y       z     vdW  Elec       q    Type
REMARK                         _______ _______ _______ _____ _____    ______ ____
ROOT
ATOM      1  C   UNL     1       3.783   4.742  17.065  0.00  0.00    +0.000 C 
ATOM      2  C   UNL     1       5.083   3.904  17.226  0.00  0.00    +0.000 C 
ATOM      3  O   UNL     1       6.109   4.289  16.300  0.00  0.00    +0.000 OA
ATOM      4  C   UNL     1       6.442   5.672  16.473  0.00  0.00    +0.000 C 
ATOM      5  C   UNL     1       5.216   6.547  16.219  0.00  0.00    +0.000 C 
ATOM      6  N   UNL     1       4.121   6.203  17.148  0.00  0.00    +0.000 N 
ATOM      7  C   UNL     1       3.513   7.287  17.776  0.00  0.00    +0.000 C 
ATOM      8  O   UNL     1       3.926   8.430  17.574  0.00  0.00    +0.000 OA
ATOM      9  N   UNL     1       2.529   7.026  18.682  0.00  0.00    +0.000 N 
ATOM     10  H   UNL     1       2.236   6.078  18.795  0.00  0.00    +0.000 HD
ENDROOT
BRANCH   9  11
ATOM     11  C   UNL     1       1.870   7.932  19.538  0.00  0.00    +0.000 A 
ATOM     12  C   UNL     1       1.726   7.750  20.909  0.00  0.00    +0.000 A 
ATOM     13  C   UNL     1       1.078   8.718  21.683  0.00  0.00    +0.000 A 
ATOM     14  C   UNL     1       0.532   9.872  21.096  0.00  0.00    +0.000 A 
ATOM     15  C   UNL     1       0.667  10.050  19.716  0.00  0.00    +0.000 A 
ATOM     16 CL   UNL     1       0.069  11.428  18.856  0.00  0.00    +0.000 Cl
ATOM     17  C   UNL     1       1.343   9.090  18.951  0.00  0.00    +0.000 A 
BRANCH  14  18
ATOM     18  C   UNL     1      -0.126  10.824  22.027  0.00  0.00    +0.000 C 
ATOM     19  N   UNL     1      -1.014  10.337  22.939  0.00  0.00    +0.000 N 
ATOM     20  O   UNL     1       0.147  12.018  22.006  0.00  0.00    +0.000 OA
ATOM     21  H   UNL     1      -1.321   9.375  22.955  0.00  0.00    +0.000 HD
ATOM     22  H   UNL     1      -1.481  11.006  23.537  0.00  0.00    +0.000 HD
ENDBRANCH  14  18
ENDBRANCH   9  11
BRANCH   1  26
ATOM     23  C   UNL     1       2.030   3.677  20.012  0.00  0.00    +0.000 A 
ATOM     24  C   UNL     1       1.028   3.322  19.136  0.00  0.00    +0.000 A 
ATOM     25  C   UNL     1       1.475   3.686  17.841  0.00  0.00    +0.000 A 
ATOM     26  C   UNL     1       2.736   4.233  17.998  0.00  0.00    +0.000 A 
ATOM     27  O   UNL     1       3.072   4.222  19.322  0.00  0.00    +0.000 OA
BRANCH  23  29
ATOM     28  C   UNL     1       1.425   2.392  22.061  0.00  0.00    +0.000 C 
ATOM     29  C   UNL     1       2.191   3.573  21.485  0.00  0.00    +0.000 C 
ENDBRANCH  23  29
ENDBRANCH   1  26
TORSDOF 4
ENDMDL
MODEL 4
REMARK VINA RESULT:      -7.9      2.629      3.916
REMARK  Name = 
REMARK  5 active torsions:
REMARK  status: ('A' for Active; 'I' for Inactive)
REMARK    1  A    between atoms: C_1  and  C_2
REMARK    2  A    between atoms: C_2  and  C_3
REMARK    3  A    between atoms: C_6  and  C_7
REMARK    4  A    between atoms: N_15  and  C_16
REMARK    5  A    between atoms: C_19  and  C_20
REMARK                            x       y       z     vdW  Elec       q    Type
REMARK                         _______ _______ _______ _____ _____    ______ ____
ROOT
ATOM      1  C   UNL     1       6.727   4.563  16.219  0.00  0.00    +0.000 C 
ATOM      2  C   UNL     1       7.274   4.941  14.814  0.00  0.00    +0.000 C 
ATOM      3  O   UNL     1       6.909   3.990  13.803  0.00  0.00    +0.000 OA
ATOM      4  C   UNL     1       5.483   3.880  13.715  0.00  0.00    +0.000 C 
ATOM      5  C   UNL     1       4.907   3.405  15.048  0.00  0.00    +0.000 C 
ATOM      6  N   UNL     1       5.243   4.348  16.133  0.00  0.00    +0.000 N 
ATOM      7  C   UNL     1       4.179   4.712  16.954  0.00  0.00    +0.000 C 
ATOM      8  O   UNL     1       3.045   4.289  16.722  0.00  0.00    +0.000 OA
ATOM      9  N   UNL     1       4.421   5.619  17.943  0.00  0.00    +0.000 N 
ATOM     10  H   UNL     1       5.363   5.919  18.082  0.00  0.00    +0.000 HD
ENDROOT
BRANCH   9  11
ATOM     11  C   UNL     1       3.490   6.242  18.800  0.00  0.00    +0.000 A 
ATOM     12  C   UNL     1       3.072   5.712  20.016  0.00  0.00    +0.000 A 
ATOM     13  C   UNL     1       2.164   6.415  20.814  0.00  0.00    +0.000 A 
ATOM     14  C   UNL     1       1.631   7.646  20.396  0.00  0.00    +0.000 A 
ATOM     15  C   UNL     1       2.043   8.174  19.169  0.00  0.00    +0.000 A 
ATOM     16 CL   UNL     1       1.494   9.687  18.533  0.00  0.00    +0.000 Cl
ATOM     17  C   UNL     1       2.976   7.478  18.388  0.00  0.00    +0.000 A 
BRANCH  14  18
ATOM     18  C   UNL     1       0.680   8.294  21.336  0.00  0.00    +0.000 C 
ATOM     19  N   UNL     1       1.176   9.125  22.297  0.00  0.00    +0.000 N 
ATOM     20  O   UNL     1      -0.528   8.121  21.232  0.00  0.00    +0.000 OA
ATOM     21  H   UNL     1       2.164   9.250  22.465  0.00  0.00    +0.000 HD
ATOM     22  H   UNL     1       0.516   9.525  22.951  0.00  0.00    +0.000 HD
ENDBRANCH  14  18
ENDBRANCH   9  11
BRANCH   1  26
ATOM     23  C   UNL     1       7.742   7.594  17.854  0.00  0.00    +0.000 A 
ATOM     24  C   UNL     1       8.090   6.766  18.899  0.00  0.00    +0.000 A 
ATOM     25  C   UNL     1       7.743   5.450  18.505  0.00  0.00    +0.000 A 
ATOM     26  C   UNL     1       7.213   5.546  17.230  0.00  0.00    +0.000 A 
ATOM     27  O   UNL     1       7.218   6.854  16.836  0.00  0.00    +0.000 OA
BRANCH  23  29
ATOM     28  C   UNL     1       8.832   9.718  18.572  0.00  0.00    +0.000 C 
ATOM     29  C   UNL     1       7.837   9.060  17.629  0.00  0.00    +0.000 C 
ENDBRANCH  23  29
ENDBRANCH   1  26
TORSDOF 4
ENDMDL
MODEL 5
REMARK VINA RESULT:      -7.9      1.741      4.003
REMARK  Name = 
REMARK  5 active torsions:
REMARK  status: ('A' for Active; 'I' for Inactive)
REMARK    1  A    between atoms: C_1  and  C_2
REMARK    2  A    between atoms: C_2  and  C_3
REMARK    3  A    between atoms: C_6  and  C_7
REMARK    4  A    between atoms: N_15  and  C_16
REMARK    5  A    between atoms: C_19  and  C_20
REMARK                            x       y       z     vdW  Elec       q    Type
REMARK                         _______ _______ _______ _____ _____    ______ ____
ROOT
ATOM      1  C   UNL     1       4.324   4.637  17.161  0.00  0.00    +0.000 C 
ATOM      2  C   UNL     1       5.513   3.819  17.741  0.00  0.00    +0.000 C 
ATOM      3  O   UNL     1       6.745   4.063  17.046  0.00  0.00    +0.000 OA
ATOM      4  C   UNL     1       7.084   5.453  17.108  0.00  0.00    +0.000 C 
ATOM      5  C   UNL     1       5.990   6.294  16.452  0.00  0.00    +0.000 C 
ATOM      6  N   UNL     1       4.693   6.092  17.128  0.00  0.00    +0.000 N 
ATOM      7  C   UNL     1       3.999   7.258  17.441  0.00  0.00    +0.000 C 
ATOM      8  O   UNL     1       4.496   8.359  17.194  0.00  0.00    +0.000 OA
ATOM      9  N   UNL     1       2.818   7.134  18.110  0.00  0.00    +0.000 N 
ATOM     10  H   UNL     1       2.468   6.214  18.274  0.00  0.00    +0.000 HD
ENDROOT
BRANCH   9  11
ATOM     11  C   UNL     1       2.013   8.157  18.653  0.00  0.00    +0.000 A 
ATOM     12  C   UNL     1       1.428   9.172  17.904  0.00  0.00    +0.000 A 
ATOM     13  C   UNL     1       0.621  10.129  18.528  0.00  0.00    +0.000 A 
ATOM     14  C   UNL     1       0.411  10.110  19.916  0.00  0.00    +0.000 A 
ATOM     15  C   UNL     1       1.009   9.096  20.671  0.00  0.00    +0.000 A 
ATOM     16 CL   UNL     1       0.824   8.928  22.384  0.00  0.00    +0.000 Cl
ATOM     17  C   UNL     1       1.792   8.122  20.036  0.00  0.00    +0.000 A 
BRANCH  14  18
ATOM     18  C   UNL     1      -0.469  11.179  20.455  0.00  0.00    +0.000 C 
ATOM     19  N   UNL     1      -1.682  11.383  19.869  0.00  0.00    +0.000 N 
ATOM     20  O   UNL     1      -0.133  11.842  21.429  0.00  0.00    +0.000 OA
ATOM     21  H   UNL     1      -1.978  10.909  19.027  0.00  0.00    +0.000 HD
ATOM     22  H   UNL     1      -2.249  12.141  20.225  0.00  0.00    +0.000 HD
ENDBRANCH  14  18
ENDBRANCH   9  11
BRANCH   1  26
ATOM     23  C   UNL     1       1.903   3.934  19.718  0.00  0.00    +0.000 A 
ATOM     24  C   UNL     1       1.089   3.562  18.670  0.00  0.00    +0.000 A 
ATOM     25  C   UNL     1       1.831   3.787  17.483  0.00  0.00    +0.000 A 
ATOM     26  C   UNL     1       3.066   4.272  17.875  0.00  0.00    +0.000 A 
ATOM     27  O   UNL     1       3.107   4.356  19.238  0.00  0.00    +0.000 OA
BRANCH  23  29
ATOM     28  C   UNL     1       1.557   2.548  21.762  0.00  0.00    +0.000 C 
ATOM     29  C   UNL     1       1.734   3.948  21.194  0.00  0.00    +0.000 C 
ENDBRANCH  23  29
ENDBRANCH   1  26
TORSDOF 4
ENDMDL
MODEL 6
REMARK VINA RESULT:      -7.9      1.194      1.557
REMARK  Name = 
REMARK  5 active torsions:
REMARK  status: ('A' for Active; 'I' for Inactive)
REMARK    1  A    between atoms: C_1  and  C_2
REMARK    2  A    between atoms: C_2  and  C_3
REMARK    3  A    between atoms: C_6  and  C_7
REMARK    4  A    between atoms: N_15  and  C_16
REMARK    5  A    between atoms: C_19  and  C_20
REMARK                            x       y       z     vdW  Elec       q    Type
REMARK                         _______ _______ _______ _____ _____    ______ ____
ROOT
ATOM      1  C   UNL     1       4.124   3.687  18.691  0.00  0.00    +0.000 C 
ATOM      2  C   UNL     1       3.857   2.632  17.580  0.00  0.00    +0.000 C 
ATOM      3  O   UNL     1       3.375   1.386  18.103  0.00  0.00    +0.000 OA
ATOM      4  C   UNL     1       2.158   1.590  18.830  0.00  0.00    +0.000 C 
ATOM      5  C   UNL     1       2.395   2.540  20.003  0.00  0.00    +0.000 C 
ATOM      6  N   UNL     1       2.888   3.849  19.528  0.00  0.00    +0.000 N 
ATOM      7  C   UNL     1       2.243   4.958  20.070  0.00  0.00    +0.000 C 
ATOM      8  O   UNL     1       1.300   4.805  20.848  0.00  0.00    +0.000 OA
ATOM      9  N   UNL     1       2.623   6.190  19.631  0.00  0.00    +0.000 N 
ATOM     10  H   UNL     1       3.398   6.245  19.004  0.00  0.00    +0.000 HD
ENDROOT
BRANCH   9  11
ATOM     11  C   UNL     1       2.033   7.438  19.919  0.00  0.00    +0.000 A 
ATOM     12  C   UNL     1       1.418   7.752  21.126  0.00  0.00    +0.000 A 
ATOM     13  C   UNL     1       0.882   9.027  21.332  0.00  0.00    +0.000 A 
ATOM     14  C   UNL     1       0.922  10.004  20.322  0.00  0.00    +0.000 A 
ATOM     15  C   UNL     1       1.531   9.685  19.104  0.00  0.00    +0.000 A 
ATOM     16 CL   UNL     1       1.677  10.788  17.779  0.00  0.00    +0.000 Cl
ATOM     17  C   UNL     1       2.092   8.415  18.916  0.00  0.00    +0.000 A 
BRANCH  14  18
ATOM     18  C   UNL     1       0.323  11.318  20.667  0.00  0.00    +0.000 C 
ATOM     19  N   UNL     1      -0.982  11.545  20.348  0.00  0.00    +0.000 N 
ATOM     20  O   UNL     1       0.972  12.172  21.260  0.00  0.00    +0.000 OA
ATOM     21  H   UNL     1      -1.540  10.902  19.804  0.00  0.00    +0.000 HD
ATOM     22  H   UNL     1      -1.360  12.460  20.555  0.00  0.00    +0.000 HD
ENDBRANCH  14  18
ENDBRANCH   9  11
BRANCH   1  26
ATOM     23  C   UNL     1       6.305   6.420  17.876  0.00  0.00    +0.000 A 
ATOM     24  C   UNL     1       5.253   6.867  17.106  0.00  0.00    +0.000 A 
ATOM     25  C   UNL     1       4.223   5.901  17.231  0.00  0.00    +0.000 A 
ATOM     26  C   UNL     1       4.700   4.922  18.085  0.00  0.00    +0.000 A 
ATOM     27  O   UNL     1       5.968   5.245  18.478  0.00  0.00    +0.000 OA
BRANCH  23  29
ATOM     28  C   UNL     1       7.843   8.369  17.646  0.00  0.00    +0.000 C 
ATOM     29  C   UNL     1       7.660   6.954  18.172  0.00  0.00    +0.000 C 
ENDBRANCH  23  29
ENDBRANCH   1  26
TORSDOF 4
ENDMDL
MODEL 7
REMARK VINA RESULT:      -7.6      1.409      2.038
REMARK  Name = 
REMARK  5 active torsions:
REMARK  status: ('A' for Active; 'I' for Inactive)
REMARK    1  A    between atoms: C_1  and  C_2
REMARK    2  A    between atoms: C_2  and  C_3
REMARK    3  A    between atoms: C_6  and  C_7
REMARK    4  A    between atoms: N_15  and  C_16
REMARK    5  A    between atoms: C_19  and  C_20
REMARK                            x       y       z     vdW  Elec       q    Type
REMARK                         _______ _______ _______ _____ _____    ______ ____
ROOT
ATOM      1  C   UNL     1       4.017   3.379  19.268  0.00  0.00    +0.000 C 
ATOM      2  C   UNL     1       3.921   2.346  18.110  0.00  0.00    +0.000 C 
ATOM      3  O   UNL     1       3.234   1.146  18.494  0.00  0.00    +0.000 OA
ATOM      4  C   UNL     1       1.906   1.452  18.935  0.00  0.00    +0.000 C 
ATOM      5  C   UNL     1       1.952   2.384  20.144  0.00  0.00    +0.000 C 
ATOM      6  N   UNL     1       2.643   3.645  19.811  0.00  0.00    +0.000 N 
ATOM      7  C   UNL     1       1.985   4.806  20.211  0.00  0.00    +0.000 C 
ATOM      8  O   UNL     1       0.883   4.734  20.758  0.00  0.00    +0.000 OA
ATOM      9  N   UNL     1       2.552   6.002  19.887  0.00  0.00    +0.000 N 
ATOM     10  H   UNL     1       3.449   5.990  19.449  0.00  0.00    +0.000 HD
ENDROOT
BRANCH   9  11
ATOM     11  C   UNL     1       2.016   7.295  20.055  0.00  0.00    +0.000 A 
ATOM     12  C   UNL     1       1.387   7.736  21.214  0.00  0.00    +0.000 A 
ATOM     13  C   UNL     1       0.909   9.047  21.299  0.00  0.00    +0.000 A 
ATOM     14  C   UNL     1       1.019   9.933  20.214  0.00  0.00    +0.000 A 
ATOM     15  C   UNL     1       1.641   9.486  19.044  0.00  0.00    +0.000 A 
ATOM     16 CL   UNL     1       1.871  10.466  17.637  0.00  0.00    +0.000 Cl
ATOM     17  C   UNL     1       2.145   8.180  18.977  0.00  0.00    +0.000 A 
BRANCH  14  18
ATOM     18  C   UNL     1       0.476  11.298  20.433  0.00  0.00    +0.000 C 
ATOM     19  N   UNL     1      -0.675  11.652  19.794  0.00  0.00    +0.000 N 
ATOM     20  O   UNL     1       1.024  12.081  21.199  0.00  0.00    +0.000 OA
ATOM     21  H   UNL     1      -1.129  11.069  19.105  0.00  0.00    +0.000 HD
ATOM     22  H   UNL     1      -1.007  12.599  19.925  0.00  0.00    +0.000 HD
ENDBRANCH  14  18
ENDBRANCH   9  11
BRANCH   1  26
ATOM     23  C   UNL     1       5.333   6.109  17.342  0.00  0.00    +0.000 A 
ATOM     24  C   UNL     1       6.236   6.239  18.375  0.00  0.00    +0.000 A 
ATOM     25  C   UNL     1       5.897   5.252  19.333  0.00  0.00    +0.000 A 
ATOM     26  C   UNL     1       4.812   4.561  18.824  0.00  0.00    +0.000 A 
ATOM     27  O   UNL     1       4.475   5.085  17.608  0.00  0.00    +0.000 OA
BRANCH  23  29
ATOM     28  C   UNL     1       5.403   5.924  14.856  0.00  0.00    +0.000 C 
ATOM     29  C   UNL     1       5.137   6.823  16.054  0.00  0.00    +0.000 C 
ENDBRANCH  23  29
ENDBRANCH   1  26
TORSDOF 4
ENDMDL
MODEL 8
REMARK VINA RESULT:      -7.2      7.465     10.254
REMARK  Name = 
REMARK  5 active torsions:
REMARK  status: ('A' for Active; 'I' for Inactive)
REMARK    1  A    between atoms: C_1  and  C_2
REMARK    2  A    between atoms: C_2  and  C_3
REMARK    3  A    between atoms: C_6  and  C_7
REMARK    4  A    between atoms: N_15  and  C_16
REMARK    5  A    between atoms: C_19  and  C_20
REMARK                            x       y       z     vdW  Elec       q    Type
REMARK                         _______ _______ _______ _____ _____    ______ ____
ROOT
ATOM      1  C   UNL     1      -0.038  13.720  18.465  0.00  0.00    +0.000 C 
ATOM      2  C   UNL     1       1.504  13.655  18.659  0.00  0.00    +0.000 C 
ATOM      3  O   UNL     1       2.132  14.939  18.529  0.00  0.00    +0.000 OA
ATOM      4  C   UNL     1       1.597  15.854  19.493  0.00  0.00    +0.000 C 
ATOM      5  C   UNL     1       0.096  16.033  19.274  0.00  0.00    +0.000 C 
ATOM      6  N   UNL     1      -0.613  14.744  19.401  0.00  0.00    +0.000 N 
ATOM      7  C   UNL     1      -1.750  14.768  20.205  0.00  0.00    +0.000 C 
ATOM      8  O   UNL     1      -2.073  15.805  20.787  0.00  0.00    +0.000 OA
ATOM      9  N   UNL     1      -2.416  13.595  20.398  0.00  0.00    +0.000 N 
ATOM     10  H   UNL     1      -2.105  12.792  19.892  0.00  0.00    +0.000 HD
ENDROOT
BRANCH   9  11
ATOM     11  C   UNL     1      -3.495  13.339  21.268  0.00  0.00    +0.000 A 
ATOM     12  C   UNL     1      -3.362  13.122  22.636  0.00  0.00    +0.000 A 
ATOM     13  C   UNL     1      -4.495  12.902  23.426  0.00  0.00    +0.000 A 
ATOM     14  C   UNL     1      -5.779  12.860  22.859  0.00  0.00    +0.000 A 
ATOM     15  C   UNL     1      -5.912  13.067  21.482  0.00  0.00    +0.000 A 
ATOM     16 CL   UNL     1      -7.428  13.067  20.647  0.00  0.00    +0.000 Cl
ATOM     17  C   UNL     1      -4.776  13.316  20.701  0.00  0.00    +0.000 A 
BRANCH  14  18
ATOM     18  C   UNL     1      -6.899  12.623  23.806  0.00  0.00    +0.000 C 
ATOM     19  N   UNL     1      -7.347  13.665  24.562  0.00  0.00    +0.000 N 
ATOM     20  O   UNL     1      -7.438  11.525  23.883  0.00  0.00    +0.000 OA
ATOM     21  H   UNL     1      -6.897  14.568  24.582  0.00  0.00    +0.000 HD
ATOM     22  H   UNL     1      -8.084  13.473  25.228  0.00  0.00    +0.000 HD
ENDBRANCH  14  18
ENDBRANCH   9  11
BRANCH   1  26
ATOM     23  C   UNL     1      -2.160  10.857  18.027  0.00  0.00    +0.000 A 
ATOM     24  C   UNL     1      -1.297  10.238  18.904  0.00  0.00    +0.000 A 
ATOM     25  C   UNL     1      -0.295  11.189  19.221  0.00  0.00    +0.000 A 
ATOM     26  C   UNL     1      -0.612  12.344  18.529  0.00  0.00    +0.000 A 
ATOM     27  O   UNL     1      -1.752  12.138  17.805  0.00  0.00    +0.000 OA
BRANCH  23  29
ATOM     28  C   UNL     1      -4.513  11.448  17.450  0.00  0.00    +0.000 C 
ATOM     29  C   UNL     1      -3.396  10.424  17.324  0.00  0.00    +0.000 C 
ENDBRANCH  23  29
ENDBRANCH   1  26
TORSDOF 4
ENDMDL
MODEL 9
REMARK VINA RESULT:      -7.2      6.795      9.677
REMARK  Name = 
REMARK  5 active torsions:
REMARK  status: ('A' for Active; 'I' for Inactive)
REMARK    1  A    between atoms: C_1  and  C_2
REMARK    2  A    between atoms: C_2  and  C_3
REMARK    3  A    between atoms: C_6  and  C_7
REMARK    4  A    between atoms: N_15  and  C_16
REMARK    5  A    between atoms: C_19  and  C_20
REMARK                            x       y       z     vdW  Elec       q    Type
REMARK                         _______ _______ _______ _____ _____    ______ ____
ROOT
ATOM      1  C   UNL     1       0.431  13.179  18.964  0.00  0.00    +0.000 C 
ATOM      2  C   UNL     1       1.945  13.336  19.284  0.00  0.00    +0.000 C 
ATOM      3  O   UNL     1       2.464  14.615  18.893  0.00  0.00    +0.000 OA
ATOM      4  C   UNL     1       1.753  15.665  19.560  0.00  0.00    +0.000 C 
ATOM      5  C   UNL     1       0.271  15.618  19.190  0.00  0.00    +0.000 C 
ATOM      6  N   UNL     1      -0.326  14.323  19.574  0.00  0.00    +0.000 N 
ATOM      7  C   UNL     1      -1.536  14.407  20.259  0.00  0.00    +0.000 C 
ATOM      8  O   UNL     1      -2.010  15.508  20.543  0.00  0.00    +0.000 OA
ATOM      9  N   UNL     1      -2.108  13.245  20.681  0.00  0.00    +0.000 N 
ATOM     10  H   UNL     1      -1.677  12.386  20.412  0.00  0.00    +0.000 HD
ENDROOT
BRANCH   9  11
ATOM     11  C   UNL     1      -3.242  13.081  21.503  0.00  0.00    +0.000 A 
ATOM     12  C   UNL     1      -3.202  13.042  22.893  0.00  0.00    +0.000 A 
ATOM     13  C   UNL     1      -4.384  12.902  23.627  0.00  0.00    +0.000 A 
ATOM     14  C   UNL     1      -5.626  12.764  22.985  0.00  0.00    +0.000 A 
ATOM     15  C   UNL     1      -5.666  12.791  21.588  0.00  0.00    +0.000 A 
ATOM     16 CL   UNL     1      -7.120  12.657  20.659  0.00  0.00    +0.000 Cl
ATOM     17  C   UNL     1      -4.481  12.962  20.859  0.00  0.00    +0.000 A 
BRANCH  14  18
ATOM     18  C   UNL     1      -6.806  12.627  23.877  0.00  0.00    +0.000 C 
ATOM     19  N   UNL     1      -7.234  13.723  24.565  0.00  0.00    +0.000 N 
ATOM     20  O   UNL     1      -7.409  11.564  23.968  0.00  0.00    +0.000 OA
ATOM     21  H   UNL     1      -6.736  14.601  24.575  0.00  0.00    +0.000 HD
ATOM     22  H   UNL     1      -8.015  13.599  25.197  0.00  0.00    +0.000 HD
ENDBRANCH  14  18
ENDBRANCH   9  11
BRANCH   1  26
ATOM     23  C   UNL     1      -0.216  10.125  20.737  0.00  0.00    +0.000 A 
ATOM     24  C   UNL     1      -0.687   9.667  19.526  0.00  0.00    +0.000 A 
ATOM     25  C   UNL     1      -0.569  10.746  18.614  0.00  0.00    +0.000 A 
ATOM     26  C   UNL     1      -0.018  11.801  19.318  0.00  0.00    +0.000 A 
ATOM     27  O   UNL     1       0.199  11.416  20.611  0.00  0.00    +0.000 OA
BRANCH  23  29
ATOM     28  C   UNL     1      -0.798  10.297  23.155  0.00  0.00    +0.000 C 
ATOM     29  C   UNL     1      -0.068   9.507  22.081  0.00  0.00    +0.000 C 
ENDBRANCH  23  29
ENDBRANCH   1  26
TORSDOF 4
ENDMDL
