MODEL 1
REMARK VINA RESULT:      -6.4      0.000      0.000
REMARK  Name = 
REMARK  8 active torsions:
REMARK  status: ('A' for Active; 'I' for Inactive)
REMARK    1  A    between atoms: C_1  and  C_2
REMARK    2  A    between atoms: C_2  and  O_3
REMARK    3  A    between atoms: O_3  and  N_4
REMARK    4  A    between atoms: N_6  and  C_7
REMARK    5  A    between atoms: C_11  and  S_12
REMARK    6  A    between atoms: S_12  and  S_13
REMARK    7  A    between atoms: S_13  and  C_14
REMARK    8  A    between atoms: C_14  and  C_15
REMARK                            x       y       z     vdW  Elec       q    Type
REMARK                         _______ _______ _______ _____ _____    ______ ____
ROOT
ATOM      1  C   UNL     1       5.856   5.249  16.099  0.00  0.00    +0.000 A 
ATOM      2  C   UNL     1       5.325   4.013  16.479  0.00  0.00    +0.000 A 
ATOM      3  C   UNL     1       4.147   3.916  17.236  0.00  0.00    +0.000 A 
ATOM      4 CL   UNL     1       3.590   2.303  17.553  0.00  0.00    +0.000 Cl
ATOM      5  C   UNL     1       3.465   5.069  17.661  0.00  0.00    +0.000 A 
ATOM      6  C   UNL     1       4.007   6.313  17.276  0.00  0.00    +0.000 A 
ATOM      7 CL   UNL     1       3.261   7.830  17.679  0.00  0.00    +0.000 Cl
ATOM      8  C   UNL     1       5.179   6.397  16.505  0.00  0.00    +0.000 A 
ENDROOT
BRANCH   1  11
ATOM      9  N   UNL     1       6.249   3.998  13.425  0.00  0.00    +0.000 NA
ATOM     10  C   UNL     1       7.104   4.745  14.030  0.00  0.00    +0.000 C 
ATOM     11  N   UNL     1       6.966   5.362  15.244  0.00  0.00    +0.000 N 
ATOM     12  H   UNL     1       7.640   6.079  15.481  0.00  0.00    +0.000 HD
BRANCH   9  13
ATOM     13  O   UNL     1       6.758   3.570  12.191  0.00  0.00    +0.000 OA
BRANCH  13  15
ATOM     14  C   UNL     1       4.471   3.220  11.572  0.00  0.00    +0.000 C 
ATOM     15  C   UNL     1       5.849   2.596  11.671  0.00  0.00    +0.000 C 
ENDBRANCH  13  15
ENDBRANCH   9  13
ENDBRANCH   1  11
BRANCH   5  16
ATOM     16  S   UNL     1       1.928   5.030  18.599  0.00  0.00    +0.000 S 
BRANCH  16  17
ATOM     17  S   UNL     1       2.517   4.879  20.561  0.00  0.00    +0.000 S 
BRANCH  17  18
ATOM     18  C   UNL     1       2.692   3.087  20.802  0.00  0.00    +0.000 C 
ATOM     19  C   UNL     1       1.584   2.609  21.725  0.00  0.00    +0.000 C 
ENDBRANCH  17  18
ENDBRANCH  16  17
ENDBRANCH   5  16
TORSDOF 6
ENDMDL
MODEL 2
REMARK VINA RESULT:      -6.4      1.004      2.359
REMARK  Name = 
REMARK  8 active torsions:
REMARK  status: ('A' for Active; 'I' for Inactive)
REMARK    1  A    between atoms: C_1  and  C_2
REMARK    2  A    between atoms: C_2  and  O_3
REMARK    3  A    between atoms: O_3  and  N_4
REMARK    4  A    between atoms: N_6  and  C_7
REMARK    5  A    between atoms: C_11  and  S_12
REMARK    6  A    between atoms: S_12  and  S_13
REMARK    7  A    between atoms: S_13  and  C_14
REMARK    8  A    between atoms: C_14  and  C_15
REMARK                            x       y       z     vdW  Elec       q    Type
REMARK                         _______ _______ _______ _____ _____    ______ ____
ROOT
ATOM      1  C   UNL     1       6.028   5.522  16.414  0.00  0.00    +0.000 A 
ATOM      2  C   UNL     1       5.112   6.575  16.499  0.00  0.00    +0.000 A 
ATOM      3  C   UNL     1       4.125   6.617  17.495  0.00  0.00    +0.000 A 
ATOM      4 CL   UNL     1       3.122   8.034  17.498  0.00  0.00    +0.000 Cl
ATOM      5  C   UNL     1       4.006   5.582  18.438  0.00  0.00    +0.000 A 
ATOM      6  C   UNL     1       4.932   4.521  18.347  0.00  0.00    +0.000 A 
ATOM      7 CL   UNL     1       4.951   3.190  19.463  0.00  0.00    +0.000 Cl
ATOM      8  C   UNL     1       5.925   4.498  17.353  0.00  0.00    +0.000 A 
ENDROOT
BRANCH   1  11
ATOM      9  N   UNL     1       6.201   4.110  13.798  0.00  0.00    +0.000 NA
ATOM     10  C   UNL     1       7.130   4.834  14.316  0.00  0.00    +0.000 C 
ATOM     11  N   UNL     1       7.095   5.522  15.499  0.00  0.00    +0.000 N 
ATOM     12  H   UNL     1       7.821   6.207  15.660  0.00  0.00    +0.000 HD
BRANCH   9  13
ATOM     13  O   UNL     1       6.617   3.587  12.566  0.00  0.00    +0.000 OA
BRANCH  13  15
ATOM     14  C   UNL     1       5.869   1.668  11.343  0.00  0.00    +0.000 C 
ATOM     15  C   UNL     1       5.470   3.002  11.943  0.00  0.00    +0.000 C 
ENDBRANCH  13  15
ENDBRANCH   9  13
ENDBRANCH   1  11
BRANCH   5  16
ATOM     16  S   UNL     1       2.793   5.580  19.770  0.00  0.00    +0.000 S 
BRANCH  16  17
ATOM     17  S   UNL     1       1.558   3.995  19.350  0.00  0.00    +0.000 S 
BRANCH  17  18
ATOM     18  C   UNL     1       1.063   3.411  20.999  0.00  0.00    +0.000 C 
ATOM     19  C   UNL     1       2.130   2.465  21.521  0.00  0.00    +0.000 C 
ENDBRANCH  17  18
ENDBRANCH  16  17
ENDBRANCH   5  16
TORSDOF 6
ENDMDL
MODEL 3
REMARK VINA RESULT:      -6.3      0.680      2.272
REMARK  Name = 
REMARK  8 active torsions:
REMARK  status: ('A' for Active; 'I' for Inactive)
REMARK    1  A    between atoms: C_1  and  C_2
REMARK    2  A    between atoms: C_2  and  O_3
REMARK    3  A    between atoms: O_3  and  N_4
REMARK    4  A    between atoms: N_6  and  C_7
REMARK    5  A    between atoms: C_11  and  S_12
REMARK    6  A    between atoms: S_12  and  S_13
REMARK    7  A    between atoms: S_13  and  C_14
REMARK    8  A    between atoms: C_14  and  C_15
REMARK                            x       y       z     vdW  Elec       q    Type
REMARK                         _______ _______ _______ _____ _____    ______ ____
ROOT
ATOM      1  C   UNL     1       5.398   4.588  16.334  0.00  0.00    +0.000 A 
ATOM      2  C   UNL     1       4.726   5.763  16.681  0.00  0.00    +0.000 A 
ATOM      3  C   UNL     1       3.531   5.741  17.417  0.00  0.00    +0.000 A 
ATOM      4 CL   UNL     1       2.873   7.295  17.826  0.00  0.00    +0.000 Cl
ATOM      5  C   UNL     1       2.951   4.525  17.817  0.00  0.00    +0.000 A 
ATOM      6  C   UNL     1       3.634   3.342  17.462  0.00  0.00    +0.000 A 
ATOM      7 CL   UNL     1       3.076   1.761  17.919  0.00  0.00    +0.000 Cl
ATOM      8  C   UNL     1       4.836   3.378  16.737  0.00  0.00    +0.000 A 
ENDROOT
BRANCH   1  11
ATOM      9  N   UNL     1       6.031   3.905  13.505  0.00  0.00    +0.000 NA
ATOM     10  C   UNL     1       6.890   4.249  14.398  0.00  0.00    +0.000 C 
ATOM     11  N   UNL     1       6.653   4.595  15.701  0.00  0.00    +0.000 N 
ATOM     12  H   UNL     1       7.406   5.040  16.208  0.00  0.00    +0.000 HD
BRANCH   9  13
ATOM     13  O   UNL     1       6.668   3.644  12.284  0.00  0.00    +0.000 OA
BRANCH  13  15
ATOM     14  C   UNL     1       4.442   3.138  11.560  0.00  0.00    +0.000 C 
ATOM     15  C   UNL     1       5.883   2.668  11.594  0.00  0.00    +0.000 C 
ENDBRANCH  13  15
ENDBRANCH   9  13
ENDBRANCH   1  11
BRANCH   5  16
ATOM     16  S   UNL     1       1.444   4.413  18.797  0.00  0.00    +0.000 S 
BRANCH  16  17
ATOM     17  S   UNL     1       1.944   5.219  20.618  0.00  0.00    +0.000 S 
BRANCH  17  18
ATOM     18  C   UNL     1       2.488   3.772  21.573  0.00  0.00    +0.000 C 
ATOM     19  C   UNL     1       1.408   2.706  21.500  0.00  0.00    +0.000 C 
ENDBRANCH  17  18
ENDBRANCH  16  17
ENDBRANCH   5  16
TORSDOF 6
ENDMDL
MODEL 4
REMARK VINA RESULT:      -6.2      1.756      1.935
REMARK  Name = 
REMARK  8 active torsions:
REMARK  status: ('A' for Active; 'I' for Inactive)
REMARK    1  A    between atoms: C_1  and  C_2
REMARK    2  A    between atoms: C_2  and  O_3
REMARK    3  A    between atoms: O_3  and  N_4
REMARK    4  A    between atoms: N_6  and  C_7
REMARK    5  A    between atoms: C_11  and  S_12
REMARK    6  A    between atoms: S_12  and  S_13
REMARK    7  A    between atoms: S_13  and  C_14
REMARK    8  A    between atoms: C_14  and  C_15
REMARK                            x       y       z     vdW  Elec       q    Type
REMARK                         _______ _______ _______ _____ _____    ______ ____
ROOT
ATOM      1  C   UNL     1       6.597   4.970  15.744  0.00  0.00    +0.000 A 
ATOM      2  C   UNL     1       5.319   4.404  15.777  0.00  0.00    +0.000 A 
ATOM      3  C   UNL     1       4.630   4.204  16.983  0.00  0.00    +0.000 A 
ATOM      4 CL   UNL     1       3.025   3.561  16.833  0.00  0.00    +0.000 Cl
ATOM      5  C   UNL     1       5.214   4.550  18.214  0.00  0.00    +0.000 A 
ATOM      6  C   UNL     1       6.504   5.119  18.174  0.00  0.00    +0.000 A 
ATOM      7 CL   UNL     1       7.345   5.644  19.601  0.00  0.00    +0.000 Cl
ATOM      8  C   UNL     1       7.178   5.327  16.959  0.00  0.00    +0.000 A 
ENDROOT
BRANCH   1  11
ATOM      9  N   UNL     1       6.426   3.546  13.134  0.00  0.00    +0.000 NA
ATOM     10  C   UNL     1       7.154   4.580  13.372  0.00  0.00    +0.000 C 
ATOM     11  N   UNL     1       7.251   5.285  14.541  0.00  0.00    +0.000 N 
ATOM     12  H   UNL     1       7.702   6.190  14.502  0.00  0.00    +0.000 HD
BRANCH   9  13
ATOM     13  O   UNL     1       6.591   3.125  11.808  0.00  0.00    +0.000 OA
BRANCH  13  15
ATOM     14  C   UNL     1       4.236   3.195  11.378  0.00  0.00    +0.000 C 
ATOM     15  C   UNL     1       5.463   2.310  11.477  0.00  0.00    +0.000 C 
ENDBRANCH  13  15
ENDBRANCH   9  13
ENDBRANCH   1  11
BRANCH   5  16
ATOM     16  S   UNL     1       4.381   4.363  19.800  0.00  0.00    +0.000 S 
BRANCH  16  17
ATOM     17  S   UNL     1       2.804   5.676  19.720  0.00  0.00    +0.000 S 
BRANCH  17  18
ATOM     18  C   UNL     1       1.540   4.864  20.743  0.00  0.00    +0.000 C 
ATOM     19  C   UNL     1       0.955   3.701  19.961  0.00  0.00    +0.000 C 
ENDBRANCH  17  18
ENDBRANCH  16  17
ENDBRANCH   5  16
TORSDOF 6
ENDMDL
MODEL 5
REMARK VINA RESULT:      -6.2      1.134      1.223
REMARK  Name = 
REMARK  8 active torsions:
REMARK  status: ('A' for Active; 'I' for Inactive)
REMARK    1  A    between atoms: C_1  and  C_2
REMARK    2  A    between atoms: C_2  and  O_3
REMARK    3  A    between atoms: O_3  and  N_4
REMARK    4  A    between atoms: N_6  and  C_7
REMARK    5  A    between atoms: C_11  and  S_12
REMARK    6  A    between atoms: S_12  and  S_13
REMARK    7  A    between atoms: S_13  and  C_14
REMARK    8  A    between atoms: C_14  and  C_15
REMARK                            x       y       z     vdW  Elec       q    Type
REMARK                         _______ _______ _______ _____ _____    ______ ____
ROOT
ATOM      1  C   UNL     1       5.880   5.593  16.737  0.00  0.00    +0.000 A 
ATOM      2  C   UNL     1       5.823   4.526  17.638  0.00  0.00    +0.000 A 
ATOM      3  C   UNL     1       4.819   4.436  18.615  0.00  0.00    +0.000 A 
ATOM      4 CL   UNL     1       4.856   3.006  19.598  0.00  0.00    +0.000 Cl
ATOM      5  C   UNL     1       3.840   5.436  18.737  0.00  0.00    +0.000 A 
ATOM      6  C   UNL     1       3.903   6.512  17.827  0.00  0.00    +0.000 A 
ATOM      7 CL   UNL     1       2.741   7.803  17.814  0.00  0.00    +0.000 Cl
ATOM      8  C   UNL     1       4.905   6.583  16.844  0.00  0.00    +0.000 A 
ENDROOT
BRANCH   1  11
ATOM      9  N   UNL     1       5.977   3.875  14.306  0.00  0.00    +0.000 NA
ATOM     10  C   UNL     1       6.816   4.808  14.593  0.00  0.00    +0.000 C 
ATOM     11  N   UNL     1       6.804   5.640  15.680  0.00  0.00    +0.000 N 
ATOM     12  H   UNL     1       7.408   6.451  15.650  0.00  0.00    +0.000 HD
BRANCH   9  13
ATOM     13  O   UNL     1       6.323   3.260  13.095  0.00  0.00    +0.000 OA
BRANCH  13  15
ATOM     14  C   UNL     1       4.504   3.078  11.548  0.00  0.00    +0.000 C 
ATOM     15  C   UNL     1       5.633   3.955  12.053  0.00  0.00    +0.000 C 
ENDBRANCH  13  15
ENDBRANCH   9  13
ENDBRANCH   1  11
BRANCH   5  16
ATOM     16  S   UNL     1       2.497   5.375  19.937  0.00  0.00    +0.000 S 
BRANCH  16  17
ATOM     17  S   UNL     1       1.239   3.909  19.238  0.00  0.00    +0.000 S 
BRANCH  17  18
ATOM     18  C   UNL     1       1.558   2.521  20.367  0.00  0.00    +0.000 C 
ATOM     19  C   UNL     1       1.836   3.075  21.754  0.00  0.00    +0.000 C 
ENDBRANCH  17  18
ENDBRANCH  16  17
ENDBRANCH   5  16
TORSDOF 6
ENDMDL
MODEL 6
REMARK VINA RESULT:      -6.1      1.771      2.316
REMARK  Name = 
REMARK  8 active torsions:
REMARK  status: ('A' for Active; 'I' for Inactive)
REMARK    1  A    between atoms: C_1  and  C_2
REMARK    2  A    between atoms: C_2  and  O_3
REMARK    3  A    between atoms: O_3  and  N_4
REMARK    4  A    between atoms: N_6  and  C_7
REMARK    5  A    between atoms: C_11  and  S_12
REMARK    6  A    between atoms: S_12  and  S_13
REMARK    7  A    between atoms: S_13  and  C_14
REMARK    8  A    between atoms: C_14  and  C_15
REMARK                            x       y       z     vdW  Elec       q    Type
REMARK                         _______ _______ _______ _____ _____    ______ ____
ROOT
ATOM      1  C   UNL     1       6.605   5.261  15.679  0.00  0.00    +0.000 A 
ATOM      2  C   UNL     1       7.213   5.538  16.908  0.00  0.00    +0.000 A 
ATOM      3  C   UNL     1       6.610   5.186  18.126  0.00  0.00    +0.000 A 
ATOM      4 CL   UNL     1       7.539   5.537  19.550  0.00  0.00    +0.000 Cl
ATOM      5  C   UNL     1       5.355   4.556  18.155  0.00  0.00    +0.000 A 
ATOM      6  C   UNL     1       4.747   4.280  16.912  0.00  0.00    +0.000 A 
ATOM      7 CL   UNL     1       3.219   3.465  16.773  0.00  0.00    +0.000 Cl
ATOM      8  C   UNL     1       5.366   4.625  15.699  0.00  0.00    +0.000 A 
ENDROOT
BRANCH   1  11
ATOM      9  N   UNL     1       6.479   3.623  13.195  0.00  0.00    +0.000 NA
ATOM     10  C   UNL     1       7.169   4.698  13.344  0.00  0.00    +0.000 C 
ATOM     11  N   UNL     1       7.245   5.500  14.451  0.00  0.00    +0.000 N 
ATOM     12  H   UNL     1       7.663   6.414  14.336  0.00  0.00    +0.000 HD
BRANCH   9  13
ATOM     13  O   UNL     1       6.655   3.100  11.907  0.00  0.00    +0.000 OA
BRANCH  13  15
ATOM     14  C   UNL     1       4.312   3.265  11.441  0.00  0.00    +0.000 C 
ATOM     15  C   UNL     1       5.492   2.327  11.599  0.00  0.00    +0.000 C 
ENDBRANCH  13  15
ENDBRANCH   9  13
ENDBRANCH   1  11
BRANCH   5  16
ATOM     16  S   UNL     1       4.535   4.036  19.672  0.00  0.00    +0.000 S 
BRANCH  16  17
ATOM     17  S   UNL     1       2.971   5.349  19.897  0.00  0.00    +0.000 S 
BRANCH  17  18
ATOM     18  C   UNL     1       1.820   4.438  20.968  0.00  0.00    +0.000 C 
ATOM     19  C   UNL     1       0.871   3.638  20.092  0.00  0.00    +0.000 C 
ENDBRANCH  17  18
ENDBRANCH  16  17
ENDBRANCH   5  16
TORSDOF 6
ENDMDL
MODEL 7
REMARK VINA RESULT:      -6.0      1.741      1.898
REMARK  Name = 
REMARK  8 active torsions:
REMARK  status: ('A' for Active; 'I' for Inactive)
REMARK    1  A    between atoms: C_1  and  C_2
REMARK    2  A    between atoms: C_2  and  O_3
REMARK    3  A    between atoms: O_3  and  N_4
REMARK    4  A    between atoms: N_6  and  C_7
REMARK    5  A    between atoms: C_11  and  S_12
REMARK    6  A    between atoms: S_12  and  S_13
REMARK    7  A    between atoms: S_13  and  C_14
REMARK    8  A    between atoms: C_14  and  C_15
REMARK                            x       y       z     vdW  Elec       q    Type
REMARK                         _______ _______ _______ _____ _____    ______ ____
ROOT
ATOM      1  C   UNL     1       6.335   5.085  15.758  0.00  0.00    +0.000 A 
ATOM      2  C   UNL     1       5.029   4.588  15.801  0.00  0.00    +0.000 A 
ATOM      3  C   UNL     1       4.352   4.393  17.015  0.00  0.00    +0.000 A 
ATOM      4 CL   UNL     1       2.712   3.841  16.878  0.00  0.00    +0.000 Cl
ATOM      5  C   UNL     1       4.976   4.674  18.242  0.00  0.00    +0.000 A 
ATOM      6  C   UNL     1       6.294   5.174  18.193  0.00  0.00    +0.000 A 
ATOM      7 CL   UNL     1       7.187   5.615  19.616  0.00  0.00    +0.000 Cl
ATOM      8  C   UNL     1       6.956   5.378  16.970  0.00  0.00    +0.000 A 
ENDROOT
BRANCH   1  11
ATOM      9  N   UNL     1       6.353   3.519  13.225  0.00  0.00    +0.000 NA
ATOM     10  C   UNL     1       6.977   4.626  13.420  0.00  0.00    +0.000 C 
ATOM     11  N   UNL     1       6.985   5.397  14.551  0.00  0.00    +0.000 N 
ATOM     12  H   UNL     1       7.352   6.336  14.472  0.00  0.00    +0.000 HD
BRANCH   9  13
ATOM     13  O   UNL     1       6.584   3.046  11.927  0.00  0.00    +0.000 OA
BRANCH  13  15
ATOM     14  C   UNL     1       4.262   3.197  11.357  0.00  0.00    +0.000 C 
ATOM     15  C   UNL     1       5.445   2.268  11.547  0.00  0.00    +0.000 C 
ENDBRANCH  13  15
ENDBRANCH   9  13
ENDBRANCH   1  11
BRANCH   5  16
ATOM     16  S   UNL     1       4.162   4.490  19.839  0.00  0.00    +0.000 S 
BRANCH  16  17
ATOM     17  S   UNL     1       3.692   2.494  19.959  0.00  0.00    +0.000 S 
BRANCH  17  18
ATOM     18  C   UNL     1       1.892   2.510  20.205  0.00  0.00    +0.000 C 
ATOM     19  C   UNL     1       1.441   3.946  20.414  0.00  0.00    +0.000 C 
ENDBRANCH  17  18
ENDBRANCH  16  17
ENDBRANCH   5  16
TORSDOF 6
ENDMDL
MODEL 8
REMARK VINA RESULT:      -5.8      1.859      2.965
REMARK  Name = 
REMARK  8 active torsions:
REMARK  status: ('A' for Active; 'I' for Inactive)
REMARK    1  A    between atoms: C_1  and  C_2
REMARK    2  A    between atoms: C_2  and  O_3
REMARK    3  A    between atoms: O_3  and  N_4
REMARK    4  A    between atoms: N_6  and  C_7
REMARK    5  A    between atoms: C_11  and  S_12
REMARK    6  A    between atoms: S_12  and  S_13
REMARK    7  A    between atoms: S_13  and  C_14
REMARK    8  A    between atoms: C_14  and  C_15
REMARK                            x       y       z     vdW  Elec       q    Type
REMARK                         _______ _______ _______ _____ _____    ______ ____
ROOT
ATOM      1  C   UNL     1       6.250   4.065  14.968  0.00  0.00    +0.000 A 
ATOM      2  C   UNL     1       6.658   5.272  15.544  0.00  0.00    +0.000 A 
ATOM      3  C   UNL     1       6.163   5.703  16.784  0.00  0.00    +0.000 A 
ATOM      4 CL   UNL     1       6.834   7.187  17.385  0.00  0.00    +0.000 Cl
ATOM      5  C   UNL     1       5.215   4.941  17.488  0.00  0.00    +0.000 A 
ATOM      6  C   UNL     1       4.807   3.725  16.901  0.00  0.00    +0.000 A 
ATOM      7 CL   UNL     1       3.679   2.644  17.664  0.00  0.00    +0.000 Cl
ATOM      8  C   UNL     1       5.320   3.297  15.666  0.00  0.00    +0.000 A 
ENDROOT
BRANCH   1  11
ATOM      9  N   UNL     1       4.923   3.591  12.344  0.00  0.00    +0.000 NA
ATOM     10  C   UNL     1       6.157   3.343  12.611  0.00  0.00    +0.000 C 
ATOM     11  N   UNL     1       6.821   3.562  13.787  0.00  0.00    +0.000 N 
ATOM     12  H   UNL     1       7.831   3.508  13.767  0.00  0.00    +0.000 HD
BRANCH   9  13
ATOM     13  O   UNL     1       4.626   3.241  11.021  0.00  0.00    +0.000 OA
BRANCH  13  15
ATOM     14  C   UNL     1       2.907   4.139   9.615  0.00  0.00    +0.000 C 
ATOM     15  C   UNL     1       3.207   3.334  10.864  0.00  0.00    +0.000 C 
ENDBRANCH  13  15
ENDBRANCH   9  13
ENDBRANCH   1  11
BRANCH   5  16
ATOM     16  S   UNL     1       4.562   5.404  19.102  0.00  0.00    +0.000 S 
BRANCH  16  17
ATOM     17  S   UNL     1       2.680   6.129  18.715  0.00  0.00    +0.000 S 
BRANCH  17  18
ATOM     18  C   UNL     1       1.859   6.024  20.333  0.00  0.00    +0.000 C 
ATOM     19  C   UNL     1       1.819   4.568  20.766  0.00  0.00    +0.000 C 
ENDBRANCH  17  18
ENDBRANCH  16  17
ENDBRANCH   5  16
TORSDOF 6
ENDMDL
MODEL 9
REMARK VINA RESULT:      -5.8      1.918      2.234
REMARK  Name = 
REMARK  8 active torsions:
REMARK  status: ('A' for Active; 'I' for Inactive)
REMARK    1  A    between atoms: C_1  and  C_2
REMARK    2  A    between atoms: C_2  and  O_3
REMARK    3  A    between atoms: O_3  and  N_4
REMARK    4  A    between atoms: N_6  and  C_7
REMARK    5  A    between atoms: C_11  and  S_12
REMARK    6  A    between atoms: S_12  and  S_13
REMARK    7  A    between atoms: S_13  and  C_14
REMARK    8  A    between atoms: C_14  and  C_15
REMARK                            x       y       z     vdW  Elec       q    Type
REMARK                         _______ _______ _______ _____ _____    ______ ____
ROOT
ATOM      1  C   UNL     1       5.756   5.332  17.931  0.00  0.00    +0.000 A 
ATOM      2  C   UNL     1       5.641   4.230  18.783  0.00  0.00    +0.000 A 
ATOM      3  C   UNL     1       4.520   4.049  19.609  0.00  0.00    +0.000 A 
ATOM      4 CL   UNL     1       4.508   2.588  20.547  0.00  0.00    +0.000 Cl
ATOM      5  C   UNL     1       3.475   4.989  19.624  0.00  0.00    +0.000 A 
ATOM      6  C   UNL     1       3.598   6.099  18.762  0.00  0.00    +0.000 A 
ATOM      7 CL   UNL     1       2.374   7.324  18.626  0.00  0.00    +0.000 Cl
ATOM      8  C   UNL     1       4.718   6.261  17.930  0.00  0.00    +0.000 A 
ENDROOT
BRANCH   1  11
ATOM      9  N   UNL     1       5.994   4.136  15.213  0.00  0.00    +0.000 NA
ATOM     10  C   UNL     1       6.880   4.876  15.781  0.00  0.00    +0.000 C 
ATOM     11  N   UNL     1       6.812   5.468  17.013  0.00  0.00    +0.000 N 
ATOM     12  H   UNL     1       7.496   6.184  17.223  0.00  0.00    +0.000 HD
BRANCH   9  13
ATOM     13  O   UNL     1       6.430   3.735  13.943  0.00  0.00    +0.000 OA
BRANCH  13  15
ATOM     14  C   UNL     1       5.628   2.930  11.835  0.00  0.00    +0.000 C 
ATOM     15  C   UNL     1       5.284   3.711  13.088  0.00  0.00    +0.000 C 
ENDBRANCH  13  15
ENDBRANCH   9  13
ENDBRANCH   1  11
BRANCH   5  16
ATOM     16  S   UNL     1       1.987   4.809  20.624  0.00  0.00    +0.000 S 
BRANCH  16  17
ATOM     17  S   UNL     1       0.993   3.213  19.799  0.00  0.00    +0.000 S 
BRANCH  17  18
ATOM     18  C   UNL     1       1.359   3.372  18.026  0.00  0.00    +0.000 C 
ATOM     19  C   UNL     1       2.247   2.213  17.606  0.00  0.00    +0.000 C 
ENDBRANCH  17  18
ENDBRANCH  16  17
ENDBRANCH   5  16
TORSDOF 6
ENDMDL
