MODEL 1
REMARK VINA RESULT:      -8.9      0.000      0.000
REMARK  Name = 
REMARK  10 active torsions:
REMARK  status: ('A' for Active; 'I' for Inactive)
REMARK    1  A    between atoms: C_1  and  C_2
REMARK    2  A    between atoms: C_4  and  C_5
REMARK    3  A    between atoms: C_6  and  O_7
REMARK    4  A    between atoms: C_8  and  C_9
REMARK    5  A    between atoms: C_9  and  N_10
REMARK    6  A    between atoms: N_10  and  C_11
REMARK    7  A    between atoms: N_10  and  C_19
REMARK    8  A    between atoms: C_11  and  C_12
REMARK    9  A    between atoms: C_19  and  N_21
REMARK   10  A    between atoms: N_21  and  C_22
REMARK                            x       y       z     vdW  Elec       q    Type
REMARK                         _______ _______ _______ _____ _____    ______ ____
ROOT
ATOM      1  N   UNL     1       4.567   4.458  16.785  0.00  0.00    +0.000 N 
ENDROOT
BRANCH   1   2
ATOM      2  C   UNL     1       4.923   5.622  17.509  0.00  0.00    +0.000 C 
ATOM      3  S   UNL     1       6.157   5.649  18.665  0.00  0.00    +0.000 S 
BRANCH   2   4
ATOM      4  N   UNL     1       4.143   6.739  17.221  0.00  0.00    +0.000 N 
ATOM      5  H   UNL     1       4.087   6.993  16.243  0.00  0.00    +0.000 HD
BRANCH   4   6
ATOM      6  C   UNL     1       3.176   7.354  18.060  0.00  0.00    +0.000 A 
ATOM      7  C   UNL     1       2.478   8.509  17.685  0.00  0.00    +0.000 A 
ATOM      8  C   UNL     1       1.593   9.130  18.564  0.00  0.00    +0.000 A 
ATOM      9  C   UNL     1       1.350   8.570  19.814  0.00  0.00    +0.000 A 
ATOM     10  C   UNL     1       1.973   7.375  20.168  0.00  0.00    +0.000 A 
ATOM     11  C   UNL     1       2.877   6.763  19.292  0.00  0.00    +0.000 A 
ENDBRANCH   4   6
ENDBRANCH   2   4
ENDBRANCH   1   2
BRANCH   1  12
ATOM     12  C   UNL     1       5.607   3.575  16.117  0.00  0.00    +0.000 C 
BRANCH  12  19
ATOM     13  C   UNL     1       5.479   2.199  11.554  0.00  0.00    +0.000 C 
ATOM     14  C   UNL     1       5.912   3.361  12.392  0.00  0.00    +0.000 A 
ATOM     15  C   UNL     1       6.932   4.233  12.066  0.00  0.00    +0.000 A 
ATOM     16  C   UNL     1       7.493   5.060  13.064  0.00  0.00    +0.000 A 
ATOM     17  C   UNL     1       8.526   6.062  12.633  0.00  0.00    +0.000 C 
ATOM     18  C   UNL     1       7.087   4.884  14.410  0.00  0.00    +0.000 A 
ATOM     19  C   UNL     1       6.018   4.044  14.730  0.00  0.00    +0.000 A 
ATOM     20  C   UNL     1       5.394   3.414  13.670  0.00  0.00    +0.000 A 
BRANCH  18  21
ATOM     21  O   UNL     1       7.728   5.526  15.431  0.00  0.00    +0.000 OA
ATOM     22  H   UNL     1       7.378   6.434  15.514  0.00  0.00    +0.000 HD
ENDBRANCH  18  21
ENDBRANCH  12  19
ENDBRANCH   1  12
BRANCH   1  23
ATOM     23  C   UNL     1       3.213   3.832  17.007  0.00  0.00    +0.000 C 
BRANCH  23  24
ATOM     24  C   UNL     1       2.707   3.359  18.388  0.00  0.00    +0.000 A 
ATOM     25  C   UNL     1       3.493   2.905  19.459  0.00  0.00    +0.000 A 
ATOM     26  C   UNL     1       2.966   2.678  20.735  0.00  0.00    +0.000 A 
ATOM     27  C   UNL     1       1.600   2.829  20.952  0.00  0.00    +0.000 A 
ATOM     28  F   UNL     1       1.092   2.601  22.164  0.00  0.00    +0.000 F 
ATOM     29  C   UNL     1       0.772   3.196  19.904  0.00  0.00    +0.000 A 
ATOM     30  C   UNL     1       1.318   3.473  18.645  0.00  0.00    +0.000 A 
ENDBRANCH  23  24
ENDBRANCH   1  23
TORSDOF 8
ENDMDL
MODEL 2
REMARK VINA RESULT:      -8.8      0.135      1.290
REMARK  Name = 
REMARK  10 active torsions:
REMARK  status: ('A' for Active; 'I' for Inactive)
REMARK    1  A    between atoms: C_1  and  C_2
REMARK    2  A    between atoms: C_4  and  C_5
REMARK    3  A    between atoms: C_6  and  O_7
REMARK    4  A    between atoms: C_8  and  C_9
REMARK    5  A    between atoms: C_9  and  N_10
REMARK    6  A    between atoms: N_10  and  C_11
REMARK    7  A    between atoms: N_10  and  C_19
REMARK    8  A    between atoms: C_11  and  C_12
REMARK    9  A    between atoms: C_19  and  N_21
REMARK   10  A    between atoms: N_21  and  C_22
REMARK                            x       y       z     vdW  Elec       q    Type
REMARK                         _______ _______ _______ _____ _____    ______ ____
ROOT
ATOM      1  N   UNL     1       4.506   4.463  16.706  0.00  0.00    +0.000 N 
ENDROOT
BRANCH   1   2
ATOM      2  C   UNL     1       4.807   5.671  17.380  0.00  0.00    +0.000 C 
ATOM      3  S   UNL     1       6.112   5.836  18.442  0.00  0.00    +0.000 S 
BRANCH   2   4
ATOM      4  N   UNL     1       3.912   6.708  17.129  0.00  0.00    +0.000 N 
ATOM      5  H   UNL     1       3.671   6.853  16.157  0.00  0.00    +0.000 HD
BRANCH   4   6
ATOM      6  C   UNL     1       3.061   7.357  18.064  0.00  0.00    +0.000 A 
ATOM      7  C   UNL     1       2.822   6.848  19.346  0.00  0.00    +0.000 A 
ATOM      8  C   UNL     1       1.921   7.469  20.208  0.00  0.00    +0.000 A 
ATOM      9  C   UNL     1       1.287   8.645  19.820  0.00  0.00    +0.000 A 
ATOM     10  C   UNL     1       1.580   9.210  18.580  0.00  0.00    +0.000 A 
ATOM     11  C   UNL     1       2.469   8.574  17.706  0.00  0.00    +0.000 A 
ENDBRANCH   4   6
ENDBRANCH   2   4
ENDBRANCH   1   2
BRANCH   1  12
ATOM     12  C   UNL     1       5.588   3.600  16.080  0.00  0.00    +0.000 C 
BRANCH  12  19
ATOM     13  C   UNL     1       5.518   2.182  11.528  0.00  0.00    +0.000 C 
ATOM     14  C   UNL     1       5.942   3.352  12.361  0.00  0.00    +0.000 A 
ATOM     15  C   UNL     1       6.968   4.219  12.041  0.00  0.00    +0.000 A 
ATOM     16  C   UNL     1       7.517   5.054  13.039  0.00  0.00    +0.000 A 
ATOM     17  C   UNL     1       8.557   6.051  12.613  0.00  0.00    +0.000 C 
ATOM     18  C   UNL     1       7.092   4.890  14.381  0.00  0.00    +0.000 A 
ATOM     19  C   UNL     1       6.018   4.055  14.694  0.00  0.00    +0.000 A 
ATOM     20  C   UNL     1       5.407   3.417  13.632  0.00  0.00    +0.000 A 
BRANCH  18  21
ATOM     21  O   UNL     1       7.721   5.541  15.404  0.00  0.00    +0.000 OA
ATOM     22  H   UNL     1       8.157   4.889  15.984  0.00  0.00    +0.000 HD
ENDBRANCH  18  21
ENDBRANCH  12  19
ENDBRANCH   1  12
BRANCH   1  23
ATOM     23  C   UNL     1       3.180   3.788  16.951  0.00  0.00    +0.000 C 
BRANCH  23  24
ATOM     24  C   UNL     1       2.584   3.561  18.359  0.00  0.00    +0.000 A 
ATOM     25  C   UNL     1       1.234   3.676  18.726  0.00  0.00    +0.000 A 
ATOM     26  C   UNL     1       0.758   3.268  19.976  0.00  0.00    +0.000 A 
ATOM     27  C   UNL     1       1.652   2.799  20.933  0.00  0.00    +0.000 A 
ATOM     28  F   UNL     1       1.204   2.422  22.132  0.00  0.00    +0.000 F 
ATOM     29  C   UNL     1       3.006   2.746  20.644  0.00  0.00    +0.000 A 
ATOM     30  C   UNL     1       3.464   3.106  19.372  0.00  0.00    +0.000 A 
ENDBRANCH  23  24
ENDBRANCH   1  23
TORSDOF 8
ENDMDL
MODEL 3
REMARK VINA RESULT:      -8.4      1.458      3.682
REMARK  Name = 
REMARK  10 active torsions:
REMARK  status: ('A' for Active; 'I' for Inactive)
REMARK    1  A    between atoms: C_1  and  C_2
REMARK    2  A    between atoms: C_4  and  C_5
REMARK    3  A    between atoms: C_6  and  O_7
REMARK    4  A    between atoms: C_8  and  C_9
REMARK    5  A    between atoms: C_9  and  N_10
REMARK    6  A    between atoms: N_10  and  C_11
REMARK    7  A    between atoms: N_10  and  C_19
REMARK    8  A    between atoms: C_11  and  C_12
REMARK    9  A    between atoms: C_19  and  N_21
REMARK   10  A    between atoms: N_21  and  C_22
REMARK                            x       y       z     vdW  Elec       q    Type
REMARK                         _______ _______ _______ _____ _____    ______ ____
ROOT
ATOM      1  N   UNL     1       5.319   4.936  17.050  0.00  0.00    +0.000 N 
ENDROOT
BRANCH   1   2
ATOM      2  C   UNL     1       5.818   4.545  18.316  0.00  0.00    +0.000 C 
ATOM      3  S   UNL     1       6.911   5.478  19.206  0.00  0.00    +0.000 S 
BRANCH   2   4
ATOM      4  N   UNL     1       5.366   3.303  18.753  0.00  0.00    +0.000 N 
ATOM      5  H   UNL     1       6.086   2.629  18.978  0.00  0.00    +0.000 HD
BRANCH   4   6
ATOM      6  C   UNL     1       4.067   2.977  19.229  0.00  0.00    +0.000 A 
ATOM      7  C   UNL     1       3.045   2.528  18.384  0.00  0.00    +0.000 A 
ATOM      8  C   UNL     1       1.761   2.293  18.873  0.00  0.00    +0.000 A 
ATOM      9  C   UNL     1       1.496   2.449  20.229  0.00  0.00    +0.000 A 
ATOM     10  C   UNL     1       2.524   2.813  21.096  0.00  0.00    +0.000 A 
ATOM     11  C   UNL     1       3.808   3.069  20.601  0.00  0.00    +0.000 A 
ENDBRANCH   4   6
ENDBRANCH   2   4
ENDBRANCH   1   2
BRANCH   1  12
ATOM     12  C   UNL     1       5.050   3.930  15.944  0.00  0.00    +0.000 C 
BRANCH  12  19
ATOM     13  C   UNL     1       5.479   2.303  11.483  0.00  0.00    +0.000 C 
ATOM     14  C   UNL     1       5.912   3.457  12.332  0.00  0.00    +0.000 A 
ATOM     15  C   UNL     1       7.069   4.187  12.142  0.00  0.00    +0.000 A 
ATOM     16  C   UNL     1       7.562   5.003  13.183  0.00  0.00    +0.000 A 
ATOM     17  C   UNL     1       8.764   5.854  12.886  0.00  0.00    +0.000 C 
ATOM     18  C   UNL     1       6.929   4.956  14.450  0.00  0.00    +0.000 A 
ATOM     19  C   UNL     1       5.729   4.264  14.625  0.00  0.00    +0.000 A 
ATOM     20  C   UNL     1       5.209   3.646  13.504  0.00  0.00    +0.000 A 
BRANCH  18  21
ATOM     21  O   UNL     1       7.475   5.583  15.535  0.00  0.00    +0.000 OA
ATOM     22  H   UNL     1       6.813   5.628  16.251  0.00  0.00    +0.000 HD
ENDBRANCH  18  21
ENDBRANCH  12  19
ENDBRANCH   1  12
BRANCH   1  23
ATOM     23  C   UNL     1       4.648   6.278  16.900  0.00  0.00    +0.000 C 
BRANCH  23  24
ATOM     24  C   UNL     1       3.546   6.793  17.852  0.00  0.00    +0.000 A 
ATOM     25  C   UNL     1       3.129   6.195  19.053  0.00  0.00    +0.000 A 
ATOM     26  C   UNL     1       2.259   6.831  19.945  0.00  0.00    +0.000 A 
ATOM     27  C   UNL     1       1.716   8.068  19.614  0.00  0.00    +0.000 A 
ATOM     28  F   UNL     1       0.875   8.671  20.456  0.00  0.00    +0.000 F 
ATOM     29  C   UNL     1       2.034   8.658  18.402  0.00  0.00    +0.000 A 
ATOM     30  C   UNL     1       2.947   8.039  17.541  0.00  0.00    +0.000 A 
ENDBRANCH  23  24
ENDBRANCH   1  23
TORSDOF 8
ENDMDL
MODEL 4
REMARK VINA RESULT:      -7.4      0.596      1.125
REMARK  Name = 
REMARK  10 active torsions:
REMARK  status: ('A' for Active; 'I' for Inactive)
REMARK    1  A    between atoms: C_1  and  C_2
REMARK    2  A    between atoms: C_4  and  C_5
REMARK    3  A    between atoms: C_6  and  O_7
REMARK    4  A    between atoms: C_8  and  C_9
REMARK    5  A    between atoms: C_9  and  N_10
REMARK    6  A    between atoms: N_10  and  C_11
REMARK    7  A    between atoms: N_10  and  C_19
REMARK    8  A    between atoms: C_11  and  C_12
REMARK    9  A    between atoms: C_19  and  N_21
REMARK   10  A    between atoms: N_21  and  C_22
REMARK                            x       y       z     vdW  Elec       q    Type
REMARK                         _______ _______ _______ _____ _____    ______ ____
ROOT
ATOM      1  N   UNL     1       4.663   4.622  16.709  0.00  0.00    +0.000 N 
ENDROOT
BRANCH   1   2
ATOM      2  C   UNL     1       4.778   5.848  17.407  0.00  0.00    +0.000 C 
ATOM      3  S   UNL     1       5.986   6.986  17.082  0.00  0.00    +0.000 S 
BRANCH   2   4
ATOM      4  N   UNL     1       3.837   6.025  18.418  0.00  0.00    +0.000 N 
ATOM      5  H   UNL     1       3.954   5.438  19.233  0.00  0.00    +0.000 HD
BRANCH   4   6
ATOM      6  C   UNL     1       2.954   7.125  18.591  0.00  0.00    +0.000 A 
ATOM      7  C   UNL     1       2.708   8.060  17.577  0.00  0.00    +0.000 A 
ATOM      8  C   UNL     1       1.897   9.170  17.807  0.00  0.00    +0.000 A 
ATOM      9  C   UNL     1       1.273   9.330  19.040  0.00  0.00    +0.000 A 
ATOM     10  C   UNL     1       1.441   8.364  20.029  0.00  0.00    +0.000 A 
ATOM     11  C   UNL     1       2.272   7.260  19.805  0.00  0.00    +0.000 A 
ENDBRANCH   4   6
ENDBRANCH   2   4
ENDBRANCH   1   2
BRANCH   1  12
ATOM     12  C   UNL     1       5.872   3.906  16.133  0.00  0.00    +0.000 C 
BRANCH  12  19
ATOM     13  C   UNL     1       5.332   2.247  11.696  0.00  0.00    +0.000 C 
ATOM     14  C   UNL     1       5.862   3.446  12.418  0.00  0.00    +0.000 A 
ATOM     15  C   UNL     1       6.874   4.264  11.954  0.00  0.00    +0.000 A 
ATOM     16  C   UNL     1       7.537   5.134  12.846  0.00  0.00    +0.000 A 
ATOM     17  C   UNL     1       8.556   6.074  12.269  0.00  0.00    +0.000 C 
ATOM     18  C   UNL     1       7.239   5.056  14.230  0.00  0.00    +0.000 A 
ATOM     19  C   UNL     1       6.179   4.272  14.689  0.00  0.00    +0.000 A 
ATOM     20  C   UNL     1       5.454   3.597  13.728  0.00  0.00    +0.000 A 
BRANCH  18  21
ATOM     21  O   UNL     1       7.979   5.742  15.151  0.00  0.00    +0.000 OA
ATOM     22  H   UNL     1       7.383   6.245  15.737  0.00  0.00    +0.000 HD
ENDBRANCH  18  21
ENDBRANCH  12  19
ENDBRANCH   1  12
BRANCH   1  23
ATOM     23  C   UNL     1       3.419   3.786  16.880  0.00  0.00    +0.000 C 
BRANCH  23  24
ATOM     24  C   UNL     1       2.749   3.520  18.246  0.00  0.00    +0.000 A 
ATOM     25  C   UNL     1       1.395   3.713  18.567  0.00  0.00    +0.000 A 
ATOM     26  C   UNL     1       0.838   3.267  19.771  0.00  0.00    +0.000 A 
ATOM     27  C   UNL     1       1.655   2.677  20.730  0.00  0.00    +0.000 A 
ATOM     28  F   UNL     1       1.130   2.263  21.884  0.00  0.00    +0.000 F 
ATOM     29  C   UNL     1       3.013   2.541  20.490  0.00  0.00    +0.000 A 
ATOM     30  C   UNL     1       3.549   2.942  19.261  0.00  0.00    +0.000 A 
ENDBRANCH  23  24
ENDBRANCH   1  23
TORSDOF 8
ENDMDL
MODEL 5
REMARK VINA RESULT:      -7.2      2.873      7.055
REMARK  Name = 
REMARK  10 active torsions:
REMARK  status: ('A' for Active; 'I' for Inactive)
REMARK    1  A    between atoms: C_1  and  C_2
REMARK    2  A    between atoms: C_4  and  C_5
REMARK    3  A    between atoms: C_6  and  O_7
REMARK    4  A    between atoms: C_8  and  C_9
REMARK    5  A    between atoms: C_9  and  N_10
REMARK    6  A    between atoms: N_10  and  C_11
REMARK    7  A    between atoms: N_10  and  C_19
REMARK    8  A    between atoms: C_11  and  C_12
REMARK    9  A    between atoms: C_19  and  N_21
REMARK   10  A    between atoms: N_21  and  C_22
REMARK                            x       y       z     vdW  Elec       q    Type
REMARK                         _______ _______ _______ _____ _____    ______ ____
ROOT
ATOM      1  N   UNL     1       5.383   5.646  16.613  0.00  0.00    +0.000 N 
ENDROOT
BRANCH   1   2
ATOM      2  C   UNL     1       6.026   4.447  17.002  0.00  0.00    +0.000 C 
ATOM      3  S   UNL     1       7.653   4.378  17.460  0.00  0.00    +0.000 S 
BRANCH   2   4
ATOM      4  N   UNL     1       5.219   3.314  16.939  0.00  0.00    +0.000 N 
ATOM      5  H   UNL     1       5.684   2.461  16.654  0.00  0.00    +0.000 HD
BRANCH   4   6
ATOM      6  C   UNL     1       3.937   3.135  17.525  0.00  0.00    +0.000 A 
ATOM      7  C   UNL     1       2.783   3.739  17.012  0.00  0.00    +0.000 A 
ATOM      8  C   UNL     1       1.555   3.605  17.658  0.00  0.00    +0.000 A 
ATOM      9  C   UNL     1       1.454   2.815  18.798  0.00  0.00    +0.000 A 
ATOM     10  C   UNL     1       2.577   2.139  19.272  0.00  0.00    +0.000 A 
ATOM     11  C   UNL     1       3.814   2.291  18.634  0.00  0.00    +0.000 A 
ENDBRANCH   4   6
ENDBRANCH   2   4
ENDBRANCH   1   2
BRANCH   1  12
ATOM     12  C   UNL     1       5.248   6.830  17.555  0.00  0.00    +0.000 C 
BRANCH  12  19
ATOM     13  C   UNL     1       1.664   9.958  17.872  0.00  0.00    +0.000 C 
ATOM     14  C   UNL     1       2.011   8.563  18.288  0.00  0.00    +0.000 A 
ATOM     15  C   UNL     1       1.508   7.923  19.403  0.00  0.00    +0.000 A 
ATOM     16  C   UNL     1       2.154   6.771  19.902  0.00  0.00    +0.000 A 
ATOM     17  C   UNL     1       1.505   6.056  21.052  0.00  0.00    +0.000 C 
ATOM     18  C   UNL     1       3.385   6.370  19.324  0.00  0.00    +0.000 A 
ATOM     19  C   UNL     1       3.863   6.982  18.164  0.00  0.00    +0.000 A 
ATOM     20  C   UNL     1       3.072   7.979  17.626  0.00  0.00    +0.000 A 
BRANCH  18  21
ATOM     21  O   UNL     1       4.137   5.377  19.886  0.00  0.00    +0.000 OA
ATOM     22  H   UNL     1       5.079   5.524  19.672  0.00  0.00    +0.000 HD
ENDBRANCH  18  21
ENDBRANCH  12  19
ENDBRANCH   1  12
BRANCH   1  23
ATOM     23  C   UNL     1       5.192   5.943  15.147  0.00  0.00    +0.000 C 
BRANCH  23  24
ATOM     24  C   UNL     1       5.845   5.117  14.016  0.00  0.00    +0.000 A 
ATOM     25  C   UNL     1       7.175   5.207  13.573  0.00  0.00    +0.000 A 
ATOM     26  C   UNL     1       7.730   4.290  12.675  0.00  0.00    +0.000 A 
ATOM     27  C   UNL     1       6.931   3.290  12.129  0.00  0.00    +0.000 A 
ATOM     28  F   UNL     1       7.454   2.422  11.262  0.00  0.00    +0.000 F 
ATOM     29  C   UNL     1       5.591   3.214  12.474  0.00  0.00    +0.000 A 
ATOM     30  C   UNL     1       5.059   4.103  13.415  0.00  0.00    +0.000 A 
ENDBRANCH  23  24
ENDBRANCH   1  23
TORSDOF 8
ENDMDL
MODEL 6
REMARK VINA RESULT:      -7.2      1.926      2.830
REMARK  Name = 
REMARK  10 active torsions:
REMARK  status: ('A' for Active; 'I' for Inactive)
REMARK    1  A    between atoms: C_1  and  C_2
REMARK    2  A    between atoms: C_4  and  C_5
REMARK    3  A    between atoms: C_6  and  O_7
REMARK    4  A    between atoms: C_8  and  C_9
REMARK    5  A    between atoms: C_9  and  N_10
REMARK    6  A    between atoms: N_10  and  C_11
REMARK    7  A    between atoms: N_10  and  C_19
REMARK    8  A    between atoms: C_11  and  C_12
REMARK    9  A    between atoms: C_19  and  N_21
REMARK   10  A    between atoms: N_21  and  C_22
REMARK                            x       y       z     vdW  Elec       q    Type
REMARK                         _______ _______ _______ _____ _____    ______ ____
ROOT
ATOM      1  N   UNL     1       4.331   4.358  16.528  0.00  0.00    +0.000 N 
ENDROOT
BRANCH   1   2
ATOM      2  C   UNL     1       4.263   5.691  16.998  0.00  0.00    +0.000 C 
ATOM      3  S   UNL     1       2.966   6.285  17.906  0.00  0.00    +0.000 S 
BRANCH   2   4
ATOM      4  N   UNL     1       5.338   6.491  16.617  0.00  0.00    +0.000 N 
ATOM      5  H   UNL     1       5.208   7.019  15.764  0.00  0.00    +0.000 HD
BRANCH   4   6
ATOM      6  C   UNL     1       6.432   6.905  17.423  0.00  0.00    +0.000 A 
ATOM      7  C   UNL     1       7.040   8.159  17.282  0.00  0.00    +0.000 A 
ATOM      8  C   UNL     1       8.161   8.502  18.036  0.00  0.00    +0.000 A 
ATOM      9  C   UNL     1       8.656   7.613  18.985  0.00  0.00    +0.000 A 
ATOM     10  C   UNL     1       8.010   6.397  19.196  0.00  0.00    +0.000 A 
ATOM     11  C   UNL     1       6.897   6.045  18.424  0.00  0.00    +0.000 A 
ENDBRANCH   4   6
ENDBRANCH   2   4
ENDBRANCH   1   2
BRANCH   1  12
ATOM     12  C   UNL     1       5.633   3.736  16.053  0.00  0.00    +0.000 C 
BRANCH  12  19
ATOM     13  C   UNL     1       5.331   2.180  11.556  0.00  0.00    +0.000 C 
ATOM     14  C   UNL     1       5.832   3.357  12.334  0.00  0.00    +0.000 A 
ATOM     15  C   UNL     1       6.878   4.171  11.947  0.00  0.00    +0.000 A 
ATOM     16  C   UNL     1       7.499   5.014  12.895  0.00  0.00    +0.000 A 
ATOM     17  C   UNL     1       8.560   5.953  12.398  0.00  0.00    +0.000 C 
ATOM     18  C   UNL     1       7.120   4.910  14.257  0.00  0.00    +0.000 A 
ATOM     19  C   UNL     1       6.027   4.130  14.637  0.00  0.00    +0.000 A 
ATOM     20  C   UNL     1       5.351   3.484  13.621  0.00  0.00    +0.000 A 
BRANCH  18  21
ATOM     21  O   UNL     1       7.814   5.567  15.234  0.00  0.00    +0.000 OA
ATOM     22  H   UNL     1       7.213   6.173  15.707  0.00  0.00    +0.000 HD
ENDBRANCH  18  21
ENDBRANCH  12  19
ENDBRANCH   1  12
BRANCH   1  23
ATOM     23  C   UNL     1       3.226   3.392  16.875  0.00  0.00    +0.000 C 
BRANCH  23  24
ATOM     24  C   UNL     1       2.622   3.257  18.290  0.00  0.00    +0.000 A 
ATOM     25  C   UNL     1       1.258   3.273  18.625  0.00  0.00    +0.000 A 
ATOM     26  C   UNL     1       0.796   2.954  19.906  0.00  0.00    +0.000 A 
ATOM     27  C   UNL     1       1.709   2.683  20.920  0.00  0.00    +0.000 A 
ATOM     28  F   UNL     1       1.273   2.393  22.147  0.00  0.00    +0.000 F 
ATOM     29  C   UNL     1       3.068   2.738  20.656  0.00  0.00    +0.000 A 
ATOM     30  C   UNL     1       3.518   3.004  19.358  0.00  0.00    +0.000 A 
ENDBRANCH  23  24
ENDBRANCH   1  23
TORSDOF 8
ENDMDL
MODEL 7
REMARK VINA RESULT:      -7.2      2.396      3.978
REMARK  Name = 
REMARK  10 active torsions:
REMARK  status: ('A' for Active; 'I' for Inactive)
REMARK    1  A    between atoms: C_1  and  C_2
REMARK    2  A    between atoms: C_4  and  C_5
REMARK    3  A    between atoms: C_6  and  O_7
REMARK    4  A    between atoms: C_8  and  C_9
REMARK    5  A    between atoms: C_9  and  N_10
REMARK    6  A    between atoms: N_10  and  C_11
REMARK    7  A    between atoms: N_10  and  C_19
REMARK    8  A    between atoms: C_11  and  C_12
REMARK    9  A    between atoms: C_19  and  N_21
REMARK   10  A    between atoms: N_21  and  C_22
REMARK                            x       y       z     vdW  Elec       q    Type
REMARK                         _______ _______ _______ _____ _____    ______ ____
ROOT
ATOM      1  N   UNL     1       2.947   7.256  17.976  0.00  0.00    +0.000 N 
ENDROOT
BRANCH   1   2
ATOM      2  C   UNL     1       2.013   8.092  18.633  0.00  0.00    +0.000 C 
ATOM      3  S   UNL     1       1.699   8.002  20.292  0.00  0.00    +0.000 S 
BRANCH   2   4
ATOM      4  N   UNL     1       1.337   8.972  17.792  0.00  0.00    +0.000 N 
ATOM      5  H   UNL     1       1.230   8.666  16.834  0.00  0.00    +0.000 HD
BRANCH   4   6
ATOM      6  C   UNL     1       0.511  10.064  18.171  0.00  0.00    +0.000 A 
ATOM      7  C   UNL     1      -0.885  10.026  18.066  0.00  0.00    +0.000 A 
ATOM      8  C   UNL     1      -1.659  11.144  18.374  0.00  0.00    +0.000 A 
ATOM      9  C   UNL     1      -1.049  12.300  18.848  0.00  0.00    +0.000 A 
ATOM     10  C   UNL     1       0.331  12.324  19.039  0.00  0.00    +0.000 A 
ATOM     11  C   UNL     1       1.110  11.208  18.710  0.00  0.00    +0.000 A 
ENDBRANCH   4   6
ENDBRANCH   2   4
ENDBRANCH   1   2
BRANCH   1  12
ATOM     12  C   UNL     1       4.405   7.652  17.811  0.00  0.00    +0.000 C 
BRANCH  12  19
ATOM     13  C   UNL     1       8.112   5.197  19.533  0.00  0.00    +0.000 C 
ATOM     14  C   UNL     1       7.190   5.210  18.354  0.00  0.00    +0.000 A 
ATOM     15  C   UNL     1       7.515   4.752  17.092  0.00  0.00    +0.000 A 
ATOM     16  C   UNL     1       6.724   5.128  15.984  0.00  0.00    +0.000 A 
ATOM     17  C   UNL     1       7.061   4.519  14.653  0.00  0.00    +0.000 C 
ATOM     18  C   UNL     1       5.687   6.076  16.172  0.00  0.00    +0.000 A 
ATOM     19  C   UNL     1       5.324   6.494  17.454  0.00  0.00    +0.000 A 
ATOM     20  C   UNL     1       6.023   5.931  18.503  0.00  0.00    +0.000 A 
BRANCH  18  21
ATOM     21  O   UNL     1       5.017   6.609  15.107  0.00  0.00    +0.000 OA
ATOM     22  H   UNL     1       4.068   6.394  15.180  0.00  0.00    +0.000 HD
ENDBRANCH  18  21
ENDBRANCH  12  19
ENDBRANCH   1  12
BRANCH   1  23
ATOM     23  C   UNL     1       2.637   5.791  17.800  0.00  0.00    +0.000 C 
BRANCH  23  24
ATOM     24  C   UNL     1       2.340   4.833  18.975  0.00  0.00    +0.000 A 
ATOM     25  C   UNL     1       2.936   4.856  20.246  0.00  0.00    +0.000 A 
ATOM     26  C   UNL     1       2.471   4.073  21.308  0.00  0.00    +0.000 A 
ATOM     27  C   UNL     1       1.430   3.175  21.096  0.00  0.00    +0.000 A 
ATOM     28  F   UNL     1       0.992   2.416  22.102  0.00  0.00    +0.000 F 
ATOM     29  C   UNL     1       0.866   3.058  19.836  0.00  0.00    +0.000 A 
ATOM     30  C   UNL     1       1.303   3.885  18.795  0.00  0.00    +0.000 A 
ENDBRANCH  23  24
ENDBRANCH   1  23
TORSDOF 8
ENDMDL
MODEL 8
REMARK VINA RESULT:      -7.2      1.771      6.396
REMARK  Name = 
REMARK  10 active torsions:
REMARK  status: ('A' for Active; 'I' for Inactive)
REMARK    1  A    between atoms: C_1  and  C_2
REMARK    2  A    between atoms: C_4  and  C_5
REMARK    3  A    between atoms: C_6  and  O_7
REMARK    4  A    between atoms: C_8  and  C_9
REMARK    5  A    between atoms: C_9  and  N_10
REMARK    6  A    between atoms: N_10  and  C_11
REMARK    7  A    between atoms: N_10  and  C_19
REMARK    8  A    between atoms: C_11  and  C_12
REMARK    9  A    between atoms: C_19  and  N_21
REMARK   10  A    between atoms: N_21  and  C_22
REMARK                            x       y       z     vdW  Elec       q    Type
REMARK                         _______ _______ _______ _____ _____    ______ ____
ROOT
ATOM      1  N   UNL     1       4.856   5.662  16.747  0.00  0.00    +0.000 N 
ENDROOT
BRANCH   1   2
ATOM      2  C   UNL     1       6.255   5.454  16.802  0.00  0.00    +0.000 C 
ATOM      3  S   UNL     1       7.293   6.399  17.746  0.00  0.00    +0.000 S 
BRANCH   2   4
ATOM      4  N   UNL     1       6.717   4.428  15.982  0.00  0.00    +0.000 N 
ATOM      5  H   UNL     1       6.683   3.500  16.381  0.00  0.00    +0.000 HD
BRANCH   4   6
ATOM      6  C   UNL     1       6.916   4.473  14.575  0.00  0.00    +0.000 A 
ATOM      7  C   UNL     1       7.751   5.414  13.962  0.00  0.00    +0.000 A 
ATOM      8  C   UNL     1       7.861   5.479  12.574  0.00  0.00    +0.000 A 
ATOM      9  C   UNL     1       7.179   4.563  11.780  0.00  0.00    +0.000 A 
ATOM     10  C   UNL     1       6.411   3.567  12.381  0.00  0.00    +0.000 A 
ATOM     11  C   UNL     1       6.284   3.516  13.774  0.00  0.00    +0.000 A 
ENDBRANCH   4   6
ENDBRANCH   2   4
ENDBRANCH   1   2
BRANCH   1  12
ATOM     12  C   UNL     1       4.248   7.055  16.737  0.00  0.00    +0.000 C 
BRANCH  12  19
ATOM     13  C   UNL     1       2.600   5.048  20.736  0.00  0.00    +0.000 C 
ATOM     14  C   UNL     1       2.668   6.384  20.064  0.00  0.00    +0.000 A 
ATOM     15  C   UNL     1       1.750   7.402  20.236  0.00  0.00    +0.000 A 
ATOM     16  C   UNL     1       1.700   8.464  19.307  0.00  0.00    +0.000 A 
ATOM     17  C   UNL     1       0.756   9.596  19.599  0.00  0.00    +0.000 C 
ATOM     18  C   UNL     1       2.506   8.397  18.143  0.00  0.00    +0.000 A 
ATOM     19  C   UNL     1       3.471   7.399  17.999  0.00  0.00    +0.000 A 
ATOM     20  C   UNL     1       3.590   6.505  19.044  0.00  0.00    +0.000 A 
BRANCH  18  21
ATOM     21  O   UNL     1       2.359   9.303  17.130  0.00  0.00    +0.000 OA
ATOM     22  H   UNL     1       1.617   9.031  16.557  0.00  0.00    +0.000 HD
ENDBRANCH  18  21
ENDBRANCH  12  19
ENDBRANCH   1  12
BRANCH   1  23
ATOM     23  C   UNL     1       3.959   4.547  16.273  0.00  0.00    +0.000 C 
BRANCH  23  24
ATOM     24  C   UNL     1       3.217   3.583  17.226  0.00  0.00    +0.000 A 
ATOM     25  C   UNL     1       3.791   2.561  17.998  0.00  0.00    +0.000 A 
ATOM     26  C   UNL     1       3.072   1.864  18.975  0.00  0.00    +0.000 A 
ATOM     27  C   UNL     1       1.717   2.126  19.150  0.00  0.00    +0.000 A 
ATOM     28  F   UNL     1       1.025   1.453  20.071  0.00  0.00    +0.000 F 
ATOM     29  C   UNL     1       1.088   3.068  18.353  0.00  0.00    +0.000 A 
ATOM     30  C   UNL     1       1.829   3.798  17.416  0.00  0.00    +0.000 A 
ENDBRANCH  23  24
ENDBRANCH   1  23
TORSDOF 8
ENDMDL
MODEL 9
REMARK VINA RESULT:      -7.1      1.650      6.470
REMARK  Name = 
REMARK  10 active torsions:
REMARK  status: ('A' for Active; 'I' for Inactive)
REMARK    1  A    between atoms: C_1  and  C_2
REMARK    2  A    between atoms: C_4  and  C_5
REMARK    3  A    between atoms: C_6  and  O_7
REMARK    4  A    between atoms: C_8  and  C_9
REMARK    5  A    between atoms: C_9  and  N_10
REMARK    6  A    between atoms: N_10  and  C_11
REMARK    7  A    between atoms: N_10  and  C_19
REMARK    8  A    between atoms: C_11  and  C_12
REMARK    9  A    between atoms: C_19  and  N_21
REMARK   10  A    between atoms: N_21  and  C_22
REMARK                            x       y       z     vdW  Elec       q    Type
REMARK                         _______ _______ _______ _____ _____    ______ ____
ROOT
ATOM      1  N   UNL     1       4.137   5.888  17.328  0.00  0.00    +0.000 N 
ENDROOT
BRANCH   1   2
ATOM      2  C   UNL     1       5.548   5.777  17.314  0.00  0.00    +0.000 C 
ATOM      3  S   UNL     1       6.450   5.297  18.662  0.00  0.00    +0.000 S 
BRANCH   2   4
ATOM      4  N   UNL     1       6.142   6.136  16.107  0.00  0.00    +0.000 N 
ATOM      5  H   UNL     1       6.752   6.941  16.142  0.00  0.00    +0.000 HD
BRANCH   4   6
ATOM      6  C   UNL     1       6.259   5.341  14.935  0.00  0.00    +0.000 A 
ATOM      7  C   UNL     1       5.301   4.386  14.572  0.00  0.00    +0.000 A 
ATOM      8  C   UNL     1       5.488   3.570  13.458  0.00  0.00    +0.000 A 
ATOM      9  C   UNL     1       6.612   3.738  12.655  0.00  0.00    +0.000 A 
ATOM     10  C   UNL     1       7.531   4.741  12.956  0.00  0.00    +0.000 A 
ATOM     11  C   UNL     1       7.353   5.546  14.087  0.00  0.00    +0.000 A 
ENDBRANCH   4   6
ENDBRANCH   2   4
ENDBRANCH   1   2
BRANCH   1  12
ATOM     12  C   UNL     1       3.429   7.194  17.009  0.00  0.00    +0.000 C 
BRANCH  12  19
ATOM     13  C   UNL     1       1.469   6.102  21.216  0.00  0.00    +0.000 C 
ATOM     14  C   UNL     1       1.811   7.298  20.383  0.00  0.00    +0.000 A 
ATOM     15  C   UNL     1       1.140   8.504  20.421  0.00  0.00    +0.000 A 
ATOM     16  C   UNL     1       1.302   9.430  19.367  0.00  0.00    +0.000 A 
ATOM     17  C   UNL     1       0.632  10.767  19.509  0.00  0.00    +0.000 C 
ATOM     18  C   UNL     1       2.049   9.046  18.225  0.00  0.00    +0.000 A 
ATOM     19  C   UNL     1       2.772   7.852  18.212  0.00  0.00    +0.000 A 
ATOM     20  C   UNL     1       2.716   7.089  19.362  0.00  0.00    +0.000 A 
BRANCH  18  21
ATOM     21  O   UNL     1       2.081   9.830  17.107  0.00  0.00    +0.000 OA
ATOM     22  H   UNL     1       1.584   9.393  16.389  0.00  0.00    +0.000 HD
ENDBRANCH  18  21
ENDBRANCH  12  19
ENDBRANCH   1  12
BRANCH   1  23
ATOM     23  C   UNL     1       3.294   4.641  17.241  0.00  0.00    +0.000 C 
BRANCH  23  24
ATOM     24  C   UNL     1       2.826   3.838  18.476  0.00  0.00    +0.000 A 
ATOM     25  C   UNL     1       3.624   3.410  19.550  0.00  0.00    +0.000 A 
ATOM     26  C   UNL     1       3.082   2.856  20.714  0.00  0.00    +0.000 A 
ATOM     27  C   UNL     1       1.710   2.642  20.800  0.00  0.00    +0.000 A 
ATOM     28  F   UNL     1       1.190   2.101  21.903  0.00  0.00    +0.000 F 
ATOM     29  C   UNL     1       0.892   2.972  19.731  0.00  0.00    +0.000 A 
ATOM     30  C   UNL     1       1.439   3.576  18.593  0.00  0.00    +0.000 A 
ENDBRANCH  23  24
ENDBRANCH   1  23
TORSDOF 8
ENDMDL
