MODEL 1
REMARK VINA RESULT:      -9.2      0.000      0.000
REMARK  Name = 
REMARK  5 active torsions:
REMARK  status: ('A' for Active; 'I' for Inactive)
REMARK    1  A    between atoms: C_1  and  C_2
REMARK    2  A    between atoms: C_2  and  C_3
REMARK    3  A    between atoms: N_15  and  C_16
REMARK    4  A    between atoms: C_16  and  C_17
REMARK    5  A    between atoms: C_20  and  C_21
REMARK                            x       y       z     vdW  Elec       q    Type
REMARK                         _______ _______ _______ _____ _____    ______ ____
ROOT
ATOM      1  C   UNL     1       2.367  13.240  17.990  0.00  0.00    +0.000 C 
ATOM      2  C   UNL     1       2.554  14.314  19.094  0.00  0.00    +0.000 C 
ATOM      3  C   UNL     1       1.630  15.529  18.776  0.00  0.00    +0.000 C 
ATOM      4  C   UNL     1       0.139  15.210  18.873  0.00  0.00    +0.000 C 
ATOM      5  C   UNL     1      -0.196  14.606  20.232  0.00  0.00    +0.000 C 
ATOM      6  N   UNL     1       0.656  13.454  20.521  0.00  0.00    +0.000 N 
ATOM      7  C   UNL     1       0.044  12.228  20.709  0.00  0.00    +0.000 C 
ATOM      8  O   UNL     1      -1.174  12.069  20.615  0.00  0.00    +0.000 OA
ATOM      9  N   UNL     1       0.876  11.180  20.979  0.00  0.00    +0.000 N 
ATOM     10  C   UNL     1       2.108  13.726  20.468  0.00  0.00    +0.000 C 
ATOM     11  H   UNL     1       1.699  11.392  21.519  0.00  0.00    +0.000 HD
ENDROOT
BRANCH   2  12
ATOM     12  C   UNL     1       4.055  14.701  19.112  0.00  0.00    +0.000 A 
ATOM     13  C   UNL     1       4.839  14.761  17.945  0.00  0.00    +0.000 A 
ATOM     14  C   UNL     1       6.219  14.984  18.001  0.00  0.00    +0.000 A 
ATOM     15  C   UNL     1       6.851  15.160  19.225  0.00  0.00    +0.000 A 
ATOM     16  C   UNL     1       6.098  15.143  20.393  0.00  0.00    +0.000 A 
ATOM     17  C   UNL     1       4.716  14.928  20.336  0.00  0.00    +0.000 A 
ENDBRANCH   2  12
BRANCH   9  18
ATOM     18  C   UNL     1       0.335   9.852  21.193  0.00  0.00    +0.000 C 
BRANCH  18  19
ATOM     19  C   UNL     1       1.073   8.830  20.369  0.00  0.00    +0.000 A 
ATOM     20  C   UNL     1       1.368   7.567  20.886  0.00  0.00    +0.000 A 
ATOM     21  C   UNL     1       2.091   6.640  20.125  0.00  0.00    +0.000 A 
ATOM     22  C   UNL     1       2.532   6.932  18.822  0.00  0.00    +0.000 A 
ATOM     23  C   UNL     1       2.182   8.191  18.298  0.00  0.00    +0.000 A 
ATOM     24  C   UNL     1       1.471   9.123  19.060  0.00  0.00    +0.000 A 
BRANCH  22  25
ATOM     25  C   UNL     1       3.348   5.962  18.048  0.00  0.00    +0.000 A 
ATOM     26  C   UNL     1       3.155   4.574  18.179  0.00  0.00    +0.000 A 
ATOM     27  C   UNL     1       3.942   3.631  17.502  0.00  0.00    +0.000 A 
ATOM     28  C   UNL     1       4.936   4.114  16.652  0.00  0.00    +0.000 A 
ATOM     29  N   UNL     1       5.842   3.440  15.867  0.00  0.00    +0.000 N 
ATOM     30  C   UNL     1       6.634   4.328  15.188  0.00  0.00    +0.000 A 
ATOM     31  C   UNL     1       6.241   5.598  15.544  0.00  0.00    +0.000 A 
ATOM     32  C   UNL     1       5.167   5.475  16.469  0.00  0.00    +0.000 A 
ATOM     33  C   UNL     1       4.369   6.399  17.177  0.00  0.00    +0.000 A 
ATOM     34  H   UNL     1       5.905   2.433  15.801  0.00  0.00    +0.000 HD
ENDBRANCH  22  25
ENDBRANCH  18  19
ENDBRANCH   9  18
TORSDOF 4
ENDMDL
MODEL 2
REMARK VINA RESULT:      -9.1      2.076      3.131
REMARK  Name = 
REMARK  5 active torsions:
REMARK  status: ('A' for Active; 'I' for Inactive)
REMARK    1  A    between atoms: C_1  and  C_2
REMARK    2  A    between atoms: C_2  and  C_3
REMARK    3  A    between atoms: N_15  and  C_16
REMARK    4  A    between atoms: C_16  and  C_17
REMARK    5  A    between atoms: C_20  and  C_21
REMARK                            x       y       z     vdW  Elec       q    Type
REMARK                         _______ _______ _______ _____ _____    ______ ____
ROOT
ATOM      1  C   UNL     1      -0.777  15.564  20.058  0.00  0.00    +0.000 C 
ATOM      2  C   UNL     1       0.691  15.857  19.649  0.00  0.00    +0.000 C 
ATOM      3  C   UNL     1       1.422  16.536  20.847  0.00  0.00    +0.000 C 
ATOM      4  C   UNL     1       1.592  15.623  22.060  0.00  0.00    +0.000 C 
ATOM      5  C   UNL     1       2.279  14.321  21.664  0.00  0.00    +0.000 C 
ATOM      6  N   UNL     1       1.581  13.675  20.555  0.00  0.00    +0.000 N 
ATOM      7  C   UNL     1       1.059  12.412  20.768  0.00  0.00    +0.000 C 
ATOM      8  O   UNL     1       1.136  11.832  21.852  0.00  0.00    +0.000 OA
ATOM      9  N   UNL     1       0.418  11.843  19.705  0.00  0.00    +0.000 N 
ATOM     10  C   UNL     1       1.421  14.512  19.348  0.00  0.00    +0.000 C 
ATOM     11  H   UNL     1       0.786  12.061  18.794  0.00  0.00    +0.000 HD
ENDROOT
BRANCH   2  12
ATOM     12  C   UNL     1       0.646  16.763  18.391  0.00  0.00    +0.000 A 
ATOM     13  C   UNL     1       1.796  17.091  17.649  0.00  0.00    +0.000 A 
ATOM     14  C   UNL     1       1.751  18.014  16.599  0.00  0.00    +0.000 A 
ATOM     15  C   UNL     1       0.553  18.630  16.259  0.00  0.00    +0.000 A 
ATOM     16  C   UNL     1      -0.607  18.299  16.949  0.00  0.00    +0.000 A 
ATOM     17  C   UNL     1      -0.563  17.369  17.995  0.00  0.00    +0.000 A 
ENDBRANCH   2  12
BRANCH   9  18
ATOM     18  C   UNL     1      -0.165  10.520  19.825  0.00  0.00    +0.000 C 
BRANCH  18  19
ATOM     19  C   UNL     1       0.805   9.461  19.369  0.00  0.00    +0.000 A 
ATOM     20  C   UNL     1       1.167   8.408  20.211  0.00  0.00    +0.000 A 
ATOM     21  C   UNL     1       2.101   7.453  19.791  0.00  0.00    +0.000 A 
ATOM     22  C   UNL     1       2.694   7.505  18.517  0.00  0.00    +0.000 A 
ATOM     23  C   UNL     1       2.279   8.544  17.664  0.00  0.00    +0.000 A 
ATOM     24  C   UNL     1       1.356   9.506  18.084  0.00  0.00    +0.000 A 
BRANCH  22  25
ATOM     25  C   UNL     1       3.726   6.520  18.106  0.00  0.00    +0.000 A 
ATOM     26  C   UNL     1       4.247   5.582  19.018  0.00  0.00    +0.000 A 
ATOM     27  C   UNL     1       5.259   4.672  18.676  0.00  0.00    +0.000 A 
ATOM     28  C   UNL     1       5.736   4.702  17.366  0.00  0.00    +0.000 A 
ATOM     29  N   UNL     1       6.702   3.940  16.752  0.00  0.00    +0.000 N 
ATOM     30  C   UNL     1       6.841   4.317  15.442  0.00  0.00    +0.000 A 
ATOM     31  C   UNL     1       5.956   5.345  15.205  0.00  0.00    +0.000 A 
ATOM     32  C   UNL     1       5.251   5.596  16.414  0.00  0.00    +0.000 A 
ATOM     33  C   UNL     1       4.245   6.510  16.794  0.00  0.00    +0.000 A 
ATOM     34  H   UNL     1       7.226   3.205  17.207  0.00  0.00    +0.000 HD
ENDBRANCH  22  25
ENDBRANCH  18  19
ENDBRANCH   9  18
TORSDOF 4
ENDMDL
MODEL 3
REMARK VINA RESULT:      -8.9      0.885      1.230
REMARK  Name = 
REMARK  5 active torsions:
REMARK  status: ('A' for Active; 'I' for Inactive)
REMARK    1  A    between atoms: C_1  and  C_2
REMARK    2  A    between atoms: C_2  and  C_3
REMARK    3  A    between atoms: N_15  and  C_16
REMARK    4  A    between atoms: C_16  and  C_17
REMARK    5  A    between atoms: C_20  and  C_21
REMARK                            x       y       z     vdW  Elec       q    Type
REMARK                         _______ _______ _______ _____ _____    ______ ____
ROOT
ATOM      1  C   UNL     1       2.658  14.384  18.146  0.00  0.00    +0.000 C 
ATOM      2  C   UNL     1       3.304  14.936  19.444  0.00  0.00    +0.000 C 
ATOM      3  C   UNL     1       2.700  16.342  19.749  0.00  0.00    +0.000 C 
ATOM      4  C   UNL     1       1.215  16.308  20.106  0.00  0.00    +0.000 C 
ATOM      5  C   UNL     1       0.957  15.339  21.254  0.00  0.00    +0.000 C 
ATOM      6  N   UNL     1       1.505  14.017  20.959  0.00  0.00    +0.000 N 
ATOM      7  C   UNL     1       0.626  12.950  20.908  0.00  0.00    +0.000 C 
ATOM      8  O   UNL     1      -0.588  13.077  21.072  0.00  0.00    +0.000 OA
ATOM      9  N   UNL     1       1.179  11.732  20.633  0.00  0.00    +0.000 N 
ATOM     10  C   UNL     1       2.947  13.998  20.638  0.00  0.00    +0.000 C 
ATOM     11  H   UNL     1       2.106  11.573  20.993  0.00  0.00    +0.000 HD
ENDROOT
BRANCH   2  12
ATOM     12  C   UNL     1       4.836  14.988  19.211  0.00  0.00    +0.000 A 
ATOM     13  C   UNL     1       5.732  15.512  20.161  0.00  0.00    +0.000 A 
ATOM     14  C   UNL     1       7.093  15.668  19.875  0.00  0.00    +0.000 A 
ATOM     15  C   UNL     1       7.594  15.299  18.633  0.00  0.00    +0.000 A 
ATOM     16  C   UNL     1       6.740  14.744  17.687  0.00  0.00    +0.000 A 
ATOM     17  C   UNL     1       5.380  14.581  17.977  0.00  0.00    +0.000 A 
ENDBRANCH   2  12
BRANCH   9  18
ATOM     18  C   UNL     1       0.344  10.550  20.557  0.00  0.00    +0.000 C 
BRANCH  18  19
ATOM     19  C   UNL     1       1.063   9.426  19.856  0.00  0.00    +0.000 A 
ATOM     20  C   UNL     1       1.423   8.264  20.542  0.00  0.00    +0.000 A 
ATOM     21  C   UNL     1       2.128   7.246  19.889  0.00  0.00    +0.000 A 
ATOM     22  C   UNL     1       2.485   7.341  18.532  0.00  0.00    +0.000 A 
ATOM     23  C   UNL     1       2.070   8.496  17.845  0.00  0.00    +0.000 A 
ATOM     24  C   UNL     1       1.378   9.521  18.496  0.00  0.00    +0.000 A 
BRANCH  22  25
ATOM     25  C   UNL     1       3.283   6.279  17.869  0.00  0.00    +0.000 A 
ATOM     26  C   UNL     1       2.878   4.931  17.900  0.00  0.00    +0.000 A 
ATOM     27  C   UNL     1       3.634   3.898  17.327  0.00  0.00    +0.000 A 
ATOM     28  C   UNL     1       4.822   4.249  16.686  0.00  0.00    +0.000 A 
ATOM     29  N   UNL     1       5.751   3.467  16.040  0.00  0.00    +0.000 N 
ATOM     30  C   UNL     1       6.767   4.244  15.551  0.00  0.00    +0.000 A 
ATOM     31  C   UNL     1       6.497   5.551  15.892  0.00  0.00    +0.000 A 
ATOM     32  C   UNL     1       5.269   5.565  16.609  0.00  0.00    +0.000 A 
ATOM     33  C   UNL     1       4.494   6.580  17.210  0.00  0.00    +0.000 A 
ATOM     34  H   UNL     1       5.683   2.463  15.940  0.00  0.00    +0.000 HD
ENDBRANCH  22  25
ENDBRANCH  18  19
ENDBRANCH   9  18
TORSDOF 4
ENDMDL
MODEL 4
REMARK VINA RESULT:      -8.8      1.348      2.092
REMARK  Name = 
REMARK  5 active torsions:
REMARK  status: ('A' for Active; 'I' for Inactive)
REMARK    1  A    between atoms: C_1  and  C_2
REMARK    2  A    between atoms: C_2  and  C_3
REMARK    3  A    between atoms: N_15  and  C_16
REMARK    4  A    between atoms: C_16  and  C_17
REMARK    5  A    between atoms: C_20  and  C_21
REMARK                            x       y       z     vdW  Elec       q    Type
REMARK                         _______ _______ _______ _____ _____    ______ ____
ROOT
ATOM      1  C   UNL     1      -0.457  13.417  18.803  0.00  0.00    +0.000 C 
ATOM      2  C   UNL     1       0.444  14.248  19.754  0.00  0.00    +0.000 C 
ATOM      3  C   UNL     1      -0.424  15.348  20.437  0.00  0.00    +0.000 C 
ATOM      4  C   UNL     1      -1.485  14.792  21.387  0.00  0.00    +0.000 C 
ATOM      5  C   UNL     1      -0.851  13.870  22.422  0.00  0.00    +0.000 C 
ATOM      6  N   UNL     1      -0.054  12.827  21.781  0.00  0.00    +0.000 N 
ATOM      7  C   UNL     1      -0.421  11.510  21.993  0.00  0.00    +0.000 C 
ATOM      8  O   UNL     1      -1.398  11.191  22.671  0.00  0.00    +0.000 OA
ATOM      9  N   UNL     1       0.352  10.568  21.377  0.00  0.00    +0.000 N 
ATOM     10  C   UNL     1       1.005  13.321  20.875  0.00  0.00    +0.000 C 
ATOM     11  H   UNL     1       1.332  10.784  21.288  0.00  0.00    +0.000 HD
ENDROOT
BRANCH   2  12
ATOM     12  C   UNL     1       1.590  14.847  18.897  0.00  0.00    +0.000 A 
ATOM     13  C   UNL     1       2.736  14.112  18.540  0.00  0.00    +0.000 A 
ATOM     14  C   UNL     1       3.813  14.712  17.879  0.00  0.00    +0.000 A 
ATOM     15  C   UNL     1       3.771  16.062  17.553  0.00  0.00    +0.000 A 
ATOM     16  C   UNL     1       2.637  16.805  17.860  0.00  0.00    +0.000 A 
ATOM     17  C   UNL     1       1.556  16.203  18.514  0.00  0.00    +0.000 A 
ENDBRANCH   2  12
BRANCH   9  18
ATOM     18  C   UNL     1       0.052   9.158  21.536  0.00  0.00    +0.000 C 
BRANCH  18  19
ATOM     19  C   UNL     1       0.959   8.314  20.678  0.00  0.00    +0.000 A 
ATOM     20  C   UNL     1       1.490   8.814  19.487  0.00  0.00    +0.000 A 
ATOM     21  C   UNL     1       2.297   8.006  18.677  0.00  0.00    +0.000 A 
ATOM     22  C   UNL     1       2.614   6.682  19.031  0.00  0.00    +0.000 A 
ATOM     23  C   UNL     1       2.112   6.213  20.258  0.00  0.00    +0.000 A 
ATOM     24  C   UNL     1       1.296   7.013  21.063  0.00  0.00    +0.000 A 
BRANCH  22  25
ATOM     25  C   UNL     1       3.423   5.817  18.134  0.00  0.00    +0.000 A 
ATOM     26  C   UNL     1       3.070   4.475  17.896  0.00  0.00    +0.000 A 
ATOM     27  C   UNL     1       3.839   3.618  17.097  0.00  0.00    +0.000 A 
ATOM     28  C   UNL     1       4.986   4.146  16.504  0.00  0.00    +0.000 A 
ATOM     29  N   UNL     1       5.915   3.557  15.679  0.00  0.00    +0.000 N 
ATOM     30  C   UNL     1       6.881   4.464  15.330  0.00  0.00    +0.000 A 
ATOM     31  C   UNL     1       6.577   5.658  15.944  0.00  0.00    +0.000 A 
ATOM     32  C   UNL     1       5.380   5.469  16.689  0.00  0.00    +0.000 A 
ATOM     33  C   UNL     1       4.593   6.302  17.513  0.00  0.00    +0.000 A 
ATOM     34  H   UNL     1       5.880   2.594  15.374  0.00  0.00    +0.000 HD
ENDBRANCH  22  25
ENDBRANCH  18  19
ENDBRANCH   9  18
TORSDOF 4
ENDMDL
MODEL 5
REMARK VINA RESULT:      -8.7      0.442      1.278
REMARK  Name = 
REMARK  5 active torsions:
REMARK  status: ('A' for Active; 'I' for Inactive)
REMARK    1  A    between atoms: C_1  and  C_2
REMARK    2  A    between atoms: C_2  and  C_3
REMARK    3  A    between atoms: N_15  and  C_16
REMARK    4  A    between atoms: C_16  and  C_17
REMARK    5  A    between atoms: C_20  and  C_21
REMARK                            x       y       z     vdW  Elec       q    Type
REMARK                         _______ _______ _______ _____ _____    ______ ____
ROOT
ATOM      1  C   UNL     1       2.721  13.627  18.169  0.00  0.00    +0.000 C 
ATOM      2  C   UNL     1       2.868  14.554  19.405  0.00  0.00    +0.000 C 
ATOM      3  C   UNL     1       2.042  15.854  19.161  0.00  0.00    +0.000 C 
ATOM      4  C   UNL     1       0.533  15.621  19.100  0.00  0.00    +0.000 C 
ATOM      5  C   UNL     1       0.050  14.888  20.346  0.00  0.00    +0.000 C 
ATOM      6  N   UNL     1       0.811  13.660  20.563  0.00  0.00    +0.000 N 
ATOM      7  C   UNL     1       0.119  12.461  20.554  0.00  0.00    +0.000 C 
ATOM      8  O   UNL     1      -1.093  12.392  20.345  0.00  0.00    +0.000 OA
ATOM      9  N   UNL     1       0.868  11.338  20.763  0.00  0.00    +0.000 N 
ATOM     10  C   UNL     1       2.274  13.842  20.659  0.00  0.00    +0.000 C 
ATOM     11  H   UNL     1       1.651  11.435  21.388  0.00  0.00    +0.000 HD
ENDROOT
BRANCH   2  12
ATOM     12  C   UNL     1       4.381  14.840  19.588  0.00  0.00    +0.000 A 
ATOM     13  C   UNL     1       4.977  15.000  20.853  0.00  0.00    +0.000 A 
ATOM     14  C   UNL     1       6.315  15.386  20.988  0.00  0.00    +0.000 A 
ATOM     15  C   UNL     1       7.094  15.618  19.862  0.00  0.00    +0.000 A 
ATOM     16  C   UNL     1       6.544  15.433  18.599  0.00  0.00    +0.000 A 
ATOM     17  C   UNL     1       5.208  15.039  18.464  0.00  0.00    +0.000 A 
ENDBRANCH   2  12
BRANCH   9  18
ATOM     18  C   UNL     1       0.239  10.032  20.773  0.00  0.00    +0.000 C 
BRANCH  18  19
ATOM     19  C   UNL     1       1.098   9.015  20.068  0.00  0.00    +0.000 A 
ATOM     20  C   UNL     1       1.562   9.242  18.771  0.00  0.00    +0.000 A 
ATOM     21  C   UNL     1       2.324   8.271  18.111  0.00  0.00    +0.000 A 
ATOM     22  C   UNL     1       2.663   7.051  18.722  0.00  0.00    +0.000 A 
ATOM     23  C   UNL     1       2.230   6.860  20.047  0.00  0.00    +0.000 A 
ATOM     24  C   UNL     1       1.458   7.822  20.705  0.00  0.00    +0.000 A 
BRANCH  22  25
ATOM     25  C   UNL     1       3.423   6.006  17.989  0.00  0.00    +0.000 A 
ATOM     26  C   UNL     1       3.309   4.644  18.329  0.00  0.00    +0.000 A 
ATOM     27  C   UNL     1       4.050   3.638  17.691  0.00  0.00    +0.000 A 
ATOM     28  C   UNL     1       4.912   4.026  16.666  0.00  0.00    +0.000 A 
ATOM     29  N   UNL     1       5.745   3.275  15.870  0.00  0.00    +0.000 N 
ATOM     30  C   UNL     1       6.409   4.082  14.984  0.00  0.00    +0.000 A 
ATOM     31  C   UNL     1       6.005   5.378  15.213  0.00  0.00    +0.000 A 
ATOM     32  C   UNL     1       5.058   5.354  16.273  0.00  0.00    +0.000 A 
ATOM     33  C   UNL     1       4.310   6.345  16.946  0.00  0.00    +0.000 A 
ATOM     34  H   UNL     1       5.845   2.271  15.933  0.00  0.00    +0.000 HD
ENDBRANCH  22  25
ENDBRANCH  18  19
ENDBRANCH   9  18
TORSDOF 4
ENDMDL
MODEL 6
REMARK VINA RESULT:      -8.7      2.594      9.628
REMARK  Name = 
REMARK  5 active torsions:
REMARK  status: ('A' for Active; 'I' for Inactive)
REMARK    1  A    between atoms: C_1  and  C_2
REMARK    2  A    between atoms: C_2  and  C_3
REMARK    3  A    between atoms: N_15  and  C_16
REMARK    4  A    between atoms: C_16  and  C_17
REMARK    5  A    between atoms: C_20  and  C_21
REMARK                            x       y       z     vdW  Elec       q    Type
REMARK                         _______ _______ _______ _____ _____    ______ ____
ROOT
ATOM      1  C   UNL     1       5.033   3.913  19.048  0.00  0.00    +0.000 C 
ATOM      2  C   UNL     1       4.277   3.767  17.701  0.00  0.00    +0.000 C 
ATOM      3  C   UNL     1       3.841   2.279  17.527  0.00  0.00    +0.000 C 
ATOM      4  C   UNL     1       2.797   1.822  18.545  0.00  0.00    +0.000 C 
ATOM      5  C   UNL     1       1.590   2.753  18.536  0.00  0.00    +0.000 C 
ATOM      6  N   UNL     1       1.997   4.144  18.720  0.00  0.00    +0.000 N 
ATOM      7  C   UNL     1       1.514   4.818  19.827  0.00  0.00    +0.000 C 
ATOM      8  O   UNL     1       0.785   4.287  20.666  0.00  0.00    +0.000 OA
ATOM      9  N   UNL     1       1.917   6.116  19.959  0.00  0.00    +0.000 N 
ATOM     10  C   UNL     1       2.984   4.639  17.737  0.00  0.00    +0.000 C 
ATOM     11  H   UNL     1       2.047   6.632  19.104  0.00  0.00    +0.000 HD
ENDROOT
BRANCH   2  12
ATOM     12  C   UNL     1       5.238   4.236  16.579  0.00  0.00    +0.000 A 
ATOM     13  C   UNL     1       4.951   4.067  15.212  0.00  0.00    +0.000 A 
ATOM     14  C   UNL     1       5.890   4.380  14.223  0.00  0.00    +0.000 A 
ATOM     15  C   UNL     1       7.139   4.875  14.575  0.00  0.00    +0.000 A 
ATOM     16  C   UNL     1       7.439   5.088  15.915  0.00  0.00    +0.000 A 
ATOM     17  C   UNL     1       6.496   4.783  16.904  0.00  0.00    +0.000 A 
ENDBRANCH   2  12
BRANCH   9  18
ATOM     18  C   UNL     1       1.465   6.911  21.084  0.00  0.00    +0.000 C 
BRANCH  18  19
ATOM     19  C   UNL     1       1.282   8.353  20.686  0.00  0.00    +0.000 A 
ATOM     20  C   UNL     1       1.423   8.755  19.357  0.00  0.00    +0.000 A 
ATOM     21  C   UNL     1       1.291  10.104  19.006  0.00  0.00    +0.000 A 
ATOM     22  C   UNL     1       1.001  11.095  19.962  0.00  0.00    +0.000 A 
ATOM     23  C   UNL     1       0.813  10.664  21.288  0.00  0.00    +0.000 A 
ATOM     24  C   UNL     1       0.956   9.320  21.643  0.00  0.00    +0.000 A 
BRANCH  22  25
ATOM     25  C   UNL     1       0.922  12.529  19.586  0.00  0.00    +0.000 A 
ATOM     26  C   UNL     1      -0.288  13.108  19.156  0.00  0.00    +0.000 A 
ATOM     27  C   UNL     1      -0.385  14.445  18.745  0.00  0.00    +0.000 A 
ATOM     28  C   UNL     1       0.773  15.220  18.795  0.00  0.00    +0.000 A 
ATOM     29  N   UNL     1       0.978  16.540  18.468  0.00  0.00    +0.000 N 
ATOM     30  C   UNL     1       2.286  16.885  18.681  0.00  0.00    +0.000 A 
ATOM     31  C   UNL     1       2.943  15.768  19.147  0.00  0.00    +0.000 A 
ATOM     32  C   UNL     1       1.996  14.710  19.225  0.00  0.00    +0.000 A 
ATOM     33  C   UNL     1       2.065  13.355  19.616  0.00  0.00    +0.000 A 
ATOM     34  H   UNL     1       0.259  17.162  18.125  0.00  0.00    +0.000 HD
ENDBRANCH  22  25
ENDBRANCH  18  19
ENDBRANCH   9  18
TORSDOF 4
ENDMDL
MODEL 7
REMARK VINA RESULT:      -8.7      1.365      1.886
REMARK  Name = 
REMARK  5 active torsions:
REMARK  status: ('A' for Active; 'I' for Inactive)
REMARK    1  A    between atoms: C_1  and  C_2
REMARK    2  A    between atoms: C_2  and  C_3
REMARK    3  A    between atoms: N_15  and  C_16
REMARK    4  A    between atoms: C_16  and  C_17
REMARK    5  A    between atoms: C_20  and  C_21
REMARK                            x       y       z     vdW  Elec       q    Type
REMARK                         _______ _______ _______ _____ _____    ______ ____
ROOT
ATOM      1  C   UNL     1      -0.226  13.198  18.881  0.00  0.00    +0.000 C 
ATOM      2  C   UNL     1       0.580  14.083  19.868  0.00  0.00    +0.000 C 
ATOM      3  C   UNL     1      -0.360  15.190  20.435  0.00  0.00    +0.000 C 
ATOM      4  C   UNL     1      -1.484  14.649  21.318  0.00  0.00    +0.000 C 
ATOM      5  C   UNL     1      -0.921  13.781  22.436  0.00  0.00    +0.000 C 
ATOM      6  N   UNL     1      -0.056  12.731  21.903  0.00  0.00    +0.000 N 
ATOM      7  C   UNL     1      -0.416  11.416  22.137  0.00  0.00    +0.000 C 
ATOM      8  O   UNL     1      -1.439  11.103  22.747  0.00  0.00    +0.000 OA
ATOM      9  N   UNL     1       0.421  10.467  21.624  0.00  0.00    +0.000 N 
ATOM     10  C   UNL     1       1.064  13.212  21.067  0.00  0.00    +0.000 C 
ATOM     11  H   UNL     1       1.401  10.699  21.606  0.00  0.00    +0.000 HD
ENDROOT
BRANCH   2  12
ATOM     12  C   UNL     1       1.781  14.672  19.083  0.00  0.00    +0.000 A 
ATOM     13  C   UNL     1       1.754  15.952  18.499  0.00  0.00    +0.000 A 
ATOM     14  C   UNL     1       2.797  16.408  17.686  0.00  0.00    +0.000 A 
ATOM     15  C   UNL     1       3.899  15.599  17.442  0.00  0.00    +0.000 A 
ATOM     16  C   UNL     1       3.973  14.344  18.035  0.00  0.00    +0.000 A 
ATOM     17  C   UNL     1       2.932  13.891  18.854  0.00  0.00    +0.000 A 
ENDBRANCH   2  12
BRANCH   9  18
ATOM     18  C   UNL     1       0.134   9.058  21.814  0.00  0.00    +0.000 C 
BRANCH  18  19
ATOM     19  C   UNL     1       0.936   8.211  20.860  0.00  0.00    +0.000 A 
ATOM     20  C   UNL     1       1.157   6.856  21.114  0.00  0.00    +0.000 A 
ATOM     21  C   UNL     1       1.939   6.090  20.241  0.00  0.00    +0.000 A 
ATOM     22  C   UNL     1       2.513   6.640  19.081  0.00  0.00    +0.000 A 
ATOM     23  C   UNL     1       2.237   7.994  18.815  0.00  0.00    +0.000 A 
ATOM     24  C   UNL     1       1.468   8.765  19.690  0.00  0.00    +0.000 A 
BRANCH  22  25
ATOM     25  C   UNL     1       3.388   5.831  18.195  0.00  0.00    +0.000 A 
ATOM     26  C   UNL     1       3.035   4.522  17.815  0.00  0.00    +0.000 A 
ATOM     27  C   UNL     1       3.862   3.712  17.022  0.00  0.00    +0.000 A 
ATOM     28  C   UNL     1       5.068   4.258  16.585  0.00  0.00    +0.000 A 
ATOM     29  N   UNL     1       6.061   3.715  15.804  0.00  0.00    +0.000 N 
ATOM     30  C   UNL     1       7.072   4.622  15.623  0.00  0.00    +0.000 A 
ATOM     31  C   UNL     1       6.732   5.769  16.303  0.00  0.00    +0.000 A 
ATOM     32  C   UNL     1       5.467   5.551  16.914  0.00  0.00    +0.000 A 
ATOM     33  C   UNL     1       4.620   6.334  17.728  0.00  0.00    +0.000 A 
ATOM     34  H   UNL     1       6.039   2.780  15.419  0.00  0.00    +0.000 HD
ENDBRANCH  22  25
ENDBRANCH  18  19
ENDBRANCH   9  18
TORSDOF 4
ENDMDL
MODEL 8
REMARK VINA RESULT:      -8.7      4.339      9.892
REMARK  Name = 
REMARK  5 active torsions:
REMARK  status: ('A' for Active; 'I' for Inactive)
REMARK    1  A    between atoms: C_1  and  C_2
REMARK    2  A    between atoms: C_2  and  C_3
REMARK    3  A    between atoms: N_15  and  C_16
REMARK    4  A    between atoms: C_16  and  C_17
REMARK    5  A    between atoms: C_20  and  C_21
REMARK                            x       y       z     vdW  Elec       q    Type
REMARK                         _______ _______ _______ _____ _____    ______ ____
ROOT
ATOM      1  C   UNL     1       5.511   5.375  18.961  0.00  0.00    +0.000 C 
ATOM      2  C   UNL     1       4.616   4.685  17.898  0.00  0.00    +0.000 C 
ATOM      3  C   UNL     1       4.287   3.238  18.379  0.00  0.00    +0.000 C 
ATOM      4  C   UNL     1       3.411   3.191  19.630  0.00  0.00    +0.000 C 
ATOM      5  C   UNL     1       2.139   4.007  19.430  0.00  0.00    +0.000 C 
ATOM      6  N   UNL     1       2.449   5.368  18.999  0.00  0.00    +0.000 N 
ATOM      7  C   UNL     1       2.046   6.411  19.814  0.00  0.00    +0.000 C 
ATOM      8  O   UNL     1       1.467   6.235  20.886  0.00  0.00    +0.000 OA
ATOM      9  N   UNL     1       2.353   7.667  19.373  0.00  0.00    +0.000 N 
ATOM     10  C   UNL     1       3.270   5.462  17.774  0.00  0.00    +0.000 C 
ATOM     11  H   UNL     1       2.339   7.805  18.375  0.00  0.00    +0.000 HD
ENDROOT
BRANCH   2  12
ATOM     12  C   UNL     1       5.397   4.700  16.558  0.00  0.00    +0.000 A 
ATOM     13  C   UNL     1       4.884   4.142  15.373  0.00  0.00    +0.000 A 
ATOM     14  C   UNL     1       5.658   4.050  14.211  0.00  0.00    +0.000 A 
ATOM     15  C   UNL     1       6.965   4.521  14.203  0.00  0.00    +0.000 A 
ATOM     16  C   UNL     1       7.489   5.111  15.348  0.00  0.00    +0.000 A 
ATOM     17  C   UNL     1       6.710   5.209  16.507  0.00  0.00    +0.000 A 
ENDBRANCH   2  12
BRANCH   9  18
ATOM     18  C   UNL     1       1.974   8.829  20.152  0.00  0.00    +0.000 C 
BRANCH  18  19
ATOM     19  C   UNL     1       0.705   9.443  19.621  0.00  0.00    +0.000 A 
ATOM     20  C   UNL     1      -0.231  10.018  20.483  0.00  0.00    +0.000 A 
ATOM     21  C   UNL     1      -1.426  10.548  19.981  0.00  0.00    +0.000 A 
ATOM     22  C   UNL     1      -1.723  10.538  18.606  0.00  0.00    +0.000 A 
ATOM     23  C   UNL     1      -0.746  10.002  17.748  0.00  0.00    +0.000 A 
ATOM     24  C   UNL     1       0.442   9.460  18.247  0.00  0.00    +0.000 A 
BRANCH  22  25
ATOM     25  C   UNL     1      -3.019  11.051  18.093  0.00  0.00    +0.000 A 
ATOM     26  C   UNL     1      -3.379  10.908  16.740  0.00  0.00    +0.000 A 
ATOM     27  C   UNL     1      -4.572  11.425  16.213  0.00  0.00    +0.000 A 
ATOM     28  C   UNL     1      -5.431  12.085  17.092  0.00  0.00    +0.000 A 
ATOM     29  N   UNL     1      -6.651  12.678  16.868  0.00  0.00    +0.000 N 
ATOM     30  C   UNL     1      -7.143  13.205  18.033  0.00  0.00    +0.000 A 
ATOM     31  C   UNL     1      -6.224  12.955  19.027  0.00  0.00    +0.000 A 
ATOM     32  C   UNL     1      -5.138  12.246  18.444  0.00  0.00    +0.000 A 
ATOM     33  C   UNL     1      -3.922  11.728  18.940  0.00  0.00    +0.000 A 
ATOM     34  H   UNL     1      -7.114  12.713  15.970  0.00  0.00    +0.000 HD
ENDBRANCH  22  25
ENDBRANCH  18  19
ENDBRANCH   9  18
TORSDOF 4
ENDMDL
MODEL 9
REMARK VINA RESULT:      -8.7      0.784      1.179
REMARK  Name = 
REMARK  5 active torsions:
REMARK  status: ('A' for Active; 'I' for Inactive)
REMARK    1  A    between atoms: C_1  and  C_2
REMARK    2  A    between atoms: C_2  and  C_3
REMARK    3  A    between atoms: N_15  and  C_16
REMARK    4  A    between atoms: C_16  and  C_17
REMARK    5  A    between atoms: C_20  and  C_21
REMARK                            x       y       z     vdW  Elec       q    Type
REMARK                         _______ _______ _______ _____ _____    ______ ____
ROOT
ATOM      1  C   UNL     1       2.239  14.533  18.447  0.00  0.00    +0.000 C 
ATOM      2  C   UNL     1       2.886  14.989  19.782  0.00  0.00    +0.000 C 
ATOM      3  C   UNL     1       2.202  16.310  20.249  0.00  0.00    +0.000 C 
ATOM      4  C   UNL     1       0.733  16.139  20.634  0.00  0.00    +0.000 C 
ATOM      5  C   UNL     1       0.574  15.039  21.677  0.00  0.00    +0.000 C 
ATOM      6  N   UNL     1       1.198  13.795  21.231  0.00  0.00    +0.000 N 
ATOM      7  C   UNL     1       0.389  12.682  21.086  0.00  0.00    +0.000 C 
ATOM      8  O   UNL     1      -0.825  12.709  21.290  0.00  0.00    +0.000 OA
ATOM      9  N   UNL     1       1.012  11.541  20.669  0.00  0.00    +0.000 N 
ATOM     10  C   UNL     1       2.628  13.908  20.877  0.00  0.00    +0.000 C 
ATOM     11  H   UNL     1       1.957  11.408  20.989  0.00  0.00    +0.000 HD
ENDROOT
BRANCH   2  12
ATOM     12  C   UNL     1       4.404  15.169  19.521  0.00  0.00    +0.000 A 
ATOM     13  C   UNL     1       4.982  15.004  18.249  0.00  0.00    +0.000 A 
ATOM     14  C   UNL     1       6.368  15.043  18.063  0.00  0.00    +0.000 A 
ATOM     15  C   UNL     1       7.213  15.255  19.145  0.00  0.00    +0.000 A 
ATOM     16  C   UNL     1       6.671  15.458  20.409  0.00  0.00    +0.000 A 
ATOM     17  C   UNL     1       5.283  15.427  20.592  0.00  0.00    +0.000 A 
ENDBRANCH   2  12
BRANCH   9  18
ATOM     18  C   UNL     1       0.254  10.319  20.487  0.00  0.00    +0.000 C 
BRANCH  18  19
ATOM     19  C   UNL     1       1.089   9.263  19.809  0.00  0.00    +0.000 A 
ATOM     20  C   UNL     1       1.458   9.391  18.469  0.00  0.00    +0.000 A 
ATOM     21  C   UNL     1       2.199   8.383  17.839  0.00  0.00    +0.000 A 
ATOM     22  C   UNL     1       2.609   7.225  18.523  0.00  0.00    +0.000 A 
ATOM     23  C   UNL     1       2.271   7.137  19.886  0.00  0.00    +0.000 A 
ATOM     24  C   UNL     1       1.521   8.135  20.515  0.00  0.00    +0.000 A 
BRANCH  22  25
ATOM     25  C   UNL     1       3.343   6.137  17.827  0.00  0.00    +0.000 A 
ATOM     26  C   UNL     1       2.975   4.787  17.984  0.00  0.00    +0.000 A 
ATOM     27  C   UNL     1       3.678   3.734  17.382  0.00  0.00    +0.000 A 
ATOM     28  C   UNL     1       4.770   4.064  16.581  0.00  0.00    +0.000 A 
ATOM     29  N   UNL     1       5.630   3.259  15.871  0.00  0.00    +0.000 N 
ATOM     30  C   UNL     1       6.561   4.021  15.217  0.00  0.00    +0.000 A 
ATOM     31  C   UNL     1       6.307   5.341  15.513  0.00  0.00    +0.000 A 
ATOM     32  C   UNL     1       5.175   5.380  16.374  0.00  0.00    +0.000 A 
ATOM     33  C   UNL     1       4.457   6.417  17.008  0.00  0.00    +0.000 A 
ATOM     34  H   UNL     1       5.573   2.250  15.837  0.00  0.00    +0.000 HD
ENDBRANCH  22  25
ENDBRANCH  18  19
ENDBRANCH   9  18
TORSDOF 4
ENDMDL
