MODEL 1
REMARK VINA RESULT:      -7.2      0.000      0.000
REMARK  Name = 
REMARK  6 active torsions:
REMARK  status: ('A' for Active; 'I' for Inactive)
REMARK    1  A    between atoms: C_1  and  O_2
REMARK    2  A    between atoms: O_2  and  C_3
REMARK    3  A    between atoms: C_3  and  C_5
REMARK    4  A    between atoms: C_5  and  C_6
REMARK    5  A    between atoms: C_5  and  N_13
REMARK    6  A    between atoms: C_6  and  C_7
REMARK                            x       y       z     vdW  Elec       q    Type
REMARK                         _______ _______ _______ _____ _____    ______ ____
ROOT
ATOM      1  N   UNL     1      -1.364  11.527  19.443  0.00  0.00    +0.000 NA
ATOM      2  C   UNL     1      -1.652  11.616  17.984  0.00  0.00    +0.000 C 
ATOM      3  C   UNL     1      -2.319  10.325  17.586  0.00  0.00    +0.000 C 
ATOM      4  C   UNL     1      -3.545  10.448  17.055  0.00  0.00    +0.000 C 
ATOM      5  C   UNL     1      -4.562  10.701  18.118  0.00  0.00    +0.000 C 
ATOM      6  O   UNL     1      -4.528  12.132  18.190  0.00  0.00    +0.000 OA
ATOM      7  C   UNL     1      -5.026  12.481  19.400  0.00  0.00    +0.000 A 
ATOM      8  C   UNL     1      -6.435  12.653  19.447  0.00  0.00    +0.000 A 
ATOM      9 CL   UNL     1      -7.432  12.516  18.027  0.00  0.00    +0.000 Cl
ATOM     10  C   UNL     1      -7.087  12.913  20.641  0.00  0.00    +0.000 A 
ATOM     11  C   UNL     1      -6.296  13.006  21.780  0.00  0.00    +0.000 A 
ATOM     12 CL   UNL     1      -7.106  13.338  23.273  0.00  0.00    +0.000 Cl
ATOM     13  C   UNL     1      -4.878  12.854  21.740  0.00  0.00    +0.000 A 
ATOM     14  C   UNL     1      -4.196  12.577  20.524  0.00  0.00    +0.000 A 
ATOM     15  S   UNL     1      -2.281  12.574  20.534  0.00  0.00    +0.000 S 
ATOM     16  O   UNL     1      -1.986  12.081  21.864  0.00  0.00    +0.000 OA
ATOM     17  O   UNL     1      -1.938  13.936  20.179  0.00  0.00    +0.000 OA
ENDROOT
BRANCH   1  18
ATOM     18  C   UNL     1       0.236  11.346  19.565  0.00  0.00    +0.000 C 
BRANCH  18  19
ATOM     19  C   UNL     1       1.307  12.288  20.096  0.00  0.00    +0.000 C 
ATOM     20  O   UNL     1       1.543  12.433  21.313  0.00  0.00    +0.000 OA
BRANCH  19  22
ATOM     21  C   UNL     1       1.423  14.168  18.735  0.00  0.00    +0.000 C 
ATOM     22  O   UNL     1       1.996  12.912  19.123  0.00  0.00    +0.000 OA
ENDBRANCH  19  22
ENDBRANCH  18  19
BRANCH  18  23
ATOM     23  C   UNL     1       0.954  10.436  18.473  0.00  0.00    +0.000 C 
BRANCH  23  24
ATOM     24  C   UNL     1       1.511   9.075  18.833  0.00  0.00    +0.000 A 
ATOM     25  C   UNL     1       1.374   8.541  20.117  0.00  0.00    +0.000 A 
ATOM     26  C   UNL     1       1.913   7.305  20.443  0.00  0.00    +0.000 A 
ATOM     27  C   UNL     1       2.584   6.557  19.480  0.00  0.00    +0.000 A 
ATOM     28  C   UNL     1       2.721   7.062  18.189  0.00  0.00    +0.000 A 
ATOM     29  C   UNL     1       2.188   8.313  17.862  0.00  0.00    +0.000 A 
ENDBRANCH  23  24
ENDBRANCH  18  23
ENDBRANCH   1  18
TORSDOF 5
ENDMDL
MODEL 2
REMARK VINA RESULT:      -7.1      0.481      1.205
REMARK  Name = 
REMARK  6 active torsions:
REMARK  status: ('A' for Active; 'I' for Inactive)
REMARK    1  A    between atoms: C_1  and  O_2
REMARK    2  A    between atoms: O_2  and  C_3
REMARK    3  A    between atoms: C_3  and  C_5
REMARK    4  A    between atoms: C_5  and  C_6
REMARK    5  A    between atoms: C_5  and  N_13
REMARK    6  A    between atoms: C_6  and  C_7
REMARK                            x       y       z     vdW  Elec       q    Type
REMARK                         _______ _______ _______ _____ _____    ______ ____
ROOT
ATOM      1  N   UNL     1      -1.235  11.569  19.307  0.00  0.00    +0.000 NA
ATOM      2  C   UNL     1      -1.527  11.659  17.849  0.00  0.00    +0.000 C 
ATOM      3  C   UNL     1      -2.143  10.346  17.439  0.00  0.00    +0.000 C 
ATOM      4  C   UNL     1      -3.373  10.425  16.909  0.00  0.00    +0.000 C 
ATOM      5  C   UNL     1      -4.399  10.629  17.975  0.00  0.00    +0.000 C 
ATOM      6  O   UNL     1      -4.421  12.059  18.059  0.00  0.00    +0.000 OA
ATOM      7  C   UNL     1      -4.933  12.378  19.272  0.00  0.00    +0.000 A 
ATOM      8  C   UNL     1      -6.347  12.493  19.320  0.00  0.00    +0.000 A 
ATOM      9 CL   UNL     1      -7.339  12.329  17.899  0.00  0.00    +0.000 Cl
ATOM     10  C   UNL     1      -7.009  12.716  20.516  0.00  0.00    +0.000 A 
ATOM     11  C   UNL     1      -6.222  12.830  21.656  0.00  0.00    +0.000 A 
ATOM     12 CL   UNL     1      -7.044  13.117  23.152  0.00  0.00    +0.000 Cl
ATOM     13  C   UNL     1      -4.799  12.735  21.616  0.00  0.00    +0.000 A 
ATOM     14  C   UNL     1      -4.106  12.496  20.397  0.00  0.00    +0.000 A 
ATOM     15  S   UNL     1      -2.193  12.569  20.408  0.00  0.00    +0.000 S 
ATOM     16  O   UNL     1      -1.879  12.076  21.733  0.00  0.00    +0.000 OA
ATOM     17  O   UNL     1      -1.905  13.946  20.064  0.00  0.00    +0.000 OA
ENDROOT
BRANCH   1  18
ATOM     18  C   UNL     1       0.370  11.450  19.428  0.00  0.00    +0.000 C 
BRANCH  18  19
ATOM     19  C   UNL     1       1.412  12.462  19.882  0.00  0.00    +0.000 C 
ATOM     20  O   UNL     1       2.240  12.981  19.107  0.00  0.00    +0.000 OA
BRANCH  19  22
ATOM     21  C   UNL     1       1.627  14.141  21.475  0.00  0.00    +0.000 C 
ATOM     22  O   UNL     1       1.319  12.770  21.189  0.00  0.00    +0.000 OA
ENDBRANCH  19  22
ENDBRANCH  18  19
BRANCH  18  23
ATOM     23  C   UNL     1       1.111  10.490  18.396  0.00  0.00    +0.000 C 
BRANCH  23  24
ATOM     24  C   UNL     1       1.584   9.112  18.810  0.00  0.00    +0.000 A 
ATOM     25  C   UNL     1       2.202   8.244  17.906  0.00  0.00    +0.000 A 
ATOM     26  C   UNL     1       2.606   6.974  18.290  0.00  0.00    +0.000 A 
ATOM     27  C   UNL     1       2.422   6.547  19.602  0.00  0.00    +0.000 A 
ATOM     28  C   UNL     1       1.820   7.400  20.525  0.00  0.00    +0.000 A 
ATOM     29  C   UNL     1       1.403   8.676  20.136  0.00  0.00    +0.000 A 
ENDBRANCH  23  24
ENDBRANCH  18  23
ENDBRANCH   1  18
TORSDOF 5
ENDMDL
MODEL 3
REMARK VINA RESULT:      -7.1      1.091      1.542
REMARK  Name = 
REMARK  6 active torsions:
REMARK  status: ('A' for Active; 'I' for Inactive)
REMARK    1  A    between atoms: C_1  and  O_2
REMARK    2  A    between atoms: O_2  and  C_3
REMARK    3  A    between atoms: C_3  and  C_5
REMARK    4  A    between atoms: C_5  and  C_6
REMARK    5  A    between atoms: C_5  and  N_13
REMARK    6  A    between atoms: C_6  and  C_7
REMARK                            x       y       z     vdW  Elec       q    Type
REMARK                         _______ _______ _______ _____ _____    ______ ____
ROOT
ATOM      1  N   UNL     1      -1.419  11.040  19.640  0.00  0.00    +0.000 NA
ATOM      2  C   UNL     1      -1.468  10.957  18.154  0.00  0.00    +0.000 C 
ATOM      3  C   UNL     1      -2.263   9.724  17.806  0.00  0.00    +0.000 C 
ATOM      4  C   UNL     1      -3.362   9.935  17.064  0.00  0.00    +0.000 C 
ATOM      5  C   UNL     1      -4.474  10.475  17.902  0.00  0.00    +0.000 C 
ATOM      6  O   UNL     1      -4.226  11.883  17.807  0.00  0.00    +0.000 OA
ATOM      7  C   UNL     1      -4.838  12.467  18.865  0.00  0.00    +0.000 A 
ATOM      8  C   UNL     1      -6.194  12.833  18.652  0.00  0.00    +0.000 A 
ATOM      9 CL   UNL     1      -6.976  12.630  17.111  0.00  0.00    +0.000 Cl
ATOM     10  C   UNL     1      -6.967  13.347  19.679  0.00  0.00    +0.000 A 
ATOM     11  C   UNL     1      -6.351  13.494  20.916  0.00  0.00    +0.000 A 
ATOM     12 CL   UNL     1      -7.313  14.144  22.200  0.00  0.00    +0.000 Cl
ATOM     13  C   UNL     1      -4.985  13.147  21.135  0.00  0.00    +0.000 A 
ATOM     14  C   UNL     1      -4.181  12.608  20.094  0.00  0.00    +0.000 A 
ATOM     15  S   UNL     1      -2.314  12.347  20.428  0.00  0.00    +0.000 S 
ATOM     16  O   UNL     1      -2.302  12.014  21.838  0.00  0.00    +0.000 OA
ATOM     17  O   UNL     1      -1.712  13.585  19.975  0.00  0.00    +0.000 OA
ENDROOT
BRANCH   1  18
ATOM     18  C   UNL     1       0.096  10.662  20.052  0.00  0.00    +0.000 C 
BRANCH  18  19
ATOM     19  C   UNL     1       0.980  11.182  21.177  0.00  0.00    +0.000 C 
ATOM     20  O   UNL     1       1.440  12.341  21.200  0.00  0.00    +0.000 OA
BRANCH  19  22
ATOM     21  C   UNL     1      -0.041   9.788  22.732  0.00  0.00    +0.000 C 
ATOM     22  O   UNL     1       1.177  10.281  22.157  0.00  0.00    +0.000 OA
ENDBRANCH  19  22
ENDBRANCH  18  19
BRANCH  18  23
ATOM     23  C   UNL     1       1.084  10.225  18.882  0.00  0.00    +0.000 C 
BRANCH  23  24
ATOM     24  C   UNL     1       1.752   8.866  18.890  0.00  0.00    +0.000 A 
ATOM     25  C   UNL     1       1.569   7.963  19.941  0.00  0.00    +0.000 A 
ATOM     26  C   UNL     1       2.208   6.732  19.951  0.00  0.00    +0.000 A 
ATOM     27  C   UNL     1       3.031   6.362  18.891  0.00  0.00    +0.000 A 
ATOM     28  C   UNL     1       3.218   7.240  17.825  0.00  0.00    +0.000 A 
ATOM     29  C   UNL     1       2.583   8.485  17.819  0.00  0.00    +0.000 A 
ENDBRANCH  23  24
ENDBRANCH  18  23
ENDBRANCH   1  18
TORSDOF 5
ENDMDL
MODEL 4
REMARK VINA RESULT:      -6.6      4.004      7.321
REMARK  Name = 
REMARK  6 active torsions:
REMARK  status: ('A' for Active; 'I' for Inactive)
REMARK    1  A    between atoms: C_1  and  O_2
REMARK    2  A    between atoms: O_2  and  C_3
REMARK    3  A    between atoms: C_3  and  C_5
REMARK    4  A    between atoms: C_5  and  C_6
REMARK    5  A    between atoms: C_5  and  N_13
REMARK    6  A    between atoms: C_6  and  C_7
REMARK                            x       y       z     vdW  Elec       q    Type
REMARK                         _______ _______ _______ _____ _____    ______ ____
ROOT
ATOM      1  N   UNL     1      -2.612  12.181  22.506  0.00  0.00    +0.000 NA
ATOM      2  C   UNL     1      -1.170  12.020  22.838  0.00  0.00    +0.000 C 
ATOM      3  C   UNL     1      -0.941  10.558  23.122  0.00  0.00    +0.000 C 
ATOM      4  C   UNL     1      -0.039   9.950  22.336  0.00  0.00    +0.000 C 
ATOM      5  C   UNL     1      -0.621   9.648  20.994  0.00  0.00    +0.000 C 
ATOM      6  O   UNL     1      -0.315  10.858  20.289  0.00  0.00    +0.000 OA
ATOM      7  C   UNL     1      -1.168  10.932  19.239  0.00  0.00    +0.000 A 
ATOM      8  C   UNL     1      -0.721  10.292  18.052  0.00  0.00    +0.000 A 
ATOM      9 CL   UNL     1       0.849   9.551  17.934  0.00  0.00    +0.000 Cl
ATOM     10  C   UNL     1      -1.535  10.205  16.935  0.00  0.00    +0.000 A 
ATOM     11  C   UNL     1      -2.797  10.781  17.031  0.00  0.00    +0.000 A 
ATOM     12 CL   UNL     1      -3.814  10.681  15.634  0.00  0.00    +0.000 Cl
ATOM     13  C   UNL     1      -3.247  11.442  18.212  0.00  0.00    +0.000 A 
ATOM     14  C   UNL     1      -2.427  11.530  19.371  0.00  0.00    +0.000 A 
ATOM     15  S   UNL     1      -3.039  12.594  20.840  0.00  0.00    +0.000 S 
ATOM     16  O   UNL     1      -4.475  12.417  20.764  0.00  0.00    +0.000 OA
ATOM     17  O   UNL     1      -2.460  13.896  20.580  0.00  0.00    +0.000 OA
ENDROOT
BRANCH   1  18
ATOM     18  C   UNL     1      -3.276  12.927  23.775  0.00  0.00    +0.000 C 
BRANCH  18  19
ATOM     19  C   UNL     1      -4.426  12.515  24.682  0.00  0.00    +0.000 C 
ATOM     20  O   UNL     1      -4.387  12.627  25.925  0.00  0.00    +0.000 OA
BRANCH  19  22
ATOM     21  C   UNL     1      -6.641  12.923  24.108  0.00  0.00    +0.000 C 
ATOM     22  O   UNL     1      -5.499  12.062  24.008  0.00  0.00    +0.000 OA
ENDBRANCH  19  22
ENDBRANCH  18  19
BRANCH  18  23
ATOM     23  C   UNL     1      -3.266  14.520  23.773  0.00  0.00    +0.000 C 
BRANCH  23  24
ATOM     24  C   UNL     1      -2.130  15.296  24.407  0.00  0.00    +0.000 A 
ATOM     25  C   UNL     1      -1.991  15.393  25.794  0.00  0.00    +0.000 A 
ATOM     26  C   UNL     1      -0.962  16.129  26.363  0.00  0.00    +0.000 A 
ATOM     27  C   UNL     1      -0.028  16.770  25.554  0.00  0.00    +0.000 A 
ATOM     28  C   UNL     1      -0.138  16.676  24.168  0.00  0.00    +0.000 A 
ATOM     29  C   UNL     1      -1.181  15.943  23.593  0.00  0.00    +0.000 A 
ENDBRANCH  23  24
ENDBRANCH  18  23
ENDBRANCH   1  18
TORSDOF 5
ENDMDL
MODEL 5
REMARK VINA RESULT:      -6.6      0.893      1.005
REMARK  Name = 
REMARK  6 active torsions:
REMARK  status: ('A' for Active; 'I' for Inactive)
REMARK    1  A    between atoms: C_1  and  O_2
REMARK    2  A    between atoms: O_2  and  C_3
REMARK    3  A    between atoms: C_3  and  C_5
REMARK    4  A    between atoms: C_5  and  C_6
REMARK    5  A    between atoms: C_5  and  N_13
REMARK    6  A    between atoms: C_6  and  C_7
REMARK                            x       y       z     vdW  Elec       q    Type
REMARK                         _______ _______ _______ _____ _____    ______ ____
ROOT
ATOM      1  N   UNL     1      -1.398  12.072  19.634  0.00  0.00    +0.000 NA
ATOM      2  C   UNL     1      -1.632  12.183  18.167  0.00  0.00    +0.000 C 
ATOM      3  C   UNL     1      -2.043  10.817  17.680  0.00  0.00    +0.000 C 
ATOM      4  C   UNL     1      -3.247  10.751  17.091  0.00  0.00    +0.000 C 
ATOM      5  C   UNL     1      -4.339  10.770  18.108  0.00  0.00    +0.000 C 
ATOM      6  O   UNL     1      -4.560  12.179  18.242  0.00  0.00    +0.000 OA
ATOM      7  C   UNL     1      -5.166  12.375  19.438  0.00  0.00    +0.000 A 
ATOM      8  C   UNL     1      -6.584  12.295  19.417  0.00  0.00    +0.000 A 
ATOM      9 CL   UNL     1      -7.477  12.059  17.942  0.00  0.00    +0.000 Cl
ATOM     10  C   UNL     1      -7.324  12.377  20.585  0.00  0.00    +0.000 A 
ATOM     11  C   UNL     1      -6.614  12.548  21.767  0.00  0.00    +0.000 A 
ATOM     12 CL   UNL     1      -7.536  12.658  23.228  0.00  0.00    +0.000 Cl
ATOM     13  C   UNL     1      -5.191  12.648  21.796  0.00  0.00    +0.000 A 
ATOM     14  C   UNL     1      -4.417  12.556  20.607  0.00  0.00    +0.000 A 
ATOM     15  S   UNL     1      -2.534  12.886  20.719  0.00  0.00    +0.000 S 
ATOM     16  O   UNL     1      -2.217  12.385  22.041  0.00  0.00    +0.000 OA
ATOM     17  O   UNL     1      -2.421  14.303  20.440  0.00  0.00    +0.000 OA
ENDROOT
BRANCH   1  18
ATOM     18  C   UNL     1       0.201  12.166  19.834  0.00  0.00    +0.000 C 
BRANCH  18  19
ATOM     19  C   UNL     1       1.072  13.290  20.374  0.00  0.00    +0.000 C 
ATOM     20  O   UNL     1       0.792  14.498  20.229  0.00  0.00    +0.000 OA
BRANCH  19  22
ATOM     21  C   UNL     1       3.254  13.759  21.025  0.00  0.00    +0.000 C 
ATOM     22  O   UNL     1       2.145  12.850  21.058  0.00  0.00    +0.000 OA
ENDBRANCH  19  22
ENDBRANCH  18  19
BRANCH  18  23
ATOM     23  C   UNL     1       1.113  11.356  18.809  0.00  0.00    +0.000 C 
BRANCH  23  24
ATOM     24  C   UNL     1       1.465   9.904  19.055  0.00  0.00    +0.000 A 
ATOM     25  C   UNL     1       1.203   9.281  20.279  0.00  0.00    +0.000 A 
ATOM     26  C   UNL     1       1.555   7.958  20.501  0.00  0.00    +0.000 A 
ATOM     27  C   UNL     1       2.159   7.214  19.492  0.00  0.00    +0.000 A 
ATOM     28  C   UNL     1       2.417   7.809  18.258  0.00  0.00    +0.000 A 
ATOM     29  C   UNL     1       2.073   9.146  18.036  0.00  0.00    +0.000 A 
ENDBRANCH  23  24
ENDBRANCH  18  23
ENDBRANCH   1  18
TORSDOF 5
ENDMDL
MODEL 6
REMARK VINA RESULT:      -6.5      3.876      5.965
REMARK  Name = 
REMARK  6 active torsions:
REMARK  status: ('A' for Active; 'I' for Inactive)
REMARK    1  A    between atoms: C_1  and  O_2
REMARK    2  A    between atoms: O_2  and  C_3
REMARK    3  A    between atoms: C_3  and  C_5
REMARK    4  A    between atoms: C_5  and  C_6
REMARK    5  A    between atoms: C_5  and  N_13
REMARK    6  A    between atoms: C_6  and  C_7
REMARK                            x       y       z     vdW  Elec       q    Type
REMARK                         _______ _______ _______ _____ _____    ______ ____
ROOT
ATOM      1  N   UNL     1       1.496   7.811  19.944  0.00  0.00    +0.000 NA
ATOM      2  C   UNL     1       2.472   8.619  19.160  0.00  0.00    +0.000 C 
ATOM      3  C   UNL     1       1.783   9.026  17.883  0.00  0.00    +0.000 C 
ATOM      4  C   UNL     1       1.688  10.349  17.674  0.00  0.00    +0.000 C 
ATOM      5  C   UNL     1       0.600  10.941  18.507  0.00  0.00    +0.000 C 
ATOM      6  O   UNL     1       1.318  11.255  19.707  0.00  0.00    +0.000 OA
ATOM      7  C   UNL     1       0.403  11.355  20.702  0.00  0.00    +0.000 A 
ATOM      8  C   UNL     1      -0.166  12.645  20.872  0.00  0.00    +0.000 A 
ATOM      9 CL   UNL     1       0.347  14.015  19.930  0.00  0.00    +0.000 Cl
ATOM     10  C   UNL     1      -1.184  12.865  21.785  0.00  0.00    +0.000 A 
ATOM     11  C   UNL     1      -1.609  11.769  22.527  0.00  0.00    +0.000 A 
ATOM     12 CL   UNL     1      -2.875  12.042  23.675  0.00  0.00    +0.000 Cl
ATOM     13  C   UNL     1      -1.030  10.473  22.377  0.00  0.00    +0.000 A 
ATOM     14  C   UNL     1       0.008  10.230  21.436  0.00  0.00    +0.000 A 
ATOM     15  S   UNL     1       0.850   8.510  21.435  0.00  0.00    +0.000 S 
ATOM     16  O   UNL     1      -0.243   7.638  21.816  0.00  0.00    +0.000 OA
ATOM     17  O   UNL     1       1.977   8.684  22.328  0.00  0.00    +0.000 OA
ENDROOT
BRANCH   1  18
ATOM     18  C   UNL     1       2.022   6.287  19.865  0.00  0.00    +0.000 C 
BRANCH  18  19
ATOM     19  C   UNL     1       1.522   5.024  20.552  0.00  0.00    +0.000 C 
ATOM     20  O   UNL     1       0.449   4.463  20.248  0.00  0.00    +0.000 OA
BRANCH  19  22
ATOM     21  C   UNL     1       2.323   3.130  21.635  0.00  0.00    +0.000 C 
ATOM     22  O   UNL     1       2.371   4.555  21.485  0.00  0.00    +0.000 OA
ENDBRANCH  19  22
ENDBRANCH  18  19
BRANCH  18  23
ATOM     23  C   UNL     1       3.579   6.063  19.614  0.00  0.00    +0.000 C 
BRANCH  23  24
ATOM     24  C   UNL     1       4.091   5.550  18.284  0.00  0.00    +0.000 A 
ATOM     25  C   UNL     1       4.036   4.194  17.950  0.00  0.00    +0.000 A 
ATOM     26  C   UNL     1       4.533   3.732  16.740  0.00  0.00    +0.000 A 
ATOM     27  C   UNL     1       5.078   4.622  15.820  0.00  0.00    +0.000 A 
ATOM     28  C   UNL     1       5.131   5.981  16.125  0.00  0.00    +0.000 A 
ATOM     29  C   UNL     1       4.640   6.447  17.349  0.00  0.00    +0.000 A 
ENDBRANCH  23  24
ENDBRANCH  18  23
ENDBRANCH   1  18
TORSDOF 5
ENDMDL
MODEL 7
REMARK VINA RESULT:      -6.5      0.796      1.559
REMARK  Name = 
REMARK  6 active torsions:
REMARK  status: ('A' for Active; 'I' for Inactive)
REMARK    1  A    between atoms: C_1  and  O_2
REMARK    2  A    between atoms: O_2  and  C_3
REMARK    3  A    between atoms: C_3  and  C_5
REMARK    4  A    between atoms: C_5  and  C_6
REMARK    5  A    between atoms: C_5  and  N_13
REMARK    6  A    between atoms: C_6  and  C_7
REMARK                            x       y       z     vdW  Elec       q    Type
REMARK                         _______ _______ _______ _____ _____    ______ ____
ROOT
ATOM      1  N   UNL     1      -1.502  11.314  19.501  0.00  0.00    +0.000 NA
ATOM      2  C   UNL     1      -1.687  11.280  18.024  0.00  0.00    +0.000 C 
ATOM      3  C   UNL     1      -2.451  10.021  17.702  0.00  0.00    +0.000 C 
ATOM      4  C   UNL     1      -3.624  10.201  17.074  0.00  0.00    +0.000 C 
ATOM      5  C   UNL     1      -4.676  10.654  18.032  0.00  0.00    +0.000 C 
ATOM      6  O   UNL     1      -4.505  12.076  17.970  0.00  0.00    +0.000 OA
ATOM      7  C   UNL     1      -5.042  12.590  19.102  0.00  0.00    +0.000 A 
ATOM      8  C   UNL     1      -6.428  12.894  19.030  0.00  0.00    +0.000 A 
ATOM      9 CL   UNL     1      -7.341  12.706  17.561  0.00  0.00    +0.000 Cl
ATOM     10  C   UNL     1      -7.125  13.333  20.143  0.00  0.00    +0.000 A 
ATOM     11  C   UNL     1      -6.402  13.468  21.323  0.00  0.00    +0.000 A 
ATOM     12 CL   UNL     1      -7.268  14.023  22.715  0.00  0.00    +0.000 Cl
ATOM     13  C   UNL     1      -5.006  13.183  21.401  0.00  0.00    +0.000 A 
ATOM     14  C   UNL     1      -4.279  12.722  20.269  0.00  0.00    +0.000 A 
ATOM     15  S   UNL     1      -2.379  12.546  20.419  0.00  0.00    +0.000 S 
ATOM     16  O   UNL     1      -2.219  12.165  21.808  0.00  0.00    +0.000 OA
ATOM     17  O   UNL     1      -1.882  13.827  19.961  0.00  0.00    +0.000 OA
ENDROOT
BRANCH   1  18
ATOM     18  C   UNL     1       0.062  10.999  19.756  0.00  0.00    +0.000 C 
BRANCH  18  19
ATOM     19  C   UNL     1       1.078  11.679  20.663  0.00  0.00    +0.000 C 
ATOM     20  O   UNL     1       1.796  12.628  20.288  0.00  0.00    +0.000 OA
BRANCH  19  22
ATOM     21  C   UNL     1       0.180  10.090  22.102  0.00  0.00    +0.000 C 
ATOM     22  O   UNL     1       1.091  11.182  21.913  0.00  0.00    +0.000 OA
ENDBRANCH  19  22
ENDBRANCH  18  19
BRANCH  18  23
ATOM     23  C   UNL     1       0.893  10.393  18.541  0.00  0.00    +0.000 C 
BRANCH  23  24
ATOM     24  C   UNL     1       1.627   9.076  18.676  0.00  0.00    +0.000 A 
ATOM     25  C   UNL     1       2.481   8.604  17.675  0.00  0.00    +0.000 A 
ATOM     26  C   UNL     1       3.127   7.382  17.797  0.00  0.00    +0.000 A 
ATOM     27  C   UNL     1       2.953   6.610  18.942  0.00  0.00    +0.000 A 
ATOM     28  C   UNL     1       2.118   7.066  19.960  0.00  0.00    +0.000 A 
ATOM     29  C   UNL     1       1.457   8.292  19.833  0.00  0.00    +0.000 A 
ENDBRANCH  23  24
ENDBRANCH  18  23
ENDBRANCH   1  18
TORSDOF 5
ENDMDL
MODEL 8
REMARK VINA RESULT:      -6.5      3.259      7.405
REMARK  Name = 
REMARK  6 active torsions:
REMARK  status: ('A' for Active; 'I' for Inactive)
REMARK    1  A    between atoms: C_1  and  O_2
REMARK    2  A    between atoms: O_2  and  C_3
REMARK    3  A    between atoms: C_3  and  C_5
REMARK    4  A    between atoms: C_5  and  C_6
REMARK    5  A    between atoms: C_5  and  N_13
REMARK    6  A    between atoms: C_6  and  C_7
REMARK                            x       y       z     vdW  Elec       q    Type
REMARK                         _______ _______ _______ _____ _____    ______ ____
ROOT
ATOM      1  N   UNL     1      -2.159  12.598  22.251  0.00  0.00    +0.000 NA
ATOM      2  C   UNL     1      -0.737  12.270  22.549  0.00  0.00    +0.000 C 
ATOM      3  C   UNL     1      -0.695  10.823  22.967  0.00  0.00    +0.000 C 
ATOM      4  C   UNL     1       0.079  10.026  22.214  0.00  0.00    +0.000 C 
ATOM      5  C   UNL     1      -0.599   9.685  20.928  0.00  0.00    +0.000 C 
ATOM      6  O   UNL     1      -0.166  10.770  20.098  0.00  0.00    +0.000 OA
ATOM      7  C   UNL     1      -1.049  10.864  19.075  0.00  0.00    +0.000 A 
ATOM      8  C   UNL     1      -0.748  10.062  17.942  0.00  0.00    +0.000 A 
ATOM      9 CL   UNL     1       0.701   9.103  17.845  0.00  0.00    +0.000 Cl
ATOM     10  C   UNL     1      -1.616   9.986  16.866  0.00  0.00    +0.000 A 
ATOM     11  C   UNL     1      -2.783  10.737  16.948  0.00  0.00    +0.000 A 
ATOM     12 CL   UNL     1      -3.868  10.651  15.601  0.00  0.00    +0.000 Cl
ATOM     13  C   UNL     1      -3.086  11.560  18.073  0.00  0.00    +0.000 A 
ATOM     14  C   UNL     1      -2.209  11.641  19.189  0.00  0.00    +0.000 A 
ATOM     15  S   UNL     1      -2.603  12.910  20.567  0.00  0.00    +0.000 S 
ATOM     16  O   UNL     1      -4.052  12.927  20.557  0.00  0.00    +0.000 OA
ATOM     17  O   UNL     1      -1.867  14.090  20.162  0.00  0.00    +0.000 OA
ENDROOT
BRANCH   1  18
ATOM     18  C   UNL     1      -2.657  13.543  23.462  0.00  0.00    +0.000 C 
BRANCH  18  19
ATOM     19  C   UNL     1      -1.883  14.493  24.364  0.00  0.00    +0.000 C 
ATOM     20  O   UNL     1      -0.704  14.835  24.142  0.00  0.00    +0.000 OA
BRANCH  19  22
ATOM     21  C   UNL     1      -2.686  16.390  25.443  0.00  0.00    +0.000 C 
ATOM     22  O   UNL     1      -2.613  14.958  25.396  0.00  0.00    +0.000 OA
ENDBRANCH  19  22
ENDBRANCH  18  19
BRANCH  18  23
ATOM     23  C   UNL     1      -3.900  13.037  24.319  0.00  0.00    +0.000 C 
BRANCH  23  24
ATOM     24  C   UNL     1      -5.311  13.469  23.978  0.00  0.00    +0.000 A 
ATOM     25  C   UNL     1      -6.403  12.613  24.148  0.00  0.00    +0.000 A 
ATOM     26  C   UNL     1      -7.688  13.010  23.806  0.00  0.00    +0.000 A 
ATOM     27  C   UNL     1      -7.917  14.289  23.307  0.00  0.00    +0.000 A 
ATOM     28  C   UNL     1      -6.846  15.166  23.143  0.00  0.00    +0.000 A 
ATOM     29  C   UNL     1      -5.549  14.763  23.476  0.00  0.00    +0.000 A 
ENDBRANCH  23  24
ENDBRANCH  18  23
ENDBRANCH   1  18
TORSDOF 5
ENDMDL
MODEL 9
REMARK VINA RESULT:      -6.5      1.504      2.024
REMARK  Name = 
REMARK  6 active torsions:
REMARK  status: ('A' for Active; 'I' for Inactive)
REMARK    1  A    between atoms: C_1  and  O_2
REMARK    2  A    between atoms: O_2  and  C_3
REMARK    3  A    between atoms: C_3  and  C_5
REMARK    4  A    between atoms: C_5  and  C_6
REMARK    5  A    between atoms: C_5  and  N_13
REMARK    6  A    between atoms: C_6  and  C_7
REMARK                            x       y       z     vdW  Elec       q    Type
REMARK                         _______ _______ _______ _____ _____    ______ ____
ROOT
ATOM      1  N   UNL     1      -0.387  11.852  19.423  0.00  0.00    +0.000 NA
ATOM      2  C   UNL     1      -1.087  12.381  18.218  0.00  0.00    +0.000 C 
ATOM      3  C   UNL     1      -1.976  11.277  17.703  0.00  0.00    +0.000 C 
ATOM      4  C   UNL     1      -3.284  11.569  17.646  0.00  0.00    +0.000 C 
ATOM      5  C   UNL     1      -3.904  11.502  19.002  0.00  0.00    +0.000 C 
ATOM      6  O   UNL     1      -3.699  12.843  19.461  0.00  0.00    +0.000 OA
ATOM      7  C   UNL     1      -3.773  12.816  20.813  0.00  0.00    +0.000 A 
ATOM      8  C   UNL     1      -5.077  12.982  21.350  0.00  0.00    +0.000 A 
ATOM      9 CL   UNL     1      -6.461  13.291  20.342  0.00  0.00    +0.000 Cl
ATOM     10  C   UNL     1      -5.312  12.877  22.711  0.00  0.00    +0.000 A 
ATOM     11  C   UNL     1      -4.211  12.612  23.518  0.00  0.00    +0.000 A 
ATOM     12 CL   UNL     1      -4.499  12.487  25.221  0.00  0.00    +0.000 Cl
ATOM     13  C   UNL     1      -2.894  12.463  22.991  0.00  0.00    +0.000 A 
ATOM     14  C   UNL     1      -2.640  12.558  21.595  0.00  0.00    +0.000 A 
ATOM     15  S   UNL     1      -0.821  12.531  20.998  0.00  0.00    +0.000 S 
ATOM     16  O   UNL     1      -0.197  11.656  21.969  0.00  0.00    +0.000 OA
ATOM     17  O   UNL     1      -0.457  13.932  20.953  0.00  0.00    +0.000 OA
ENDROOT
BRANCH   1  18
ATOM     18  C   UNL     1       1.147  11.624  18.976  0.00  0.00    +0.000 C 
BRANCH  18  19
ATOM     19  C   UNL     1       2.247  12.623  18.645  0.00  0.00    +0.000 C 
ATOM     20  O   UNL     1       3.168  12.379  17.840  0.00  0.00    +0.000 OA
BRANCH  19  22
ATOM     21  C   UNL     1       3.279  14.233  19.966  0.00  0.00    +0.000 C 
ATOM     22  O   UNL     1       2.099  13.804  19.274  0.00  0.00    +0.000 OA
ENDBRANCH  19  22
ENDBRANCH  18  19
BRANCH  18  23
ATOM     23  C   UNL     1       1.475  10.314  18.131  0.00  0.00    +0.000 C 
BRANCH  23  24
ATOM     24  C   UNL     1       1.725   8.986  18.814  0.00  0.00    +0.000 A 
ATOM     25  C   UNL     1       2.382   7.937  18.164  0.00  0.00    +0.000 A 
ATOM     26  C   UNL     1       2.580   6.715  18.790  0.00  0.00    +0.000 A 
ATOM     27  C   UNL     1       2.146   6.519  20.097  0.00  0.00    +0.000 A 
ATOM     28  C   UNL     1       1.501   7.554  20.771  0.00  0.00    +0.000 A 
ATOM     29  C   UNL     1       1.290   8.783  20.138  0.00  0.00    +0.000 A 
ENDBRANCH  23  24
ENDBRANCH  18  23
ENDBRANCH   1  18
TORSDOF 5
ENDMDL
