MODEL 1
REMARK VINA RESULT:      -9.0      0.000      0.000
REMARK  Name = 
REMARK  8 active torsions:
REMARK  status: ('A' for Active; 'I' for Inactive)
REMARK    1  A    between atoms: C_1  and  O_2
REMARK    2  A    between atoms: O_2  and  C_3
REMARK    3  A    between atoms: C_5  and  N_6
REMARK    4  A    between atoms: N_6  and  C_7
REMARK    5  A    between atoms: C_18  and  N_19
REMARK    6  A    between atoms: C_26  and  N_27
REMARK    7  A    between atoms: N_27  and  S_28
REMARK    8  A    between atoms: S_28  and  C_29
REMARK                            x       y       z     vdW  Elec       q    Type
REMARK                         _______ _______ _______ _____ _____    ______ ____
ROOT
ATOM      1  C   UNL     1       3.160   5.737  18.620  0.00  0.00    +0.000 A 
ATOM      2  C   UNL     1       2.401   4.542  18.891  0.00  0.00    +0.000 A 
ATOM      3  C   UNL     1       1.499   4.301  19.951  0.00  0.00    +0.000 A 
ATOM      4  C   UNL     1       0.727   3.144  20.015  0.00  0.00    +0.000 A 
ATOM      5  C   UNL     1       0.809   2.214  18.991  0.00  0.00    +0.000 A 
ATOM      6  C   UNL     1       1.802   2.361  18.029  0.00  0.00    +0.000 A 
ATOM      7  C   UNL     1       2.676   3.437  18.070  0.00  0.00    +0.000 A 
ATOM      8  N   UNL     1       3.857   3.314  17.482  0.00  0.00    +0.000 NA
ATOM      9  C   UNL     1       4.721   4.315  17.653  0.00  0.00    +0.000 A 
ATOM     10  C   UNL     1       6.008   4.086  18.119  0.00  0.00    +0.000 A 
ATOM     11  C   UNL     1       6.891   5.143  18.348  0.00  0.00    +0.000 A 
ATOM     12  C   UNL     1       6.538   6.404  17.871  0.00  0.00    +0.000 A 
ATOM     13  C   UNL     1       5.216   6.652  17.524  0.00  0.00    +0.000 A 
ATOM     14  C   UNL     1       4.299   5.618  17.780  0.00  0.00    +0.000 A 
ENDROOT
BRANCH  12  15
ATOM     15  N   UNL     1       7.530   7.477  17.829  0.00  0.00    +0.000 N 
ATOM     16  O   UNL     1       7.397   8.344  16.961  0.00  0.00    +0.000 OA
ATOM     17  O   UNL     1       8.434   7.451  18.676  0.00  0.00    +0.000 OA
ENDBRANCH  12  15
BRANCH   1  18
ATOM     18  N   UNL     1       3.094   6.933  19.408  0.00  0.00    +0.000 N 
ATOM     19  H   UNL     1       3.211   6.651  20.382  0.00  0.00    +0.000 HD
BRANCH  18  22
ATOM     20  C   UNL     1       0.343   9.248  20.446  0.00  0.00    +0.000 A 
ATOM     21  C   UNL     1       1.348   8.261  20.474  0.00  0.00    +0.000 A 
ATOM     22  C   UNL     1       2.157   7.980  19.355  0.00  0.00    +0.000 A 
ATOM     23  C   UNL     1       2.047   8.816  18.247  0.00  0.00    +0.000 A 
ATOM     24  C   UNL     1       1.022   9.758  18.172  0.00  0.00    +0.000 A 
ATOM     25  C   UNL     1       0.161   9.973  19.261  0.00  0.00    +0.000 A 
BRANCH  20  27
ATOM     26  C   UNL     1       0.508   9.455  22.854  0.00  0.00    +0.000 C 
ATOM     27  O   UNL     1      -0.254   9.446  21.656  0.00  0.00    +0.000 OA
ENDBRANCH  20  27
BRANCH  25  28
ATOM     28  N   UNL     1      -0.928  10.879  19.088  0.00  0.00    +0.000 N 
ATOM     29  H   UNL     1      -1.438  10.774  18.206  0.00  0.00    +0.000 HD
BRANCH  28  30
ATOM     30  S   UNL     1      -0.703  12.509  19.418  0.00  0.00    +0.000 S 
ATOM     31  C   UNL     1      -2.243  12.929  20.248  0.00  0.00    +0.000 C 
ATOM     32  O   UNL     1       0.377  12.686  20.344  0.00  0.00    +0.000 OA
ATOM     33  O   UNL     1      -0.727  13.165  18.146  0.00  0.00    +0.000 OA
ENDBRANCH  28  30
ENDBRANCH  25  28
ENDBRANCH  18  22
ENDBRANCH   1  18
TORSDOF 6
ENDMDL
MODEL 2
REMARK VINA RESULT:      -8.8      1.117      1.953
REMARK  Name = 
REMARK  8 active torsions:
REMARK  status: ('A' for Active; 'I' for Inactive)
REMARK    1  A    between atoms: C_1  and  O_2
REMARK    2  A    between atoms: O_2  and  C_3
REMARK    3  A    between atoms: C_5  and  N_6
REMARK    4  A    between atoms: N_6  and  C_7
REMARK    5  A    between atoms: C_18  and  N_19
REMARK    6  A    between atoms: C_26  and  N_27
REMARK    7  A    between atoms: N_27  and  S_28
REMARK    8  A    between atoms: S_28  and  C_29
REMARK                            x       y       z     vdW  Elec       q    Type
REMARK                         _______ _______ _______ _____ _____    ______ ____
ROOT
ATOM      1  C   UNL     1       3.132   5.782  18.750  0.00  0.00    +0.000 A 
ATOM      2  C   UNL     1       2.359   4.591  19.003  0.00  0.00    +0.000 A 
ATOM      3  C   UNL     1       1.504   4.319  20.094  0.00  0.00    +0.000 A 
ATOM      4  C   UNL     1       0.709   3.177  20.143  0.00  0.00    +0.000 A 
ATOM      5  C   UNL     1       0.719   2.296  19.073  0.00  0.00    +0.000 A 
ATOM      6  C   UNL     1       1.667   2.468  18.071  0.00  0.00    +0.000 A 
ATOM      7  C   UNL     1       2.566   3.522  18.118  0.00  0.00    +0.000 A 
ATOM      8  N   UNL     1       3.715   3.402  17.466  0.00  0.00    +0.000 NA
ATOM      9  C   UNL     1       4.609   4.375  17.640  0.00  0.00    +0.000 A 
ATOM     10  C   UNL     1       5.912   4.096  18.030  0.00  0.00    +0.000 A 
ATOM     11  C   UNL     1       6.830   5.122  18.264  0.00  0.00    +0.000 A 
ATOM     12  C   UNL     1       6.484   6.411  17.865  0.00  0.00    +0.000 A 
ATOM     13  C   UNL     1       5.152   6.704  17.597  0.00  0.00    +0.000 A 
ATOM     14  C   UNL     1       4.225   5.679  17.850  0.00  0.00    +0.000 A 
ENDROOT
BRANCH  12  15
ATOM     15  N   UNL     1       7.498   7.464  17.824  0.00  0.00    +0.000 N 
ATOM     16  O   UNL     1       8.414   7.407  18.648  0.00  0.00    +0.000 OA
ATOM     17  O   UNL     1       7.375   8.339  16.955  0.00  0.00    +0.000 OA
ENDBRANCH  12  15
BRANCH   1  18
ATOM     18  N   UNL     1       3.133   6.940  19.596  0.00  0.00    +0.000 N 
ATOM     19  H   UNL     1       3.580   6.665  20.471  0.00  0.00    +0.000 HD
BRANCH  18  22
ATOM     20  C   UNL     1       0.575   9.634  19.148  0.00  0.00    +0.000 A 
ATOM     21  C   UNL     1       1.574   8.675  18.886  0.00  0.00    +0.000 A 
ATOM     22  C   UNL     1       2.081   7.826  19.889  0.00  0.00    +0.000 A 
ATOM     23  C   UNL     1       1.457   7.844  21.133  0.00  0.00    +0.000 A 
ATOM     24  C   UNL     1       0.509   8.822  21.434  0.00  0.00    +0.000 A 
ATOM     25  C   UNL     1       0.071   9.725  20.452  0.00  0.00    +0.000 A 
BRANCH  20  27
ATOM     26  C   UNL     1      -1.174  10.078  17.531  0.00  0.00    +0.000 C 
ATOM     27  O   UNL     1       0.140  10.280  18.028  0.00  0.00    +0.000 OA
ENDBRANCH  20  27
BRANCH  25  28
ATOM     28  N   UNL     1      -0.826  10.763  20.846  0.00  0.00    +0.000 N 
ATOM     29  H   UNL     1      -1.432  11.112  20.098  0.00  0.00    +0.000 HD
BRANCH  28  30
ATOM     30  S   UNL     1      -0.248  12.052  21.751  0.00  0.00    +0.000 S 
ATOM     31  C   UNL     1      -1.173  13.429  21.055  0.00  0.00    +0.000 C 
ATOM     32  O   UNL     1      -0.619  11.901  23.127  0.00  0.00    +0.000 OA
ATOM     33  O   UNL     1       1.115  12.224  21.347  0.00  0.00    +0.000 OA
ENDBRANCH  28  30
ENDBRANCH  25  28
ENDBRANCH  18  22
ENDBRANCH   1  18
TORSDOF 6
ENDMDL
MODEL 3
REMARK VINA RESULT:      -8.7      1.080      1.285
REMARK  Name = 
REMARK  8 active torsions:
REMARK  status: ('A' for Active; 'I' for Inactive)
REMARK    1  A    between atoms: C_1  and  O_2
REMARK    2  A    between atoms: O_2  and  C_3
REMARK    3  A    between atoms: C_5  and  N_6
REMARK    4  A    between atoms: N_6  and  C_7
REMARK    5  A    between atoms: C_18  and  N_19
REMARK    6  A    between atoms: C_26  and  N_27
REMARK    7  A    between atoms: N_27  and  S_28
REMARK    8  A    between atoms: S_28  and  C_29
REMARK                            x       y       z     vdW  Elec       q    Type
REMARK                         _______ _______ _______ _____ _____    ______ ____
ROOT
ATOM      1  C   UNL     1       3.046   5.691  18.635  0.00  0.00    +0.000 A 
ATOM      2  C   UNL     1       2.284   4.499  18.912  0.00  0.00    +0.000 A 
ATOM      3  C   UNL     1       1.377   4.267  19.970  0.00  0.00    +0.000 A 
ATOM      4  C   UNL     1       0.604   3.111  20.040  0.00  0.00    +0.000 A 
ATOM      5  C   UNL     1       0.689   2.174  19.023  0.00  0.00    +0.000 A 
ATOM      6  C   UNL     1       1.687   2.312  18.065  0.00  0.00    +0.000 A 
ATOM      7  C   UNL     1       2.561   3.388  18.101  0.00  0.00    +0.000 A 
ATOM      8  N   UNL     1       3.745   3.259  17.519  0.00  0.00    +0.000 NA
ATOM      9  C   UNL     1       4.609   4.260  17.686  0.00  0.00    +0.000 A 
ATOM     10  C   UNL     1       5.894   4.033  18.159  0.00  0.00    +0.000 A 
ATOM     11  C   UNL     1       6.777   5.091  18.384  0.00  0.00    +0.000 A 
ATOM     12  C   UNL     1       6.428   6.349  17.896  0.00  0.00    +0.000 A 
ATOM     13  C   UNL     1       5.107   6.595  17.541  0.00  0.00    +0.000 A 
ATOM     14  C   UNL     1       4.188   5.565  17.801  0.00  0.00    +0.000 A 
ENDROOT
BRANCH  12  15
ATOM     15  N   UNL     1       7.421   7.420  17.850  0.00  0.00    +0.000 N 
ATOM     16  O   UNL     1       7.241   8.331  17.037  0.00  0.00    +0.000 OA
ATOM     17  O   UNL     1       8.374   7.348  18.639  0.00  0.00    +0.000 OA
ENDBRANCH  12  15
BRANCH   1  18
ATOM     18  N   UNL     1       2.977   6.893  19.414  0.00  0.00    +0.000 N 
ATOM     19  H   UNL     1       2.853   6.608  20.386  0.00  0.00    +0.000 HD
BRANCH  18  22
ATOM     20  C   UNL     1       0.661   9.762  20.054  0.00  0.00    +0.000 A 
ATOM     21  C   UNL     1       1.496   8.643  20.245  0.00  0.00    +0.000 A 
ATOM     22  C   UNL     1       2.219   8.056  19.188  0.00  0.00    +0.000 A 
ATOM     23  C   UNL     1       2.214   8.705  17.957  0.00  0.00    +0.000 A 
ATOM     24  C   UNL     1       1.351   9.776  17.727  0.00  0.00    +0.000 A 
ATOM     25  C   UNL     1       0.565  10.302  18.765  0.00  0.00    +0.000 A 
BRANCH  20  27
ATOM     26  C   UNL     1      -0.352   9.374  22.220  0.00  0.00    +0.000 C 
ATOM     27  O   UNL     1       0.137  10.249  21.215  0.00  0.00    +0.000 OA
ENDBRANCH  20  27
BRANCH  25  28
ATOM     28  N   UNL     1      -0.369  11.333  18.445  0.00  0.00    +0.000 N 
ATOM     29  H   UNL     1      -0.416  12.097  19.126  0.00  0.00    +0.000 HD
BRANCH  28  30
ATOM     30  S   UNL     1      -1.920  10.917  17.959  0.00  0.00    +0.000 S 
ATOM     31  C   UNL     1      -2.929  11.892  19.085  0.00  0.00    +0.000 C 
ATOM     32  O   UNL     1      -2.162  11.369  16.621  0.00  0.00    +0.000 OA
ATOM     33  O   UNL     1      -2.086   9.546  18.338  0.00  0.00    +0.000 OA
ENDBRANCH  28  30
ENDBRANCH  25  28
ENDBRANCH  18  22
ENDBRANCH   1  18
TORSDOF 6
ENDMDL
MODEL 4
REMARK VINA RESULT:      -8.5      2.543      4.559
REMARK  Name = 
REMARK  8 active torsions:
REMARK  status: ('A' for Active; 'I' for Inactive)
REMARK    1  A    between atoms: C_1  and  O_2
REMARK    2  A    between atoms: O_2  and  C_3
REMARK    3  A    between atoms: C_5  and  N_6
REMARK    4  A    between atoms: N_6  and  C_7
REMARK    5  A    between atoms: C_18  and  N_19
REMARK    6  A    between atoms: C_26  and  N_27
REMARK    7  A    between atoms: N_27  and  S_28
REMARK    8  A    between atoms: S_28  and  C_29
REMARK                            x       y       z     vdW  Elec       q    Type
REMARK                         _______ _______ _______ _____ _____    ______ ____
ROOT
ATOM      1  C   UNL     1       3.922   5.952  18.714  0.00  0.00    +0.000 A 
ATOM      2  C   UNL     1       5.295   6.231  18.374  0.00  0.00    +0.000 A 
ATOM      3  C   UNL     1       5.791   7.166  17.438  0.00  0.00    +0.000 A 
ATOM      4  C   UNL     1       7.152   7.429  17.308  0.00  0.00    +0.000 A 
ATOM      5  C   UNL     1       8.051   6.791  18.147  0.00  0.00    +0.000 A 
ATOM      6  C   UNL     1       7.595   5.758  18.958  0.00  0.00    +0.000 A 
ATOM      7  C   UNL     1       6.257   5.393  18.958  0.00  0.00    +0.000 A 
ATOM      8  N   UNL     1       5.938   4.162  19.333  0.00  0.00    +0.000 NA
ATOM      9  C   UNL     1       4.661   3.804  19.195  0.00  0.00    +0.000 A 
ATOM     10  C   UNL     1       4.306   2.650  18.510  0.00  0.00    +0.000 A 
ATOM     11  C   UNL     1       2.965   2.309  18.321  0.00  0.00    +0.000 A 
ATOM     12  C   UNL     1       2.003   3.015  19.040  0.00  0.00    +0.000 A 
ATOM     13  C   UNL     1       2.346   4.231  19.618  0.00  0.00    +0.000 A 
ATOM     14  C   UNL     1       3.638   4.711  19.342  0.00  0.00    +0.000 A 
ENDROOT
BRANCH  12  15
ATOM     15  N   UNL     1       0.627   2.525  19.102  0.00  0.00    +0.000 N 
ATOM     16  O   UNL     1      -0.054   2.858  20.075  0.00  0.00    +0.000 OA
ATOM     17  O   UNL     1       0.232   1.817  18.165  0.00  0.00    +0.000 OA
ENDBRANCH  12  15
BRANCH   1  18
ATOM     18  N   UNL     1       2.794   6.631  18.146  0.00  0.00    +0.000 N 
ATOM     19  H   UNL     1       2.965   6.696  17.142  0.00  0.00    +0.000 HD
BRANCH  18  22
ATOM     20  C   UNL     1       1.086   9.102  20.379  0.00  0.00    +0.000 A 
ATOM     21  C   UNL     1       1.788   7.969  19.919  0.00  0.00    +0.000 A 
ATOM     22  C   UNL     1       2.164   7.815  18.570  0.00  0.00    +0.000 A 
ATOM     23  C   UNL     1       1.962   8.891  17.712  0.00  0.00    +0.000 A 
ATOM     24  C   UNL     1       1.218   9.996  18.126  0.00  0.00    +0.000 A 
ATOM     25  C   UNL     1       0.769  10.104  19.452  0.00  0.00    +0.000 A 
BRANCH  20  27
ATOM     26  C   UNL     1      -0.365   8.885  22.307  0.00  0.00    +0.000 C 
ATOM     27  O   UNL     1       0.912   9.117  21.731  0.00  0.00    +0.000 OA
ENDBRANCH  20  27
BRANCH  25  28
ATOM     28  N   UNL     1      -0.070  11.208  19.790  0.00  0.00    +0.000 N 
ATOM     29  H   UNL     1      -0.652  11.555  19.022  0.00  0.00    +0.000 HD
BRANCH  28  30
ATOM     30  S   UNL     1       0.577  12.504  20.637  0.00  0.00    +0.000 S 
ATOM     31  C   UNL     1      -0.311  13.891  19.914  0.00  0.00    +0.000 C 
ATOM     32  O   UNL     1       0.231  12.414  22.025  0.00  0.00    +0.000 OA
ATOM     33  O   UNL     1       1.935  12.610  20.199  0.00  0.00    +0.000 OA
ENDBRANCH  28  30
ENDBRANCH  25  28
ENDBRANCH  18  22
ENDBRANCH   1  18
TORSDOF 6
ENDMDL
MODEL 5
REMARK VINA RESULT:      -8.4      2.518      4.536
REMARK  Name = 
REMARK  8 active torsions:
REMARK  status: ('A' for Active; 'I' for Inactive)
REMARK    1  A    between atoms: C_1  and  O_2
REMARK    2  A    between atoms: O_2  and  C_3
REMARK    3  A    between atoms: C_5  and  N_6
REMARK    4  A    between atoms: N_6  and  C_7
REMARK    5  A    between atoms: C_18  and  N_19
REMARK    6  A    between atoms: C_26  and  N_27
REMARK    7  A    between atoms: N_27  and  S_28
REMARK    8  A    between atoms: S_28  and  C_29
REMARK                            x       y       z     vdW  Elec       q    Type
REMARK                         _______ _______ _______ _____ _____    ______ ____
ROOT
ATOM      1  C   UNL     1       3.921   5.938  18.716  0.00  0.00    +0.000 A 
ATOM      2  C   UNL     1       5.295   6.214  18.375  0.00  0.00    +0.000 A 
ATOM      3  C   UNL     1       5.793   7.163  17.454  0.00  0.00    +0.000 A 
ATOM      4  C   UNL     1       7.156   7.419  17.323  0.00  0.00    +0.000 A 
ATOM      5  C   UNL     1       8.054   6.758  18.145  0.00  0.00    +0.000 A 
ATOM      6  C   UNL     1       7.594   5.713  18.939  0.00  0.00    +0.000 A 
ATOM      7  C   UNL     1       6.254   5.358  18.938  0.00  0.00    +0.000 A 
ATOM      8  N   UNL     1       5.927   4.123  19.291  0.00  0.00    +0.000 NA
ATOM      9  C   UNL     1       4.648   3.776  19.152  0.00  0.00    +0.000 A 
ATOM     10  C   UNL     1       4.281   2.639  18.446  0.00  0.00    +0.000 A 
ATOM     11  C   UNL     1       2.936   2.310  18.256  0.00  0.00    +0.000 A 
ATOM     12  C   UNL     1       1.983   3.009  18.994  0.00  0.00    +0.000 A 
ATOM     13  C   UNL     1       2.337   4.211  19.593  0.00  0.00    +0.000 A 
ATOM     14  C   UNL     1       3.631   4.687  19.321  0.00  0.00    +0.000 A 
ENDROOT
BRANCH  12  15
ATOM     15  N   UNL     1       0.604   2.529  19.053  0.00  0.00    +0.000 N 
ATOM     16  O   UNL     1       0.211   1.803  18.135  0.00  0.00    +0.000 OA
ATOM     17  O   UNL     1      -0.079   2.874  20.028  0.00  0.00    +0.000 OA
ENDBRANCH  12  15
BRANCH   1  18
ATOM     18  N   UNL     1       2.796   6.636  18.166  0.00  0.00    +0.000 N 
ATOM     19  H   UNL     1       2.942   6.681  17.157  0.00  0.00    +0.000 HD
BRANCH  18  22
ATOM     20  C   UNL     1       1.120   9.148  20.376  0.00  0.00    +0.000 A 
ATOM     21  C   UNL     1       1.786   7.991  19.923  0.00  0.00    +0.000 A 
ATOM     22  C   UNL     1       2.206   7.842  18.587  0.00  0.00    +0.000 A 
ATOM     23  C   UNL     1       2.089   8.940  17.741  0.00  0.00    +0.000 A 
ATOM     24  C   UNL     1       1.382  10.072  18.147  0.00  0.00    +0.000 A 
ATOM     25  C   UNL     1       0.887  10.179  19.456  0.00  0.00    +0.000 A 
BRANCH  20  27
ATOM     26  C   UNL     1      -0.398   8.886  22.246  0.00  0.00    +0.000 C 
ATOM     27  O   UNL     1       0.894   9.150  21.721  0.00  0.00    +0.000 OA
ENDBRANCH  20  27
BRANCH  25  28
ATOM     28  N   UNL     1       0.089  11.316  19.782  0.00  0.00    +0.000 N 
ATOM     29  H   UNL     1      -0.091  11.442  20.783  0.00  0.00    +0.000 HD
BRANCH  28  30
ATOM     30  S   UNL     1      -1.318  11.612  18.916  0.00  0.00    +0.000 S 
ATOM     31  C   UNL     1      -2.360  12.382  20.164  0.00  0.00    +0.000 C 
ATOM     32  O   UNL     1      -1.071  12.565  17.875  0.00  0.00    +0.000 OA
ATOM     33  O   UNL     1      -1.880  10.323  18.647  0.00  0.00    +0.000 OA
ENDBRANCH  28  30
ENDBRANCH  25  28
ENDBRANCH  18  22
ENDBRANCH   1  18
TORSDOF 6
ENDMDL
MODEL 6
REMARK VINA RESULT:      -8.3      1.631      2.546
REMARK  Name = 
REMARK  8 active torsions:
REMARK  status: ('A' for Active; 'I' for Inactive)
REMARK    1  A    between atoms: C_1  and  O_2
REMARK    2  A    between atoms: O_2  and  C_3
REMARK    3  A    between atoms: C_5  and  N_6
REMARK    4  A    between atoms: N_6  and  C_7
REMARK    5  A    between atoms: C_18  and  N_19
REMARK    6  A    between atoms: C_26  and  N_27
REMARK    7  A    between atoms: N_27  and  S_28
REMARK    8  A    between atoms: S_28  and  C_29
REMARK                            x       y       z     vdW  Elec       q    Type
REMARK                         _______ _______ _______ _____ _____    ______ ____
ROOT
ATOM      1  C   UNL     1       3.444   5.360  17.616  0.00  0.00    +0.000 A 
ATOM      2  C   UNL     1       2.646   4.286  18.153  0.00  0.00    +0.000 A 
ATOM      3  C   UNL     1       1.347   4.353  18.705  0.00  0.00    +0.000 A 
ATOM      4  C   UNL     1       0.637   3.210  19.064  0.00  0.00    +0.000 A 
ATOM      5  C   UNL     1       1.197   1.963  18.837  0.00  0.00    +0.000 A 
ATOM      6  C   UNL     1       2.528   1.887  18.445  0.00  0.00    +0.000 A 
ATOM      7  C   UNL     1       3.278   3.036  18.249  0.00  0.00    +0.000 A 
ATOM      8  N   UNL     1       4.597   2.957  18.355  0.00  0.00    +0.000 NA
ATOM      9  C   UNL     1       5.275   4.102  18.292  0.00  0.00    +0.000 A 
ATOM     10  C   UNL     1       6.184   4.458  19.279  0.00  0.00    +0.000 A 
ATOM     11  C   UNL     1       6.852   5.684  19.236  0.00  0.00    +0.000 A 
ATOM     12  C   UNL     1       6.770   6.432  18.064  0.00  0.00    +0.000 A 
ATOM     13  C   UNL     1       5.774   6.139  17.140  0.00  0.00    +0.000 A 
ATOM     14  C   UNL     1       4.845   5.154  17.516  0.00  0.00    +0.000 A 
ENDROOT
BRANCH  12  15
ATOM     15  N   UNL     1       7.663   7.570  17.855  0.00  0.00    +0.000 N 
ATOM     16  O   UNL     1       8.553   7.759  18.689  0.00  0.00    +0.000 OA
ATOM     17  O   UNL     1       7.473   8.266  16.847  0.00  0.00    +0.000 OA
ENDBRANCH  12  15
BRANCH   1  18
ATOM     18  N   UNL     1       3.011   6.724  17.531  0.00  0.00    +0.000 N 
ATOM     19  H   UNL     1       3.784   7.254  17.127  0.00  0.00    +0.000 HD
BRANCH  18  22
ATOM     20  C   UNL     1       1.116   9.559  19.073  0.00  0.00    +0.000 A 
ATOM     21  C   UNL     1       1.694   8.688  18.128  0.00  0.00    +0.000 A 
ATOM     22  C   UNL     1       2.385   7.520  18.507  0.00  0.00    +0.000 A 
ATOM     23  C   UNL     1       2.355   7.153  19.849  0.00  0.00    +0.000 A 
ATOM     24  C   UNL     1       1.844   8.027  20.809  0.00  0.00    +0.000 A 
ATOM     25  C   UNL     1       1.233   9.233  20.431  0.00  0.00    +0.000 A 
BRANCH  20  27
ATOM     26  C   UNL     1      -1.014  10.489  18.390  0.00  0.00    +0.000 C 
ATOM     27  O   UNL     1       0.398  10.571  18.507  0.00  0.00    +0.000 OA
ENDBRANCH  20  27
BRANCH  25  28
ATOM     28  N   UNL     1       0.818  10.128  21.462  0.00  0.00    +0.000 N 
ATOM     29  H   UNL     1       1.569  10.700  21.861  0.00  0.00    +0.000 HD
BRANCH  28  30
ATOM     30  S   UNL     1      -0.176   9.566  22.691  0.00  0.00    +0.000 S 
ATOM     31  C   UNL     1      -1.298  10.954  22.916  0.00  0.00    +0.000 C 
ATOM     32  O   UNL     1      -0.933   8.435  22.241  0.00  0.00    +0.000 OA
ATOM     33  O   UNL     1       0.651   9.509  23.858  0.00  0.00    +0.000 OA
ENDBRANCH  28  30
ENDBRANCH  25  28
ENDBRANCH  18  22
ENDBRANCH   1  18
TORSDOF 6
ENDMDL
MODEL 7
REMARK VINA RESULT:      -8.1      1.107      1.254
REMARK  Name = 
REMARK  8 active torsions:
REMARK  status: ('A' for Active; 'I' for Inactive)
REMARK    1  A    between atoms: C_1  and  O_2
REMARK    2  A    between atoms: O_2  and  C_3
REMARK    3  A    between atoms: C_5  and  N_6
REMARK    4  A    between atoms: N_6  and  C_7
REMARK    5  A    between atoms: C_18  and  N_19
REMARK    6  A    between atoms: C_26  and  N_27
REMARK    7  A    between atoms: N_27  and  S_28
REMARK    8  A    between atoms: S_28  and  C_29
REMARK                            x       y       z     vdW  Elec       q    Type
REMARK                         _______ _______ _______ _____ _____    ______ ____
ROOT
ATOM      1  C   UNL     1       2.982   5.522  18.236  0.00  0.00    +0.000 A 
ATOM      2  C   UNL     1       2.184   4.498  18.864  0.00  0.00    +0.000 A 
ATOM      3  C   UNL     1       1.524   4.548  20.112  0.00  0.00    +0.000 A 
ATOM      4  C   UNL     1       0.671   3.533  20.537  0.00  0.00    +0.000 A 
ATOM      5  C   UNL     1       0.423   2.458  19.699  0.00  0.00    +0.000 A 
ATOM      6  C   UNL     1       1.183   2.318  18.543  0.00  0.00    +0.000 A 
ATOM      7  C   UNL     1       2.150   3.256  18.213  0.00  0.00    +0.000 A 
ATOM      8  N   UNL     1       3.150   2.882  17.426  0.00  0.00    +0.000 NA
ATOM      9  C   UNL     1       4.129   3.766  17.237  0.00  0.00    +0.000 A 
ATOM     10  C   UNL     1       5.457   3.432  17.462  0.00  0.00    +0.000 A 
ATOM     11  C   UNL     1       6.473   4.379  17.315  0.00  0.00    +0.000 A 
ATOM     12  C   UNL     1       6.155   5.590  16.705  0.00  0.00    +0.000 A 
ATOM     13  C   UNL     1       4.821   5.965  16.598  0.00  0.00    +0.000 A 
ATOM     14  C   UNL     1       3.884   5.120  17.215  0.00  0.00    +0.000 A 
ENDROOT
BRANCH  12  15
ATOM     15  N   UNL     1       7.217   6.495  16.271  0.00  0.00    +0.000 N 
ATOM     16  O   UNL     1       7.834   6.202  15.244  0.00  0.00    +0.000 OA
ATOM     17  O   UNL     1       7.421   7.505  16.959  0.00  0.00    +0.000 OA
ENDBRANCH  12  15
BRANCH   1  18
ATOM     18  N   UNL     1       3.219   6.820  18.796  0.00  0.00    +0.000 N 
ATOM     19  H   UNL     1       3.735   6.676  19.664  0.00  0.00    +0.000 HD
BRANCH  18  22
ATOM     20  C   UNL     1       0.913   9.219  20.508  0.00  0.00    +0.000 A 
ATOM     21  C   UNL     1       1.872   8.212  20.277  0.00  0.00    +0.000 A 
ATOM     22  C   UNL     1       2.319   7.885  18.981  0.00  0.00    +0.000 A 
ATOM     23  C   UNL     1       1.905   8.692  17.927  0.00  0.00    +0.000 A 
ATOM     24  C   UNL     1       0.913   9.653  18.120  0.00  0.00    +0.000 A 
ATOM     25  C   UNL     1       0.405   9.915  19.403  0.00  0.00    +0.000 A 
BRANCH  20  27
ATOM     26  C   UNL     1      -0.495   9.017  22.469  0.00  0.00    +0.000 C 
ATOM     27  O   UNL     1       0.693   9.461  21.832  0.00  0.00    +0.000 OA
ENDBRANCH  20  27
BRANCH  25  28
ATOM     28  N   UNL     1      -0.675  10.839  19.522  0.00  0.00    +0.000 N 
ATOM     29  H   UNL     1      -1.368  10.789  18.769  0.00  0.00    +0.000 HD
BRANCH  28  30
ATOM     30  S   UNL     1      -0.351  12.445  19.883  0.00  0.00    +0.000 S 
ATOM     31  C   UNL     1      -0.554  13.228  18.276  0.00  0.00    +0.000 C 
ATOM     32  O   UNL     1      -1.344  12.967  20.774  0.00  0.00    +0.000 OA
ATOM     33  O   UNL     1       1.046  12.494  20.192  0.00  0.00    +0.000 OA
ENDBRANCH  28  30
ENDBRANCH  25  28
ENDBRANCH  18  22
ENDBRANCH   1  18
TORSDOF 6
ENDMDL
MODEL 8
REMARK VINA RESULT:      -8.1      1.045      1.786
REMARK  Name = 
REMARK  8 active torsions:
REMARK  status: ('A' for Active; 'I' for Inactive)
REMARK    1  A    between atoms: C_1  and  O_2
REMARK    2  A    between atoms: O_2  and  C_3
REMARK    3  A    between atoms: C_5  and  N_6
REMARK    4  A    between atoms: N_6  and  C_7
REMARK    5  A    between atoms: C_18  and  N_19
REMARK    6  A    between atoms: C_26  and  N_27
REMARK    7  A    between atoms: N_27  and  S_28
REMARK    8  A    between atoms: S_28  and  C_29
REMARK                            x       y       z     vdW  Elec       q    Type
REMARK                         _______ _______ _______ _____ _____    ______ ____
ROOT
ATOM      1  C   UNL     1       3.057   5.670  18.812  0.00  0.00    +0.000 A 
ATOM      2  C   UNL     1       2.286   4.473  19.045  0.00  0.00    +0.000 A 
ATOM      3  C   UNL     1       1.459   4.168  20.149  0.00  0.00    +0.000 A 
ATOM      4  C   UNL     1       0.662   3.027  20.181  0.00  0.00    +0.000 A 
ATOM      5  C   UNL     1       0.641   2.182  19.083  0.00  0.00    +0.000 A 
ATOM      6  C   UNL     1       1.564   2.383  18.063  0.00  0.00    +0.000 A 
ATOM      7  C   UNL     1       2.468   3.433  18.122  0.00  0.00    +0.000 A 
ATOM      8  N   UNL     1       3.599   3.331  17.437  0.00  0.00    +0.000 NA
ATOM      9  C   UNL     1       4.501   4.296  17.620  0.00  0.00    +0.000 A 
ATOM     10  C   UNL     1       5.812   4.001  17.967  0.00  0.00    +0.000 A 
ATOM     11  C   UNL     1       6.739   5.017  18.211  0.00  0.00    +0.000 A 
ATOM     12  C   UNL     1       6.387   6.319  17.863  0.00  0.00    +0.000 A 
ATOM     13  C   UNL     1       5.050   6.624  17.638  0.00  0.00    +0.000 A 
ATOM     14  C   UNL     1       4.126   5.593  17.881  0.00  0.00    +0.000 A 
ENDROOT
BRANCH  12  15
ATOM     15  N   UNL     1       7.403   7.370  17.830  0.00  0.00    +0.000 N 
ATOM     16  O   UNL     1       7.278   8.259  16.984  0.00  0.00    +0.000 OA
ATOM     17  O   UNL     1       8.319   7.303  18.662  0.00  0.00    +0.000 OA
ENDBRANCH  12  15
BRANCH   1  18
ATOM     18  N   UNL     1       3.083   6.799  19.695  0.00  0.00    +0.000 N 
ATOM     19  H   UNL     1       3.236   6.434  20.635  0.00  0.00    +0.000 HD
BRANCH  18  22
ATOM     20  C   UNL     1       1.453  10.077  18.918  0.00  0.00    +0.000 A 
ATOM     21  C   UNL     1       2.270   8.932  18.836  0.00  0.00    +0.000 A 
ATOM     22  C   UNL     1       2.192   7.884  19.775  0.00  0.00    +0.000 A 
ATOM     23  C   UNL     1       1.167   7.929  20.715  0.00  0.00    +0.000 A 
ATOM     24  C   UNL     1       0.385   9.076  20.854  0.00  0.00    +0.000 A 
ATOM     25  C   UNL     1       0.529  10.156  19.969  0.00  0.00    +0.000 A 
BRANCH  20  27
ATOM     26  C   UNL     1       2.452  12.056  17.941  0.00  0.00    +0.000 C 
ATOM     27  O   UNL     1       1.600  10.923  17.859  0.00  0.00    +0.000 OA
ENDBRANCH  20  27
BRANCH  25  28
ATOM     28  N   UNL     1      -0.229  11.338  20.222  0.00  0.00    +0.000 N 
ATOM     29  H   UNL     1      -0.557  11.439  21.188  0.00  0.00    +0.000 HD
BRANCH  28  30
ATOM     30  S   UNL     1      -1.456  11.773  19.163  0.00  0.00    +0.000 S 
ATOM     31  C   UNL     1      -2.680  12.463  20.286  0.00  0.00    +0.000 C 
ATOM     32  O   UNL     1      -1.008  12.811  18.282  0.00  0.00    +0.000 OA
ATOM     33  O   UNL     1      -1.994  10.541  18.672  0.00  0.00    +0.000 OA
ENDBRANCH  28  30
ENDBRANCH  25  28
ENDBRANCH  18  22
ENDBRANCH   1  18
TORSDOF 6
ENDMDL
MODEL 9
REMARK VINA RESULT:      -8.0      3.496      8.039
REMARK  Name = 
REMARK  8 active torsions:
REMARK  status: ('A' for Active; 'I' for Inactive)
REMARK    1  A    between atoms: C_1  and  O_2
REMARK    2  A    between atoms: O_2  and  C_3
REMARK    3  A    between atoms: C_5  and  N_6
REMARK    4  A    between atoms: N_6  and  C_7
REMARK    5  A    between atoms: C_18  and  N_19
REMARK    6  A    between atoms: C_26  and  N_27
REMARK    7  A    between atoms: N_27  and  S_28
REMARK    8  A    between atoms: S_28  and  C_29
REMARK                            x       y       z     vdW  Elec       q    Type
REMARK                         _______ _______ _______ _____ _____    ______ ____
ROOT
ATOM      1  C   UNL     1       0.096  10.806  18.913  0.00  0.00    +0.000 A 
ATOM      2  C   UNL     1      -1.159  10.663  18.219  0.00  0.00    +0.000 A 
ATOM      3  C   UNL     1      -1.435   9.907  17.057  0.00  0.00    +0.000 A 
ATOM      4  C   UNL     1      -2.729   9.749  16.569  0.00  0.00    +0.000 A 
ATOM      5  C   UNL     1      -3.790  10.310  17.261  0.00  0.00    +0.000 A 
ATOM      6  C   UNL     1      -3.521  11.184  18.309  0.00  0.00    +0.000 A 
ATOM      7  C   UNL     1      -2.215  11.463  18.682  0.00  0.00    +0.000 A 
ATOM      8  N   UNL     1      -1.968  12.604  19.311  0.00  0.00    +0.000 NA
ATOM      9  C   UNL     1      -0.688  12.901  19.536  0.00  0.00    +0.000 A 
ATOM     10  C   UNL     1      -0.150  14.119  19.144  0.00  0.00    +0.000 A 
ATOM     11  C   UNL     1       1.204  14.403  19.333  0.00  0.00    +0.000 A 
ATOM     12  C   UNL     1       1.945  13.542  20.140  0.00  0.00    +0.000 A 
ATOM     13  C   UNL     1       1.444  12.278  20.422  0.00  0.00    +0.000 A 
ATOM     14  C   UNL     1       0.248  11.922  19.777  0.00  0.00    +0.000 A 
ENDROOT
BRANCH  12  15
ATOM     15  N   UNL     1       3.276  13.933  20.601  0.00  0.00    +0.000 N 
ATOM     16  O   UNL     1       3.576  13.672  21.770  0.00  0.00    +0.000 OA
ATOM     17  O   UNL     1       4.021  14.493  19.784  0.00  0.00    +0.000 OA
ENDBRANCH  12  15
BRANCH   1  18
ATOM     18  N   UNL     1       1.312  10.150  18.529  0.00  0.00    +0.000 N 
ATOM     19  H   UNL     1       1.424  10.304  17.526  0.00  0.00    +0.000 HD
BRANCH  18  22
ATOM     20  C   UNL     1       2.992   6.827  18.155  0.00  0.00    +0.000 A 
ATOM     21  C   UNL     1       2.584   8.157  17.931  0.00  0.00    +0.000 A 
ATOM     22  C   UNL     1       1.756   8.852  18.836  0.00  0.00    +0.000 A 
ATOM     23  C   UNL     1       1.469   8.243  20.053  0.00  0.00    +0.000 A 
ATOM     24  C   UNL     1       1.810   6.909  20.274  0.00  0.00    +0.000 A 
ATOM     25  C   UNL     1       2.561   6.192  19.328  0.00  0.00    +0.000 A 
BRANCH  20  27
ATOM     26  C   UNL     1       5.144   6.987  17.054  0.00  0.00    +0.000 C 
ATOM     27  O   UNL     1       3.877   6.370  17.224  0.00  0.00    +0.000 OA
ENDBRANCH  20  27
BRANCH  25  28
ATOM     28  N   UNL     1       2.795   4.805  19.566  0.00  0.00    +0.000 N 
ATOM     29  H   UNL     1       3.723   4.472  19.288  0.00  0.00    +0.000 HD
BRANCH  28  30
ATOM     30  S   UNL     1       1.634   3.683  19.107  0.00  0.00    +0.000 S 
ATOM     31  C   UNL     1       2.603   2.170  19.022  0.00  0.00    +0.000 C 
ATOM     32  O   UNL     1       0.648   3.537  20.136  0.00  0.00    +0.000 OA
ATOM     33  O   UNL     1       1.283   4.024  17.761  0.00  0.00    +0.000 OA
ENDBRANCH  28  30
ENDBRANCH  25  28
ENDBRANCH  18  22
ENDBRANCH   1  18
TORSDOF 6
ENDMDL
