MODEL 1
REMARK VINA RESULT:      -8.5      0.000      0.000
REMARK  Name = 
REMARK  3 active torsions:
REMARK  status: ('A' for Active; 'I' for Inactive)
REMARK    1  A    between atoms: C_12  and  O_13
REMARK    2  A    between atoms: C_14  and  O_15
REMARK    3  A    between atoms: C_21  and  O_22
REMARK                            x       y       z     vdW  Elec       q    Type
REMARK                         _______ _______ _______ _____ _____    ______ ____
ROOT
ATOM      1  O   UNL     1       6.657   5.315  19.874  0.00  0.00    +0.000 OA
ATOM      2  C   UNL     1       5.683   5.169  19.143  0.00  0.00    +0.000 C 
ATOM      3  N   UNL     1       4.418   5.355  19.627  0.00  0.00    +0.000 N 
ATOM      4  C   UNL     1       3.440   4.407  19.132  0.00  0.00    +0.000 C 
ATOM      5  C   UNL     1       2.098   4.497  19.869  0.00  0.00    +0.000 C 
ATOM      6  O   UNL     1       2.318   4.277  21.260  0.00  0.00    +0.000 OA
ATOM      7  P   UNL     1       2.329   2.664  21.554  0.00  0.00    +0.000 P 
ATOM      8  O   UNL     1       1.248   2.361  22.546  0.00  0.00    +0.000 OA
ATOM      9  O   UNL     1       3.773   2.249  21.672  0.00  0.00    +0.000 OA
ATOM     10  O   UNL     1       1.810   2.216  20.058  0.00  0.00    +0.000 OA
ATOM     11  C   UNL     1       1.191   3.347  19.450  0.00  0.00    +0.000 C 
ATOM     12  C   UNL     1       1.091   3.184  17.925  0.00  0.00    +0.000 C 
ATOM     13  C   UNL     1       2.467   3.217  17.210  0.00  0.00    +0.000 C 
ATOM     14  C   UNL     1       3.258   4.491  17.620  0.00  0.00    +0.000 C 
ATOM     15  C   UNL     1       4.612   4.639  16.928  0.00  0.00    +0.000 A 
ATOM     16  C   UNL     1       4.713   4.685  15.524  0.00  0.00    +0.000 A 
ATOM     17  C   UNL     1       5.976   4.735  14.970  0.00  0.00    +0.000 A 
ATOM     18  C   UNL     1       7.105   4.642  15.746  0.00  0.00    +0.000 A 
ATOM     19  C   UNL     1       7.049   4.616  17.121  0.00  0.00    +0.000 A 
ATOM     20  C   UNL     1       5.794   4.748  17.714  0.00  0.00    +0.000 A 
ATOM     21  O   UNL     1       8.253   4.657  15.010  0.00  0.00    +0.000 OA
ATOM     22  C   UNL     1       7.712   5.072  13.735  0.00  0.00    +0.000 C 
ATOM     23  O   UNL     1       6.282   4.883  13.652  0.00  0.00    +0.000 OA
ATOM     24  H   UNL     1       4.381   5.523  20.633  0.00  0.00    +0.000 HD
ENDROOT
BRANCH  12  25
ATOM     25  O   UNL     1       0.293   4.222  17.345  0.00  0.00    +0.000 OA
ATOM     26  H   UNL     1       0.586   5.089  17.675  0.00  0.00    +0.000 HD
ENDBRANCH  12  25
BRANCH  13  27
ATOM     27  O   UNL     1       3.242   2.043  17.494  0.00  0.00    +0.000 OA
ATOM     28  H   UNL     1       3.820   2.217  18.268  0.00  0.00    +0.000 HD
ENDBRANCH  13  27
BRANCH  19  29
ATOM     29  O   UNL     1       8.209   4.474  17.834  0.00  0.00    +0.000 OA
ATOM     30  H   UNL     1       8.923   4.626  17.177  0.00  0.00    +0.000 HD
ENDBRANCH  19  29
TORSDOF 3
ENDMDL
MODEL 2
REMARK VINA RESULT:      -7.6      3.591      6.095
REMARK  Name = 
REMARK  3 active torsions:
REMARK  status: ('A' for Active; 'I' for Inactive)
REMARK    1  A    between atoms: C_12  and  O_13
REMARK    2  A    between atoms: C_14  and  O_15
REMARK    3  A    between atoms: C_21  and  O_22
REMARK                            x       y       z     vdW  Elec       q    Type
REMARK                         _______ _______ _______ _____ _____    ______ ____
ROOT
ATOM      1  O   UNL     1       3.860   7.535  17.092  0.00  0.00    +0.000 OA
ATOM      2  C   UNL     1       3.486   7.086  18.170  0.00  0.00    +0.000 C 
ATOM      3  N   UNL     1       4.103   5.998  18.722  0.00  0.00    +0.000 N 
ATOM      4  C   UNL     1       3.206   5.061  19.367  0.00  0.00    +0.000 C 
ATOM      5  C   UNL     1       3.898   3.750  19.763  0.00  0.00    +0.000 C 
ATOM      6  O   UNL     1       4.457   3.152  18.596  0.00  0.00    +0.000 OA
ATOM      7  P   UNL     1       3.302   2.270  17.837  0.00  0.00    +0.000 P 
ATOM      8  O   UNL     1       3.773   0.851  17.755  0.00  0.00    +0.000 OA
ATOM      9  O   UNL     1       2.805   3.100  16.682  0.00  0.00    +0.000 OA
ATOM     10  O   UNL     1       2.184   2.384  19.040  0.00  0.00    +0.000 OA
ATOM     11  C   UNL     1       2.866   2.736  20.242  0.00  0.00    +0.000 C 
ATOM     12  C   UNL     1       1.900   3.310  21.291  0.00  0.00    +0.000 C 
ATOM     13  C   UNL     1       1.317   4.693  20.901  0.00  0.00    +0.000 C 
ATOM     14  C   UNL     1       2.462   5.682  20.546  0.00  0.00    +0.000 C 
ATOM     15  C   UNL     1       1.988   7.090  20.193  0.00  0.00    +0.000 A 
ATOM     16  C   UNL     1       1.230   7.854  21.101  0.00  0.00    +0.000 A 
ATOM     17  C   UNL     1       0.766   9.084  20.680  0.00  0.00    +0.000 A 
ATOM     18  C   UNL     1       0.946   9.516  19.389  0.00  0.00    +0.000 A 
ATOM     19  C   UNL     1       1.698   8.809  18.479  0.00  0.00    +0.000 A 
ATOM     20  C   UNL     1       2.331   7.652  18.930  0.00  0.00    +0.000 A 
ATOM     21  O   UNL     1       0.371  10.730  19.155  0.00  0.00    +0.000 OA
ATOM     22  C   UNL     1       0.085  11.124  20.516  0.00  0.00    +0.000 C 
ATOM     23  O   UNL     1       0.106  10.007  21.432  0.00  0.00    +0.000 OA
ATOM     24  H   UNL     1       4.806   5.570  18.117  0.00  0.00    +0.000 HD
ENDROOT
BRANCH  12  25
ATOM     25  O   UNL     1       2.550   3.472  22.557  0.00  0.00    +0.000 OA
ATOM     26  H   UNL     1       3.173   2.740  22.706  0.00  0.00    +0.000 HD
ENDBRANCH  12  25
BRANCH  13  27
ATOM     27  O   UNL     1       0.395   4.591  19.805  0.00  0.00    +0.000 OA
ATOM     28  H   UNL     1       0.896   4.591  18.961  0.00  0.00    +0.000 HD
ENDBRANCH  13  27
BRANCH  19  29
ATOM     29  O   UNL     1       1.800   9.272  17.194  0.00  0.00    +0.000 OA
ATOM     30  H   UNL     1       1.194  10.045  17.161  0.00  0.00    +0.000 HD
ENDBRANCH  19  29
TORSDOF 3
ENDMDL
MODEL 3
REMARK VINA RESULT:      -7.4      5.682      7.437
REMARK  Name = 
REMARK  3 active torsions:
REMARK  status: ('A' for Active; 'I' for Inactive)
REMARK    1  A    between atoms: C_12  and  O_13
REMARK    2  A    between atoms: C_14  and  O_15
REMARK    3  A    between atoms: C_21  and  O_22
REMARK                            x       y       z     vdW  Elec       q    Type
REMARK                         _______ _______ _______ _____ _____    ______ ____
ROOT
ATOM      1  O   UNL     1       2.190   9.132  17.031  0.00  0.00    +0.000 OA
ATOM      2  C   UNL     1       1.691   8.834  18.111  0.00  0.00    +0.000 C 
ATOM      3  N   UNL     1       0.614   9.526  18.592  0.00  0.00    +0.000 N 
ATOM      4  C   UNL     1       0.647   9.772  20.019  0.00  0.00    +0.000 C 
ATOM      5  C   UNL     1      -0.447  10.744  20.482  0.00  0.00    +0.000 C 
ATOM      6  O   UNL     1      -0.299  11.976  19.779  0.00  0.00    +0.000 OA
ATOM      7  P   UNL     1       0.805  12.908  20.553  0.00  0.00    +0.000 P 
ATOM      8  O   UNL     1       0.142  14.193  20.944  0.00  0.00    +0.000 OA
ATOM      9  O   UNL     1       2.098  12.782  19.790  0.00  0.00    +0.000 OA
ATOM     10  O   UNL     1       0.927  11.952  21.888  0.00  0.00    +0.000 OA
ATOM     11  C   UNL     1      -0.231  11.122  21.942  0.00  0.00    +0.000 C 
ATOM     12  C   UNL     1      -0.010   9.903  22.852  0.00  0.00    +0.000 C 
ATOM     13  C   UNL     1       1.019   8.889  22.287  0.00  0.00    +0.000 C 
ATOM     14  C   UNL     1       0.635   8.484  20.836  0.00  0.00    +0.000 C 
ATOM     15  C   UNL     1       1.565   7.448  20.207  0.00  0.00    +0.000 A 
ATOM     16  C   UNL     1       1.766   6.189  20.807  0.00  0.00    +0.000 A 
ATOM     17  C   UNL     1       2.685   5.338  20.227  0.00  0.00    +0.000 A 
ATOM     18  C   UNL     1       3.455   5.732  19.160  0.00  0.00    +0.000 A 
ATOM     19  C   UNL     1       3.274   6.944  18.534  0.00  0.00    +0.000 A 
ATOM     20  C   UNL     1       2.230   7.749  18.985  0.00  0.00    +0.000 A 
ATOM     21  O   UNL     1       4.338   4.771  18.764  0.00  0.00    +0.000 OA
ATOM     22  C   UNL     1       3.814   3.647  19.508  0.00  0.00    +0.000 C 
ATOM     23  O   UNL     1       2.950   4.054  20.591  0.00  0.00    +0.000 OA
ATOM     24  H   UNL     1       0.353  10.333  18.024  0.00  0.00    +0.000 HD
ENDROOT
BRANCH  12  25
ATOM     25  O   UNL     1      -1.232   9.187  23.062  0.00  0.00    +0.000 OA
ATOM     26  H   UNL     1      -1.460   9.192  24.008  0.00  0.00    +0.000 HD
ENDBRANCH  12  25
BRANCH  13  27
ATOM     27  O   UNL     1       2.354   9.414  22.315  0.00  0.00    +0.000 OA
ATOM     28  H   UNL     1       2.644   9.509  23.248  0.00  0.00    +0.000 HD
ENDBRANCH  13  27
BRANCH  19  29
ATOM     29  O   UNL     1       4.107   7.295  17.506  0.00  0.00    +0.000 OA
ATOM     30  H   UNL     1       4.517   6.449  17.220  0.00  0.00    +0.000 HD
ENDBRANCH  19  29
TORSDOF 3
ENDMDL
MODEL 4
REMARK VINA RESULT:      -6.7     11.071     13.226
REMARK  Name = 
REMARK  3 active torsions:
REMARK  status: ('A' for Active; 'I' for Inactive)
REMARK    1  A    between atoms: C_12  and  O_13
REMARK    2  A    between atoms: C_14  and  O_15
REMARK    3  A    between atoms: C_21  and  O_22
REMARK                            x       y       z     vdW  Elec       q    Type
REMARK                         _______ _______ _______ _____ _____    ______ ____
ROOT
ATOM      1  O   UNL     1      -7.200  11.965  19.670  0.00  0.00    +0.000 OA
ATOM      2  C   UNL     1      -6.024  12.052  20.009  0.00  0.00    +0.000 C 
ATOM      3  N   UNL     1      -5.691  12.214  21.325  0.00  0.00    +0.000 N 
ATOM      4  C   UNL     1      -4.590  13.126  21.558  0.00  0.00    +0.000 C 
ATOM      5  C   UNL     1      -4.400  13.463  23.043  0.00  0.00    +0.000 C 
ATOM      6  O   UNL     1      -5.606  14.029  23.547  0.00  0.00    +0.000 OA
ATOM      7  P   UNL     1      -5.623  15.636  23.223  0.00  0.00    +0.000 P 
ATOM      8  O   UNL     1      -5.735  16.376  24.521  0.00  0.00    +0.000 OA
ATOM      9  O   UNL     1      -6.509  15.832  22.020  0.00  0.00    +0.000 OA
ATOM     10  O   UNL     1      -4.063  15.720  22.703  0.00  0.00    +0.000 OA
ATOM     11  C   UNL     1      -3.372  14.577  23.201  0.00  0.00    +0.000 C 
ATOM     12  C   UNL     1      -2.076  14.315  22.417  0.00  0.00    +0.000 C 
ATOM     13  C   UNL     1      -2.320  13.863  20.953  0.00  0.00    +0.000 C 
ATOM     14  C   UNL     1      -3.289  12.648  20.919  0.00  0.00    +0.000 C 
ATOM     15  C   UNL     1      -3.556  12.097  19.519  0.00  0.00    +0.000 A 
ATOM     16  C   UNL     1      -2.503  11.640  18.702  0.00  0.00    +0.000 A 
ATOM     17  C   UNL     1      -2.812  11.236  17.420  0.00  0.00    +0.000 A 
ATOM     18  C   UNL     1      -4.082  11.363  16.912  0.00  0.00    +0.000 A 
ATOM     19  C   UNL     1      -5.139  11.786  17.683  0.00  0.00    +0.000 A 
ATOM     20  C   UNL     1      -4.892  12.028  19.034  0.00  0.00    +0.000 A 
ATOM     21  O   UNL     1      -4.173  10.959  15.613  0.00  0.00    +0.000 OA
ATOM     22  C   UNL     1      -2.897  10.292  15.482  0.00  0.00    +0.000 C 
ATOM     23  O   UNL     1      -1.963  10.675  16.516  0.00  0.00    +0.000 OA
ATOM     24  H   UNL     1      -6.494  12.345  21.942  0.00  0.00    +0.000 HD
ENDROOT
BRANCH  12  25
ATOM     25  O   UNL     1      -1.289  13.296  23.044  0.00  0.00    +0.000 OA
ATOM     26  H   UNL     1      -1.465  12.437  22.624  0.00  0.00    +0.000 HD
ENDBRANCH  12  25
BRANCH  13  27
ATOM     27  O   UNL     1      -2.839  14.930  20.147  0.00  0.00    +0.000 OA
ATOM     28  H   UNL     1      -2.623  14.759  19.205  0.00  0.00    +0.000 HD
ENDBRANCH  13  27
BRANCH  19  29
ATOM     29  O   UNL     1      -6.371  11.937  17.104  0.00  0.00    +0.000 OA
ATOM     30  H   UNL     1      -7.004  11.611  17.781  0.00  0.00    +0.000 HD
ENDBRANCH  19  29
TORSDOF 3
ENDMDL
MODEL 5
REMARK VINA RESULT:      -6.2      9.914     11.680
REMARK  Name = 
REMARK  3 active torsions:
REMARK  status: ('A' for Active; 'I' for Inactive)
REMARK    1  A    between atoms: C_12  and  O_13
REMARK    2  A    between atoms: C_14  and  O_15
REMARK    3  A    between atoms: C_21  and  O_22
REMARK                            x       y       z     vdW  Elec       q    Type
REMARK                         _______ _______ _______ _____ _____    ______ ____
ROOT
ATOM      1  O   UNL     1       8.962  10.493  20.898  0.00  0.00    +0.000 OA
ATOM      2  C   UNL     1       9.300  11.623  21.235  0.00  0.00    +0.000 C 
ATOM      3  N   UNL     1       9.204  12.016  22.541  0.00  0.00    +0.000 N 
ATOM      4  C   UNL     1       8.755  13.380  22.727  0.00  0.00    +0.000 C 
ATOM      5  C   UNL     1       8.434  13.708  24.191  0.00  0.00    +0.000 C 
ATOM      6  O   UNL     1       7.434  12.806  24.659  0.00  0.00    +0.000 OA
ATOM      7  P   UNL     1       5.956  13.381  24.246  0.00  0.00    +0.000 P 
ATOM      8  O   UNL     1       5.160  13.574  25.500  0.00  0.00    +0.000 OA
ATOM      9  O   UNL     1       5.509  12.610  23.031  0.00  0.00    +0.000 OA
ATOM     10  O   UNL     1       6.484  14.851  23.728  0.00  0.00    +0.000 OA
ATOM     11  C   UNL     1       7.775  15.078  24.290  0.00  0.00    +0.000 C 
ATOM     12  C   UNL     1       8.539  16.171  23.526  0.00  0.00    +0.000 C 
ATOM     13  C   UNL     1       8.946  15.750  22.090  0.00  0.00    +0.000 C 
ATOM     14  C   UNL     1       9.714  14.399  22.120  0.00  0.00    +0.000 C 
ATOM     15  C   UNL     1      10.200  13.923  20.752  0.00  0.00    +0.000 A 
ATOM     16  C   UNL     1      11.058  14.717  19.966  0.00  0.00    +0.000 A 
ATOM     17  C   UNL     1      11.386  14.258  18.707  0.00  0.00    +0.000 A 
ATOM     18  C   UNL     1      10.823  13.117  18.188  0.00  0.00    +0.000 A 
ATOM     19  C   UNL     1       9.999  12.305  18.931  0.00  0.00    +0.000 A 
ATOM     20  C   UNL     1       9.794  12.648  20.267  0.00  0.00    +0.000 A 
ATOM     21  O   UNL     1      11.234  12.860  16.913  0.00  0.00    +0.000 OA
ATOM     22  C   UNL     1      12.333  13.795  16.824  0.00  0.00    +0.000 C 
ATOM     23  O   UNL     1      12.269  14.822  17.838  0.00  0.00    +0.000 OA
ATOM     24  H   UNL     1       8.752  11.329  23.147  0.00  0.00    +0.000 HD
ENDROOT
BRANCH  12  25
ATOM     25  O   UNL     1       9.743  16.535  24.212  0.00  0.00    +0.000 OA
ATOM     26  H   UNL     1       9.533  16.835  25.113  0.00  0.00    +0.000 HD
ENDBRANCH  12  25
BRANCH  13  27
ATOM     27  O   UNL     1       7.806  15.650  21.223  0.00  0.00    +0.000 OA
ATOM     28  H   UNL     1       7.508  16.552  20.976  0.00  0.00    +0.000 HD
ENDBRANCH  13  27
BRANCH  19  29
ATOM     29  O   UNL     1       9.432  11.207  18.340  0.00  0.00    +0.000 OA
ATOM     30  H   UNL     1       8.566  11.103  18.790  0.00  0.00    +0.000 HD
ENDBRANCH  19  29
TORSDOF 3
ENDMDL
MODEL 6
REMARK VINA RESULT:      -6.2     10.423     12.067
REMARK  Name = 
REMARK  3 active torsions:
REMARK  status: ('A' for Active; 'I' for Inactive)
REMARK    1  A    between atoms: C_12  and  O_13
REMARK    2  A    between atoms: C_14  and  O_15
REMARK    3  A    between atoms: C_21  and  O_22
REMARK                            x       y       z     vdW  Elec       q    Type
REMARK                         _______ _______ _______ _____ _____    ______ ____
ROOT
ATOM      1  O   UNL     1      -1.177  12.396  20.012  0.00  0.00    +0.000 OA
ATOM      2  C   UNL     1      -2.340  12.557  19.659  0.00  0.00    +0.000 C 
ATOM      3  N   UNL     1      -3.127  13.494  20.270  0.00  0.00    +0.000 N 
ATOM      4  C   UNL     1      -4.499  13.079  20.485  0.00  0.00    +0.000 C 
ATOM      5  C   UNL     1      -5.283  14.052  21.375  0.00  0.00    +0.000 C 
ATOM      6  O   UNL     1      -4.616  14.172  22.629  0.00  0.00    +0.000 OA
ATOM      7  P   UNL     1      -5.093  12.948  23.610  0.00  0.00    +0.000 P 
ATOM      8  O   UNL     1      -5.703  13.545  24.841  0.00  0.00    +0.000 OA
ATOM      9  O   UNL     1      -3.998  11.913  23.585  0.00  0.00    +0.000 OA
ATOM     10  O   UNL     1      -6.302  12.408  22.634  0.00  0.00    +0.000 OA
ATOM     11  C   UNL     1      -6.641  13.459  21.731  0.00  0.00    +0.000 C 
ATOM     12  C   UNL     1      -7.405  12.927  20.508  0.00  0.00    +0.000 C 
ATOM     13  C   UNL     1      -6.538  12.044  19.574  0.00  0.00    +0.000 C 
ATOM     14  C   UNL     1      -5.234  12.793  19.179  0.00  0.00    +0.000 C 
ATOM     15  C   UNL     1      -4.333  12.020  18.219  0.00  0.00    +0.000 A 
ATOM     16  C   UNL     1      -4.802  11.592  16.961  0.00  0.00    +0.000 A 
ATOM     17  C   UNL     1      -3.958  10.827  16.184  0.00  0.00    +0.000 A 
ATOM     18  C   UNL     1      -2.736  10.406  16.650  0.00  0.00    +0.000 A 
ATOM     19  C   UNL     1      -2.234  10.819  17.863  0.00  0.00    +0.000 A 
ATOM     20  C   UNL     1      -2.987  11.739  18.590  0.00  0.00    +0.000 A 
ATOM     21  O   UNL     1      -2.074   9.617  15.757  0.00  0.00    +0.000 OA
ATOM     22  C   UNL     1      -2.888   9.852  14.585  0.00  0.00    +0.000 C 
ATOM     23  O   UNL     1      -4.183  10.402  14.911  0.00  0.00    +0.000 OA
ATOM     24  H   UNL     1      -2.686  13.946  21.072  0.00  0.00    +0.000 HD
ENDROOT
BRANCH  12  25
ATOM     25  O   UNL     1      -7.916  14.002  19.711  0.00  0.00    +0.000 OA
ATOM     26  H   UNL     1      -7.429  14.821  19.907  0.00  0.00    +0.000 HD
ENDBRANCH  12  25
BRANCH  13  27
ATOM     27  O   UNL     1      -6.217  10.784  20.182  0.00  0.00    +0.000 OA
ATOM     28  H   UNL     1      -5.291  10.807  20.506  0.00  0.00    +0.000 HD
ENDBRANCH  13  27
BRANCH  19  29
ATOM     29  O   UNL     1      -1.030  10.325  18.290  0.00  0.00    +0.000 OA
ATOM     30  H   UNL     1      -1.083  10.360  19.271  0.00  0.00    +0.000 HD
ENDBRANCH  19  29
TORSDOF 3
ENDMDL
MODEL 7
REMARK VINA RESULT:      -6.0     10.602     13.624
REMARK  Name = 
REMARK  3 active torsions:
REMARK  status: ('A' for Active; 'I' for Inactive)
REMARK    1  A    between atoms: C_12  and  O_13
REMARK    2  A    between atoms: C_14  and  O_15
REMARK    3  A    between atoms: C_21  and  O_22
REMARK                            x       y       z     vdW  Elec       q    Type
REMARK                         _______ _______ _______ _____ _____    ______ ____
ROOT
ATOM      1  O   UNL     1      -5.147  11.554  19.056  0.00  0.00    +0.000 OA
ATOM      2  C   UNL     1      -4.477  12.322  19.738  0.00  0.00    +0.000 C 
ATOM      3  N   UNL     1      -3.294  12.818  19.264  0.00  0.00    +0.000 N 
ATOM      4  C   UNL     1      -2.241  12.910  20.255  0.00  0.00    +0.000 C 
ATOM      5  C   UNL     1      -0.874  13.244  19.643  0.00  0.00    +0.000 C 
ATOM      6  O   UNL     1      -0.542  12.246  18.682  0.00  0.00    +0.000 OA
ATOM      7  P   UNL     1       0.153  10.973  19.446  0.00  0.00    +0.000 P 
ATOM      8  O   UNL     1       1.521  10.771  18.872  0.00  0.00    +0.000 OA
ATOM      9  O   UNL     1      -0.908   9.911  19.584  0.00  0.00    +0.000 OA
ATOM     10  O   UNL     1       0.301  11.713  20.908  0.00  0.00    +0.000 OA
ATOM     11  C   UNL     1       0.218  13.121  20.699  0.00  0.00    +0.000 C 
ATOM     12  C   UNL     1      -0.117  13.866  22.001  0.00  0.00    +0.000 C 
ATOM     13  C   UNL     1      -1.553  13.590  22.519  0.00  0.00    +0.000 C 
ATOM     14  C   UNL     1      -2.593  13.860  21.396  0.00  0.00    +0.000 C 
ATOM     15  C   UNL     1      -4.046  13.660  21.825  0.00  0.00    +0.000 A 
ATOM     16  C   UNL     1      -4.596  14.387  22.899  0.00  0.00    +0.000 A 
ATOM     17  C   UNL     1      -5.888  14.092  23.282  0.00  0.00    +0.000 A 
ATOM     18  C   UNL     1      -6.589  13.059  22.710  0.00  0.00    +0.000 A 
ATOM     19  C   UNL     1      -6.095  12.340  21.646  0.00  0.00    +0.000 A 
ATOM     20  C   UNL     1      -4.866  12.736  21.120  0.00  0.00    +0.000 A 
ATOM     21  O   UNL     1      -7.826  12.893  23.260  0.00  0.00    +0.000 OA
ATOM     22  C   UNL     1      -7.916  14.122  24.015  0.00  0.00    +0.000 C 
ATOM     23  O   UNL     1      -6.628  14.741  24.222  0.00  0.00    +0.000 OA
ATOM     24  H   UNL     1      -3.006  12.419  18.370  0.00  0.00    +0.000 HD
ENDROOT
BRANCH  12  25
ATOM     25  O   UNL     1      -0.000  15.283  21.829  0.00  0.00    +0.000 OA
ATOM     26  H   UNL     1       0.622  15.480  21.108  0.00  0.00    +0.000 HD
ENDBRANCH  12  25
BRANCH  13  27
ATOM     27  O   UNL     1      -1.692  12.247  23.007  0.00  0.00    +0.000 OA
ATOM     28  H   UNL     1      -1.799  12.267  23.982  0.00  0.00    +0.000 HD
ENDBRANCH  13  27
BRANCH  19  29
ATOM     29  O   UNL     1      -6.824  11.291  21.152  0.00  0.00    +0.000 OA
ATOM     30  H   UNL     1      -6.771  11.391  20.176  0.00  0.00    +0.000 HD
ENDBRANCH  19  29
TORSDOF 3
ENDMDL
MODEL 8
REMARK VINA RESULT:      -6.0      9.926     12.275
REMARK  Name = 
REMARK  3 active torsions:
REMARK  status: ('A' for Active; 'I' for Inactive)
REMARK    1  A    between atoms: C_12  and  O_13
REMARK    2  A    between atoms: C_14  and  O_15
REMARK    3  A    between atoms: C_21  and  O_22
REMARK                            x       y       z     vdW  Elec       q    Type
REMARK                         _______ _______ _______ _____ _____    ______ ____
ROOT
ATOM      1  O   UNL     1      -2.738  13.150  22.934  0.00  0.00    +0.000 OA
ATOM      2  C   UNL     1      -2.153  12.821  21.908  0.00  0.00    +0.000 C 
ATOM      3  N   UNL     1      -0.800  12.626  21.913  0.00  0.00    +0.000 N 
ATOM      4  C   UNL     1      -0.118  13.112  20.731  0.00  0.00    +0.000 C 
ATOM      5  C   UNL     1       1.410  13.090  20.872  0.00  0.00    +0.000 C 
ATOM      6  O   UNL     1       1.781  13.880  21.999  0.00  0.00    +0.000 OA
ATOM      7  P   UNL     1       1.883  15.451  21.544  0.00  0.00    +0.000 P 
ATOM      8  O   UNL     1       3.275  15.931  21.822  0.00  0.00    +0.000 OA
ATOM      9  O   UNL     1       0.614  16.124  22.000  0.00  0.00    +0.000 OA
ATOM     10  O   UNL     1       1.737  15.170  19.929  0.00  0.00    +0.000 OA
ATOM     11  C   UNL     1       2.057  13.801  19.691  0.00  0.00    +0.000 C 
ATOM     12  C   UNL     1       1.518  13.324  18.333  0.00  0.00    +0.000 C 
ATOM     13  C   UNL     1      -0.031  13.250  18.275  0.00  0.00    +0.000 C 
ATOM     14  C   UNL     1      -0.575  12.403  19.459  0.00  0.00    +0.000 C 
ATOM     15  C   UNL     1      -2.093  12.231  19.462  0.00  0.00    +0.000 A 
ATOM     16  C   UNL     1      -2.763  11.649  18.369  0.00  0.00    +0.000 A 
ATOM     17  C   UNL     1      -4.141  11.604  18.408  0.00  0.00    +0.000 A 
ATOM     18  C   UNL     1      -4.852  12.193  19.426  0.00  0.00    +0.000 A 
ATOM     19  C   UNL     1      -4.233  12.753  20.520  0.00  0.00    +0.000 A 
ATOM     20  C   UNL     1      -2.845  12.651  20.595  0.00  0.00    +0.000 A 
ATOM     21  O   UNL     1      -6.200  12.087  19.258  0.00  0.00    +0.000 OA
ATOM     22  C   UNL     1      -6.230  11.112  18.191  0.00  0.00    +0.000 C 
ATOM     23  O   UNL     1      -4.963  11.000  17.506  0.00  0.00    +0.000 OA
ATOM     24  H   UNL     1      -0.350  12.867  22.797  0.00  0.00    +0.000 HD
ENDROOT
BRANCH  12  25
ATOM     25  O   UNL     1       2.012  12.019  18.010  0.00  0.00    +0.000 OA
ATOM     26  H   UNL     1       1.913  11.429  18.777  0.00  0.00    +0.000 HD
ENDBRANCH  12  25
BRANCH  13  27
ATOM     27  O   UNL     1      -0.626  14.556  18.287  0.00  0.00    +0.000 OA
ATOM     28  H   UNL     1      -1.529  14.503  17.907  0.00  0.00    +0.000 HD
ENDBRANCH  13  27
BRANCH  19  29
ATOM     29  O   UNL     1      -4.997  13.367  21.477  0.00  0.00    +0.000 OA
ATOM     30  H   UNL     1      -4.346  13.729  22.118  0.00  0.00    +0.000 HD
ENDBRANCH  19  29
TORSDOF 3
ENDMDL
MODEL 9
REMARK VINA RESULT:      -6.0      9.684     11.681
REMARK  Name = 
REMARK  3 active torsions:
REMARK  status: ('A' for Active; 'I' for Inactive)
REMARK    1  A    between atoms: C_12  and  O_13
REMARK    2  A    between atoms: C_14  and  O_15
REMARK    3  A    between atoms: C_21  and  O_22
REMARK                            x       y       z     vdW  Elec       q    Type
REMARK                         _______ _______ _______ _____ _____    ______ ____
ROOT
ATOM      1  O   UNL     1      -1.635  12.265  17.836  0.00  0.00    +0.000 OA
ATOM      2  C   UNL     1      -1.706  12.236  19.060  0.00  0.00    +0.000 C 
ATOM      3  N   UNL     1      -2.660  12.962  19.717  0.00  0.00    +0.000 N 
ATOM      4  C   UNL     1      -2.204  13.582  20.945  0.00  0.00    +0.000 C 
ATOM      5  C   UNL     1      -3.222  14.572  21.526  0.00  0.00    +0.000 C 
ATOM      6  O   UNL     1      -3.496  15.578  20.554  0.00  0.00    +0.000 OA
ATOM      7  P   UNL     1      -2.354  16.750  20.656  0.00  0.00    +0.000 P 
ATOM      8  O   UNL     1      -3.039  18.049  20.950  0.00  0.00    +0.000 OA
ATOM      9  O   UNL     1      -1.374  16.506  19.537  0.00  0.00    +0.000 OA
ATOM     10  O   UNL     1      -1.664  16.194  22.043  0.00  0.00    +0.000 OA
ATOM     11  C   UNL     1      -2.604  15.338  22.689  0.00  0.00    +0.000 C 
ATOM     12  C   UNL     1      -1.919  14.422  23.716  0.00  0.00    +0.000 C 
ATOM     13  C   UNL     1      -0.990  13.360  23.074  0.00  0.00    +0.000 C 
ATOM     14  C   UNL     1      -1.757  12.559  21.985  0.00  0.00    +0.000 C 
ATOM     15  C   UNL     1      -0.937  11.453  21.324  0.00  0.00    +0.000 A 
ATOM     16  C   UNL     1      -0.366  10.414  22.086  0.00  0.00    +0.000 A 
ATOM     17  C   UNL     1       0.432   9.499  21.431  0.00  0.00    +0.000 A 
ATOM     18  C   UNL     1       0.747   9.640  20.101  0.00  0.00    +0.000 A 
ATOM     19  C   UNL     1       0.193  10.628  19.320  0.00  0.00    +0.000 A 
ATOM     20  C   UNL     1      -0.757  11.458  19.912  0.00  0.00    +0.000 A 
ATOM     21  O   UNL     1       1.587   8.666  19.652  0.00  0.00    +0.000 OA
ATOM     22  C   UNL     1       1.507   7.750  20.768  0.00  0.00    +0.000 C 
ATOM     23  O   UNL     1       0.990   8.377  21.963  0.00  0.00    +0.000 OA
ATOM     24  H   UNL     1      -3.209  13.571  19.108  0.00  0.00    +0.000 HD
ENDROOT
BRANCH  12  25
ATOM     25  O   UNL     1      -2.885  13.714  24.501  0.00  0.00    +0.000 OA
ATOM     26  H   UNL     1      -3.285  14.313  25.155  0.00  0.00    +0.000 HD
ENDBRANCH  12  25
BRANCH  13  27
ATOM     27  O   UNL     1       0.188  13.955  22.510  0.00  0.00    +0.000 OA
ATOM     28  H   UNL     1       0.290  13.654  21.582  0.00  0.00    +0.000 HD
ENDBRANCH  13  27
BRANCH  19  29
ATOM     29  O   UNL     1       0.585  10.744  18.013  0.00  0.00    +0.000 OA
ATOM     30  H   UNL     1      -0.019  11.419  17.633  0.00  0.00    +0.000 HD
ENDBRANCH  19  29
TORSDOF 3
ENDMDL
