MODEL 1
REMARK VINA RESULT:      -6.0      0.000      0.000
REMARK  Name = 
REMARK  10 active torsions:
REMARK  status: ('A' for Active; 'I' for Inactive)
REMARK    1  A    between atoms: C_1  and  C_2
REMARK    2  A    between atoms: C_2  and  C_3
REMARK    3  A    between atoms: C_4  and  C_5
REMARK    4  A    between atoms: C_4  and  C_6
REMARK    5  A    between atoms: C_6  and  N_7
REMARK    6  A    between atoms: C_9  and  N_10
REMARK    7  A    between atoms: N_10  and  C_11
REMARK    8  A    between atoms: N_10  and  C_12
REMARK    9  A    between atoms: C_14  and  C_15
REMARK   10  A    between atoms: C_15  and  O_16
REMARK                            x       y       z     vdW  Elec       q    Type
REMARK                         _______ _______ _______ _____ _____    ______ ____
ROOT
ATOM      1  N   UNL     1       5.890   4.419  16.906  0.00  0.00    +0.000 NA
ATOM      2  C   UNL     1       4.844   3.591  17.553  0.00  0.00    +0.000 C 
ATOM      3  C   UNL     1       4.044   4.510  18.503  0.00  0.00    +0.000 C 
ATOM      4  C   UNL     1       5.216   5.321  19.074  0.00  0.00    +0.000 C 
ATOM      5  C   UNL     1       6.255   5.422  17.948  0.00  0.00    +0.000 C 
ENDROOT
BRANCH   3   6
ATOM      6  N   UNL     1       2.994   5.333  17.852  0.00  0.00    +0.000 NA
ATOM      7  C   UNL     1       2.774   6.604  18.549  0.00  0.00    +0.000 C 
ATOM      8  C   UNL     1       1.711   4.622  17.770  0.00  0.00    +0.000 C 
ENDBRANCH   3   6
BRANCH   1   9
ATOM      9  C   UNL     1       5.380   5.101  15.694  0.00  0.00    +0.000 C 
BRANCH   9  11
ATOM     10  C   UNL     1       5.165   3.803  13.546  0.00  0.00    +0.000 C 
ATOM     11  C   UNL     1       5.915   4.563  14.370  0.00  0.00    +0.000 C 
ATOM     12  C   UNL     1       7.321   5.008  14.056  0.00  0.00    +0.000 C 
BRANCH  10  14
ATOM     13  C   UNL     1       4.322   3.173  11.292  0.00  0.00    +0.000 C 
ATOM     14  C   UNL     1       5.540   3.269  12.196  0.00  0.00    +0.000 C 
ENDBRANCH  10  14
ENDBRANCH   9  11
ENDBRANCH   1   9
BRANCH   5  15
ATOM     15  C   UNL     1       7.670   5.113  18.469  0.00  0.00    +0.000 C 
BRANCH  15  16
ATOM     16  O   UNL     1       8.260   4.072  17.694  0.00  0.00    +0.000 OA
ATOM     17  H   UNL     1       7.670   3.304  17.832  0.00  0.00    +0.000 HD
ENDBRANCH  15  16
ENDBRANCH   5  15
TORSDOF 6
ENDMDL
MODEL 2
REMARK VINA RESULT:      -5.9      2.048      3.308
REMARK  Name = 
REMARK  10 active torsions:
REMARK  status: ('A' for Active; 'I' for Inactive)
REMARK    1  A    between atoms: C_1  and  C_2
REMARK    2  A    between atoms: C_2  and  C_3
REMARK    3  A    between atoms: C_4  and  C_5
REMARK    4  A    between atoms: C_4  and  C_6
REMARK    5  A    between atoms: C_6  and  N_7
REMARK    6  A    between atoms: C_9  and  N_10
REMARK    7  A    between atoms: N_10  and  C_11
REMARK    8  A    between atoms: N_10  and  C_12
REMARK    9  A    between atoms: C_14  and  C_15
REMARK   10  A    between atoms: C_15  and  O_16
REMARK                            x       y       z     vdW  Elec       q    Type
REMARK                         _______ _______ _______ _____ _____    ______ ____
ROOT
ATOM      1  N   UNL     1       5.436   5.179  15.698  0.00  0.00    +0.000 NA
ATOM      2  C   UNL     1       5.278   6.575  16.169  0.00  0.00    +0.000 C 
ATOM      3  C   UNL     1       5.867   6.654  17.596  0.00  0.00    +0.000 C 
ATOM      4  C   UNL     1       5.336   5.318  18.134  0.00  0.00    +0.000 C 
ATOM      5  C   UNL     1       5.296   4.359  16.935  0.00  0.00    +0.000 C 
ENDROOT
BRANCH   3   6
ATOM      6  N   UNL     1       7.343   6.795  17.665  0.00  0.00    +0.000 NA
ATOM      7  C   UNL     1       7.901   6.193  18.880  0.00  0.00    +0.000 C 
ATOM      8  C   UNL     1       7.764   8.201  17.609  0.00  0.00    +0.000 C 
ENDBRANCH   3   6
BRANCH   1   9
ATOM      9  C   UNL     1       6.764   4.954  15.080  0.00  0.00    +0.000 C 
BRANCH   9  11
ATOM     10  C   UNL     1       5.822   3.561  13.204  0.00  0.00    +0.000 C 
ATOM     11  C   UNL     1       6.736   4.452  13.639  0.00  0.00    +0.000 C 
ATOM     12  C   UNL     1       7.778   5.088  12.754  0.00  0.00    +0.000 C 
BRANCH  10  14
ATOM     13  C   UNL     1       4.211   3.236  11.337  0.00  0.00    +0.000 C 
ATOM     14  C   UNL     1       5.642   3.039  11.810  0.00  0.00    +0.000 C 
ENDBRANCH  10  14
ENDBRANCH   9  11
ENDBRANCH   1   9
BRANCH   5  15
ATOM     15  C   UNL     1       3.964   3.591  16.882  0.00  0.00    +0.000 C 
BRANCH  15  16
ATOM     16  O   UNL     1       3.051   4.127  17.838  0.00  0.00    +0.000 OA
ATOM     17  H   UNL     1       2.285   4.415  17.304  0.00  0.00    +0.000 HD
ENDBRANCH  15  16
ENDBRANCH   5  15
TORSDOF 6
ENDMDL
MODEL 3
REMARK VINA RESULT:      -5.8      2.064      4.822
REMARK  Name = 
REMARK  10 active torsions:
REMARK  status: ('A' for Active; 'I' for Inactive)
REMARK    1  A    between atoms: C_1  and  C_2
REMARK    2  A    between atoms: C_2  and  C_3
REMARK    3  A    between atoms: C_4  and  C_5
REMARK    4  A    between atoms: C_4  and  C_6
REMARK    5  A    between atoms: C_6  and  N_7
REMARK    6  A    between atoms: C_9  and  N_10
REMARK    7  A    between atoms: N_10  and  C_11
REMARK    8  A    between atoms: N_10  and  C_12
REMARK    9  A    between atoms: C_14  and  C_15
REMARK   10  A    between atoms: C_15  and  O_16
REMARK                            x       y       z     vdW  Elec       q    Type
REMARK                         _______ _______ _______ _____ _____    ______ ____
ROOT
ATOM      1  N   UNL     1       4.735   3.931  17.178  0.00  0.00    +0.000 NA
ATOM      2  C   UNL     1       5.028   4.755  18.374  0.00  0.00    +0.000 C 
ATOM      3  C   UNL     1       4.730   6.227  18.009  0.00  0.00    +0.000 C 
ATOM      4  C   UNL     1       5.311   6.231  16.588  0.00  0.00    +0.000 C 
ATOM      5  C   UNL     1       5.086   4.818  16.031  0.00  0.00    +0.000 C 
ENDROOT
BRANCH   3   6
ATOM      6  N   UNL     1       3.300   6.621  18.084  0.00  0.00    +0.000 NA
ATOM      7  C   UNL     1       3.080   7.997  17.628  0.00  0.00    +0.000 C 
ATOM      8  C   UNL     1       2.765   6.492  19.445  0.00  0.00    +0.000 C 
ENDBRANCH   3   6
BRANCH   1   9
ATOM      9  C   UNL     1       3.307   3.545  17.111  0.00  0.00    +0.000 C 
BRANCH   9  11
ATOM     10  C   UNL     1       1.749   3.226  19.065  0.00  0.00    +0.000 C 
ATOM     11  C   UNL     1       2.781   2.778  18.320  0.00  0.00    +0.000 C 
ATOM     12  C   UNL     1       3.481   1.464  18.559  0.00  0.00    +0.000 C 
BRANCH  10  14
ATOM     13  C   UNL     1       1.741   2.967  21.539  0.00  0.00    +0.000 C 
ATOM     14  C   UNL     1       1.095   2.545  20.229  0.00  0.00    +0.000 C 
ENDBRANCH  10  14
ENDBRANCH   9  11
ENDBRANCH   1   9
BRANCH   5  15
ATOM     15  C   UNL     1       6.357   4.280  15.349  0.00  0.00    +0.000 C 
BRANCH  15  16
ATOM     16  O   UNL     1       7.516   4.826  15.975  0.00  0.00    +0.000 OA
ATOM     17  H   UNL     1       7.160   5.462  16.627  0.00  0.00    +0.000 HD
ENDBRANCH  15  16
ENDBRANCH   5  15
TORSDOF 6
ENDMDL
MODEL 4
REMARK VINA RESULT:      -5.7      1.907      3.207
REMARK  Name = 
REMARK  10 active torsions:
REMARK  status: ('A' for Active; 'I' for Inactive)
REMARK    1  A    between atoms: C_1  and  C_2
REMARK    2  A    between atoms: C_2  and  C_3
REMARK    3  A    between atoms: C_4  and  C_5
REMARK    4  A    between atoms: C_4  and  C_6
REMARK    5  A    between atoms: C_6  and  N_7
REMARK    6  A    between atoms: C_9  and  N_10
REMARK    7  A    between atoms: N_10  and  C_11
REMARK    8  A    between atoms: N_10  and  C_12
REMARK    9  A    between atoms: C_14  and  C_15
REMARK   10  A    between atoms: C_15  and  O_16
REMARK                            x       y       z     vdW  Elec       q    Type
REMARK                         _______ _______ _______ _____ _____    ______ ____
ROOT
ATOM      1  N   UNL     1       4.650   4.510  16.456  0.00  0.00    +0.000 NA
ATOM      2  C   UNL     1       4.798   5.984  16.495  0.00  0.00    +0.000 C 
ATOM      3  C   UNL     1       5.476   6.349  17.835  0.00  0.00    +0.000 C 
ATOM      4  C   UNL     1       4.726   5.365  18.743  0.00  0.00    +0.000 C 
ATOM      5  C   UNL     1       4.426   4.130  17.881  0.00  0.00    +0.000 C 
ENDROOT
BRANCH   3   6
ATOM      6  N   UNL     1       6.952   6.197  17.860  0.00  0.00    +0.000 NA
ATOM      7  C   UNL     1       7.441   5.751  19.168  0.00  0.00    +0.000 C 
ATOM      8  C   UNL     1       7.639   7.447  17.511  0.00  0.00    +0.000 C 
ENDBRANCH   3   6
BRANCH   1   9
ATOM      9  C   UNL     1       5.868   3.848  15.934  0.00  0.00    +0.000 C 
BRANCH   9  11
ATOM     10  C   UNL     1       5.372   3.424  13.500  0.00  0.00    +0.000 C 
ATOM     11  C   UNL     1       6.122   4.035  14.441  0.00  0.00    +0.000 C 
ATOM     12  C   UNL     1       7.239   4.999  14.130  0.00  0.00    +0.000 C 
BRANCH  10  14
ATOM     13  C   UNL     1       4.142   3.250  11.345  0.00  0.00    +0.000 C 
ATOM     14  C   UNL     1       5.470   3.572  12.011  0.00  0.00    +0.000 C 
ENDBRANCH  10  14
ENDBRANCH   9  11
ENDBRANCH   1   9
BRANCH   5  15
ATOM     15  C   UNL     1       2.968   3.670  18.055  0.00  0.00    +0.000 C 
BRANCH  15  16
ATOM     16  O   UNL     1       2.453   3.196  16.813  0.00  0.00    +0.000 OA
ATOM     17  H   UNL     1       3.106   3.496  16.151  0.00  0.00    +0.000 HD
ENDBRANCH  15  16
ENDBRANCH   5  15
TORSDOF 6
ENDMDL
MODEL 5
REMARK VINA RESULT:      -5.7      1.983      5.411
REMARK  Name = 
REMARK  10 active torsions:
REMARK  status: ('A' for Active; 'I' for Inactive)
REMARK    1  A    between atoms: C_1  and  C_2
REMARK    2  A    between atoms: C_2  and  C_3
REMARK    3  A    between atoms: C_4  and  C_5
REMARK    4  A    between atoms: C_4  and  C_6
REMARK    5  A    between atoms: C_6  and  N_7
REMARK    6  A    between atoms: C_9  and  N_10
REMARK    7  A    between atoms: N_10  and  C_11
REMARK    8  A    between atoms: N_10  and  C_12
REMARK    9  A    between atoms: C_14  and  C_15
REMARK   10  A    between atoms: C_15  and  O_16
REMARK                            x       y       z     vdW  Elec       q    Type
REMARK                         _______ _______ _______ _____ _____    ______ ____
ROOT
ATOM      1  N   UNL     1       4.756   4.591  16.657  0.00  0.00    +0.000 NA
ATOM      2  C   UNL     1       5.764   3.953  17.538  0.00  0.00    +0.000 C 
ATOM      3  C   UNL     1       7.047   4.811  17.473  0.00  0.00    +0.000 C 
ATOM      4  C   UNL     1       7.040   5.118  15.969  0.00  0.00    +0.000 C 
ATOM      5  C   UNL     1       5.563   5.188  15.554  0.00  0.00    +0.000 C 
ENDROOT
BRANCH   3   6
ATOM      6  N   UNL     1       7.047   6.016  18.341  0.00  0.00    +0.000 NA
ATOM      7  C   UNL     1       7.618   7.186  17.664  0.00  0.00    +0.000 C 
ATOM      8  C   UNL     1       7.789   5.794  19.589  0.00  0.00    +0.000 C 
ENDBRANCH   3   6
BRANCH   1   9
ATOM      9  C   UNL     1       3.995   5.646  17.366  0.00  0.00    +0.000 C 
BRANCH   9  11
ATOM     10  C   UNL     1       2.792   5.531  19.576  0.00  0.00    +0.000 C 
ATOM     11  C   UNL     1       2.888   5.144  18.288  0.00  0.00    +0.000 C 
ATOM     12  C   UNL     1       1.896   4.234  17.608  0.00  0.00    +0.000 C 
BRANCH  10  14
ATOM     13  C   UNL     1       2.110   3.925  21.349  0.00  0.00    +0.000 C 
ATOM     14  C   UNL     1       1.725   5.170  20.566  0.00  0.00    +0.000 C 
ENDBRANCH  10  14
ENDBRANCH   9  11
ENDBRANCH   1   9
BRANCH   5  15
ATOM     15  C   UNL     1       5.311   4.394  14.260  0.00  0.00    +0.000 C 
BRANCH  15  16
ATOM     16  O   UNL     1       6.353   3.442  14.059  0.00  0.00    +0.000 OA
ATOM     17  H   UNL     1       5.883   2.611  13.849  0.00  0.00    +0.000 HD
ENDBRANCH  15  16
ENDBRANCH   5  15
TORSDOF 6
ENDMDL
MODEL 6
REMARK VINA RESULT:      -5.6      3.115      4.424
REMARK  Name = 
REMARK  10 active torsions:
REMARK  status: ('A' for Active; 'I' for Inactive)
REMARK    1  A    between atoms: C_1  and  C_2
REMARK    2  A    between atoms: C_2  and  C_3
REMARK    3  A    between atoms: C_4  and  C_5
REMARK    4  A    between atoms: C_4  and  C_6
REMARK    5  A    between atoms: C_6  and  N_7
REMARK    6  A    between atoms: C_9  and  N_10
REMARK    7  A    between atoms: N_10  and  C_11
REMARK    8  A    between atoms: N_10  and  C_12
REMARK    9  A    between atoms: C_14  and  C_15
REMARK   10  A    between atoms: C_15  and  O_16
REMARK                            x       y       z     vdW  Elec       q    Type
REMARK                         _______ _______ _______ _____ _____    ______ ____
ROOT
ATOM      1  N   UNL     1       4.549   4.046  18.258  0.00  0.00    +0.000 NA
ATOM      2  C   UNL     1       3.813   4.861  17.262  0.00  0.00    +0.000 C 
ATOM      3  C   UNL     1       2.623   5.524  17.992  0.00  0.00    +0.000 C 
ATOM      4  C   UNL     1       2.200   4.334  18.864  0.00  0.00    +0.000 C 
ATOM      5  C   UNL     1       3.487   3.561  19.186  0.00  0.00    +0.000 C 
ENDROOT
BRANCH   3   6
ATOM      6  N   UNL     1       2.954   6.752  18.756  0.00  0.00    +0.000 NA
ATOM      7  C   UNL     1       2.100   6.917  19.937  0.00  0.00    +0.000 C 
ATOM      8  C   UNL     1       2.842   7.961  17.930  0.00  0.00    +0.000 C 
ENDBRANCH   3   6
BRANCH   1   9
ATOM      9  C   UNL     1       5.549   4.851  18.997  0.00  0.00    +0.000 C 
BRANCH   9  11
ATOM     10  C   UNL     1       6.648   6.867  17.962  0.00  0.00    +0.000 C 
ATOM     11  C   UNL     1       6.607   5.530  18.133  0.00  0.00    +0.000 C 
ATOM     12  C   UNL     1       7.619   4.576  17.549  0.00  0.00    +0.000 C 
BRANCH  10  14
ATOM     13  C   UNL     1       8.216   8.797  18.051  0.00  0.00    +0.000 C 
ATOM     14  C   UNL     1       7.665   7.663  17.200  0.00  0.00    +0.000 C 
ENDBRANCH  10  14
ENDBRANCH   9  11
ENDBRANCH   1   9
BRANCH   5  15
ATOM     15  C   UNL     1       3.294   2.048  18.982  0.00  0.00    +0.000 C 
BRANCH  15  16
ATOM     16  O   UNL     1       4.251   1.554  18.048  0.00  0.00    +0.000 OA
ATOM     17  H   UNL     1       3.733   1.389  17.236  0.00  0.00    +0.000 HD
ENDBRANCH  15  16
ENDBRANCH   5  15
TORSDOF 6
ENDMDL
MODEL 7
REMARK VINA RESULT:      -5.6      1.929      3.168
REMARK  Name = 
REMARK  10 active torsions:
REMARK  status: ('A' for Active; 'I' for Inactive)
REMARK    1  A    between atoms: C_1  and  C_2
REMARK    2  A    between atoms: C_2  and  C_3
REMARK    3  A    between atoms: C_4  and  C_5
REMARK    4  A    between atoms: C_4  and  C_6
REMARK    5  A    between atoms: C_6  and  N_7
REMARK    6  A    between atoms: C_9  and  N_10
REMARK    7  A    between atoms: N_10  and  C_11
REMARK    8  A    between atoms: N_10  and  C_12
REMARK    9  A    between atoms: C_14  and  C_15
REMARK   10  A    between atoms: C_15  and  O_16
REMARK                            x       y       z     vdW  Elec       q    Type
REMARK                         _______ _______ _______ _____ _____    ______ ____
ROOT
ATOM      1  N   UNL     1       4.349   4.348  18.410  0.00  0.00    +0.000 NA
ATOM      2  C   UNL     1       3.169   4.905  17.707  0.00  0.00    +0.000 C 
ATOM      3  C   UNL     1       2.298   5.626  18.760  0.00  0.00    +0.000 C 
ATOM      4  C   UNL     1       2.432   4.608  19.901  0.00  0.00    +0.000 C 
ATOM      5  C   UNL     1       3.832   3.993  19.763  0.00  0.00    +0.000 C 
ENDROOT
BRANCH   3   6
ATOM      6  N   UNL     1       2.738   6.999  19.113  0.00  0.00    +0.000 NA
ATOM      7  C   UNL     1       1.917   7.588  20.176  0.00  0.00    +0.000 C 
ATOM      8  C   UNL     1       2.711   7.900  17.954  0.00  0.00    +0.000 C 
ENDBRANCH   3   6
BRANCH   1   9
ATOM      9  C   UNL     1       5.442   5.341  18.523  0.00  0.00    +0.000 C 
BRANCH   9  11
ATOM     10  C   UNL     1       6.257   4.632  16.247  0.00  0.00    +0.000 C 
ATOM     11  C   UNL     1       6.308   5.502  17.277  0.00  0.00    +0.000 C 
ATOM     12  C   UNL     1       7.168   6.741  17.289  0.00  0.00    +0.000 C 
BRANCH  10  14
ATOM     13  C   UNL     1       6.242   3.981  13.846  0.00  0.00    +0.000 C 
ATOM     14  C   UNL     1       6.999   4.708  14.946  0.00  0.00    +0.000 C 
ENDBRANCH  10  14
ENDBRANCH   9  11
ENDBRANCH   1   9
BRANCH   5  15
ATOM     15  C   UNL     1       3.782   2.461  19.896  0.00  0.00    +0.000 C 
BRANCH  15  16
ATOM     16  O   UNL     1       5.102   1.923  19.868  0.00  0.00    +0.000 OA
ATOM     17  H   UNL     1       5.580   2.423  20.559  0.00  0.00    +0.000 HD
ENDBRANCH  15  16
ENDBRANCH   5  15
TORSDOF 6
ENDMDL
MODEL 8
REMARK VINA RESULT:      -5.6      3.026      4.734
REMARK  Name = 
REMARK  10 active torsions:
REMARK  status: ('A' for Active; 'I' for Inactive)
REMARK    1  A    between atoms: C_1  and  C_2
REMARK    2  A    between atoms: C_2  and  C_3
REMARK    3  A    between atoms: C_4  and  C_5
REMARK    4  A    between atoms: C_4  and  C_6
REMARK    5  A    between atoms: C_6  and  N_7
REMARK    6  A    between atoms: C_9  and  N_10
REMARK    7  A    between atoms: N_10  and  C_11
REMARK    8  A    between atoms: N_10  and  C_12
REMARK    9  A    between atoms: C_14  and  C_15
REMARK   10  A    between atoms: C_15  and  O_16
REMARK                            x       y       z     vdW  Elec       q    Type
REMARK                         _______ _______ _______ _____ _____    ______ ____
ROOT
ATOM      1  N   UNL     1       3.769   5.805  18.789  0.00  0.00    +0.000 NA
ATOM      2  C   UNL     1       4.064   4.657  19.679  0.00  0.00    +0.000 C 
ATOM      3  C   UNL     1       2.786   3.794  19.764  0.00  0.00    +0.000 C 
ATOM      4  C   UNL     1       1.753   4.926  19.851  0.00  0.00    +0.000 C 
ATOM      5  C   UNL     1       2.326   6.091  19.031  0.00  0.00    +0.000 C 
ENDROOT
BRANCH   3   6
ATOM      6  N   UNL     1       2.575   2.861  18.628  0.00  0.00    +0.000 NA
ATOM      7  C   UNL     1       1.211   2.322  18.600  0.00  0.00    +0.000 C 
ATOM      8  C   UNL     1       3.517   1.736  18.659  0.00  0.00    +0.000 C 
ENDBRANCH   3   6
BRANCH   1   9
ATOM      9  C   UNL     1       3.994   5.468  17.364  0.00  0.00    +0.000 C 
BRANCH   9  11
ATOM     10  C   UNL     1       6.191   6.694  17.491  0.00  0.00    +0.000 C 
ATOM     11  C   UNL     1       5.321   5.946  16.782  0.00  0.00    +0.000 C 
ATOM     12  C   UNL     1       5.581   5.456  15.379  0.00  0.00    +0.000 C 
BRANCH  10  14
ATOM     13  C   UNL     1       7.922   8.456  17.788  0.00  0.00    +0.000 C 
ATOM     14  C   UNL     1       7.548   7.170  17.067  0.00  0.00    +0.000 C 
ENDBRANCH  10  14
ENDBRANCH   9  11
ENDBRANCH   1   9
BRANCH   5  15
ATOM     15  C   UNL     1       2.198   7.422  19.793  0.00  0.00    +0.000 C 
BRANCH  15  16
ATOM     16  O   UNL     1       1.832   7.177  21.149  0.00  0.00    +0.000 OA
ATOM     17  H   UNL     1       0.862   7.060  21.119  0.00  0.00    +0.000 HD
ENDBRANCH  15  16
ENDBRANCH   5  15
TORSDOF 6
ENDMDL
MODEL 9
REMARK VINA RESULT:      -5.6      1.881      5.006
REMARK  Name = 
REMARK  10 active torsions:
REMARK  status: ('A' for Active; 'I' for Inactive)
REMARK    1  A    between atoms: C_1  and  C_2
REMARK    2  A    between atoms: C_2  and  C_3
REMARK    3  A    between atoms: C_4  and  C_5
REMARK    4  A    between atoms: C_4  and  C_6
REMARK    5  A    between atoms: C_6  and  N_7
REMARK    6  A    between atoms: C_9  and  N_10
REMARK    7  A    between atoms: N_10  and  C_11
REMARK    8  A    between atoms: N_10  and  C_12
REMARK    9  A    between atoms: C_14  and  C_15
REMARK   10  A    between atoms: C_15  and  O_16
REMARK                            x       y       z     vdW  Elec       q    Type
REMARK                         _______ _______ _______ _____ _____    ______ ____
ROOT
ATOM      1  N   UNL     1       4.823   4.554  16.473  0.00  0.00    +0.000 NA
ATOM      2  C   UNL     1       5.834   3.937  17.364  0.00  0.00    +0.000 C 
ATOM      3  C   UNL     1       7.101   4.819  17.311  0.00  0.00    +0.000 C 
ATOM      4  C   UNL     1       7.103   5.125  15.807  0.00  0.00    +0.000 C 
ATOM      5  C   UNL     1       5.629   5.166  15.378  0.00  0.00    +0.000 C 
ENDROOT
BRANCH   3   6
ATOM      6  N   UNL     1       7.070   6.024  18.178  0.00  0.00    +0.000 NA
ATOM      7  C   UNL     1       7.613   7.207  17.502  0.00  0.00    +0.000 C 
ATOM      8  C   UNL     1       7.815   5.822  19.427  0.00  0.00    +0.000 C 
ENDBRANCH   3   6
BRANCH   1   9
ATOM      9  C   UNL     1       4.035   5.595  17.173  0.00  0.00    +0.000 C 
BRANCH   9  11
ATOM     10  C   UNL     1       2.075   4.220  17.958  0.00  0.00    +0.000 C 
ATOM     11  C   UNL     1       3.076   5.079  18.242  0.00  0.00    +0.000 C 
ATOM     12  C   UNL     1       3.393   5.570  19.632  0.00  0.00    +0.000 C 
BRANCH  10  14
ATOM     13  C   UNL     1       1.480   2.136  19.179  0.00  0.00    +0.000 C 
ATOM     14  C   UNL     1       1.110   3.587  18.916  0.00  0.00    +0.000 C 
ENDBRANCH  10  14
ENDBRANCH   9  11
ENDBRANCH   1   9
BRANCH   5  15
ATOM     15  C   UNL     1       5.405   4.367  14.082  0.00  0.00    +0.000 C 
BRANCH  15  16
ATOM     16  O   UNL     1       6.436   3.395  13.922  0.00  0.00    +0.000 OA
ATOM     17  H   UNL     1       6.019   2.687  13.392  0.00  0.00    +0.000 HD
ENDBRANCH  15  16
ENDBRANCH   5  15
TORSDOF 6
ENDMDL
