MODEL 1
REMARK VINA RESULT:      -7.9      0.000      0.000
REMARK  Name = 
REMARK  5 active torsions:
REMARK  status: ('A' for Active; 'I' for Inactive)
REMARK    1  A    between atoms: C_2  and  C_3
REMARK    2  A    between atoms: C_3  and  N_4
REMARK    3  A    between atoms: N_4  and  C_5
REMARK    4  A    between atoms: C_8  and  C_9
REMARK    5  A    between atoms: N_15  and  C_16
REMARK                            x       y       z     vdW  Elec       q    Type
REMARK                         _______ _______ _______ _____ _____    ______ ____
ROOT
ATOM      1  N   UNL     1       6.734   5.817  19.050  0.00  0.00    +0.000 N 
ATOM      2  H   UNL     1       6.778   6.508  19.797  0.00  0.00    +0.000 HD
ENDROOT
BRANCH   1   3
ATOM      3  C   UNL     1       5.414   5.311  18.946  0.00  0.00    +0.000 A 
ATOM      4  C   UNL     1       5.167   3.955  19.193  0.00  0.00    +0.000 A 
ATOM      5  C   UNL     1       3.875   3.415  19.062  0.00  0.00    +0.000 A 
ATOM      6  C   UNL     1       2.787   4.200  18.650  0.00  0.00    +0.000 A 
ATOM      7  C   UNL     1       3.068   5.537  18.348  0.00  0.00    +0.000 A 
ATOM      8  F   UNL     1       2.084   6.339  17.910  0.00  0.00    +0.000 F 
ATOM      9  C   UNL     1       4.346   6.081  18.478  0.00  0.00    +0.000 A 
BRANCH   6  10
ATOM     10  C   UNL     1       1.403   3.624  18.473  0.00  0.00    +0.000 C 
ATOM     11  C   UNL     1       1.130   2.164  18.754  0.00  0.00    +0.000 C 
ATOM     12  C   UNL     1       0.595   3.210  19.683  0.00  0.00    +0.000 C 
ENDBRANCH   6  10
ENDBRANCH   1   3
BRANCH   1  13
ATOM     13  C   UNL     1       7.252   6.383  17.785  0.00  0.00    +0.000 C 
BRANCH  13  15
ATOM     14  O   UNL     1       7.993   4.341  16.805  0.00  0.00    +0.000 OA
ATOM     15  C   UNL     1       7.326   5.367  16.650  0.00  0.00    +0.000 C 
ATOM     16  N   UNL     1       6.687   5.753  15.484  0.00  0.00    +0.000 N 
ATOM     17  H   UNL     1       6.342   6.710  15.466  0.00  0.00    +0.000 HD
BRANCH  16  18
ATOM     18  C   UNL     1       6.592   4.982  14.304  0.00  0.00    +0.000 A 
ATOM     19  C   UNL     1       5.559   4.065  14.085  0.00  0.00    +0.000 A 
ATOM     20  C   UNL     1       5.492   3.324  12.902  0.00  0.00    +0.000 A 
ATOM     21  C   UNL     1       6.461   3.492  11.923  0.00  0.00    +0.000 A 
ATOM     22  C   UNL     1       7.497   4.405  12.124  0.00  0.00    +0.000 A 
ATOM     23  C   UNL     1       7.554   5.155  13.308  0.00  0.00    +0.000 A 
ENDBRANCH  16  18
ENDBRANCH  13  15
ENDBRANCH   1  13
TORSDOF 5
ENDMDL
MODEL 2
REMARK VINA RESULT:      -7.7      0.896      1.469
REMARK  Name = 
REMARK  5 active torsions:
REMARK  status: ('A' for Active; 'I' for Inactive)
REMARK    1  A    between atoms: C_2  and  C_3
REMARK    2  A    between atoms: C_3  and  N_4
REMARK    3  A    between atoms: N_4  and  C_5
REMARK    4  A    between atoms: C_8  and  C_9
REMARK    5  A    between atoms: N_15  and  C_16
REMARK                            x       y       z     vdW  Elec       q    Type
REMARK                         _______ _______ _______ _____ _____    ______ ____
ROOT
ATOM      1  N   UNL     1       5.722   6.925  17.705  0.00  0.00    +0.000 N 
ATOM      2  H   UNL     1       5.423   7.310  16.810  0.00  0.00    +0.000 HD
ENDROOT
BRANCH   1   3
ATOM      3  C   UNL     1       4.754   6.003  18.175  0.00  0.00    +0.000 A 
ATOM      4  C   UNL     1       5.080   5.116  19.208  0.00  0.00    +0.000 A 
ATOM      5  C   UNL     1       4.154   4.165  19.671  0.00  0.00    +0.000 A 
ATOM      6  C   UNL     1       2.878   4.042  19.101  0.00  0.00    +0.000 A 
ATOM      7  C   UNL     1       2.594   4.895  18.029  0.00  0.00    +0.000 A 
ATOM      8  F   UNL     1       1.407   4.808  17.407  0.00  0.00    +0.000 F 
ATOM      9  C   UNL     1       3.506   5.843  17.565  0.00  0.00    +0.000 A 
BRANCH   6  10
ATOM     10  C   UNL     1       1.888   3.002  19.566  0.00  0.00    +0.000 C 
ATOM     11  C   UNL     1       1.802   2.610  21.023  0.00  0.00    +0.000 C 
ATOM     12  C   UNL     1       0.698   3.412  20.406  0.00  0.00    +0.000 C 
ENDBRANCH   6  10
ENDBRANCH   1   3
BRANCH   1  13
ATOM     13  C   UNL     1       7.082   6.351  17.597  0.00  0.00    +0.000 C 
BRANCH  13  15
ATOM     14  O   UNL     1       7.907   4.328  16.645  0.00  0.00    +0.000 OA
ATOM     15  C   UNL     1       7.226   5.340  16.464  0.00  0.00    +0.000 C 
ATOM     16  N   UNL     1       6.629   5.716  15.273  0.00  0.00    +0.000 N 
ATOM     17  H   UNL     1       6.264   6.664  15.242  0.00  0.00    +0.000 HD
BRANCH  16  18
ATOM     18  C   UNL     1       6.601   4.946  14.089  0.00  0.00    +0.000 A 
ATOM     19  C   UNL     1       7.574   5.062  13.091  0.00  0.00    +0.000 A 
ATOM     20  C   UNL     1       7.520   4.278  11.936  0.00  0.00    +0.000 A 
ATOM     21  C   UNL     1       6.485   3.368  11.764  0.00  0.00    +0.000 A 
ATOM     22  C   UNL     1       5.507   3.238  12.750  0.00  0.00    +0.000 A 
ATOM     23  C   UNL     1       5.573   4.019  13.914  0.00  0.00    +0.000 A 
ENDBRANCH  16  18
ENDBRANCH  13  15
ENDBRANCH   1  13
TORSDOF 5
ENDMDL
MODEL 3
REMARK VINA RESULT:      -7.6      1.095      1.095
REMARK  Name = 
REMARK  5 active torsions:
REMARK  status: ('A' for Active; 'I' for Inactive)
REMARK    1  A    between atoms: C_2  and  C_3
REMARK    2  A    between atoms: C_3  and  N_4
REMARK    3  A    between atoms: N_4  and  C_5
REMARK    4  A    between atoms: C_8  and  C_9
REMARK    5  A    between atoms: N_15  and  C_16
REMARK                            x       y       z     vdW  Elec       q    Type
REMARK                         _______ _______ _______ _____ _____    ______ ____
ROOT
ATOM      1  N   UNL     1       6.979   5.230  18.874  0.00  0.00    +0.000 N 
ATOM      2  H   UNL     1       7.331   5.411  19.814  0.00  0.00    +0.000 HD
ENDROOT
BRANCH   1   3
ATOM      3  C   UNL     1       5.606   4.884  18.937  0.00  0.00    +0.000 A 
ATOM      4  C   UNL     1       5.158   3.701  18.339  0.00  0.00    +0.000 A 
ATOM      5  C   UNL     1       3.796   3.348  18.353  0.00  0.00    +0.000 A 
ATOM      6  C   UNL     1       2.827   4.178  18.936  0.00  0.00    +0.000 A 
ATOM      7  C   UNL     1       3.287   5.385  19.473  0.00  0.00    +0.000 A 
ATOM      8  F   UNL     1       2.412   6.248  20.013  0.00  0.00    +0.000 F 
ATOM      9  C   UNL     1       4.636   5.741  19.466  0.00  0.00    +0.000 A 
BRANCH   6  10
ATOM     10  C   UNL     1       1.359   3.827  18.925  0.00  0.00    +0.000 C 
ATOM     11  C   UNL     1       0.907   2.386  18.863  0.00  0.00    +0.000 C 
ATOM     12  C   UNL     1       0.731   3.163  20.131  0.00  0.00    +0.000 C 
ENDBRANCH   6  10
ENDBRANCH   1   3
BRANCH   1  13
ATOM     13  C   UNL     1       7.260   6.376  17.982  0.00  0.00    +0.000 C 
BRANCH  13  15
ATOM     14  O   UNL     1       5.845   6.847  16.123  0.00  0.00    +0.000 OA
ATOM     15  C   UNL     1       6.780   6.165  16.551  0.00  0.00    +0.000 C 
ATOM     16  N   UNL     1       7.405   5.129  15.876  0.00  0.00    +0.000 N 
ATOM     17  H   UNL     1       8.026   4.550  16.436  0.00  0.00    +0.000 HD
BRANCH  16  18
ATOM     18  C   UNL     1       7.157   4.751  14.539  0.00  0.00    +0.000 A 
ATOM     19  C   UNL     1       6.184   3.808  14.190  0.00  0.00    +0.000 A 
ATOM     20  C   UNL     1       5.959   3.464  12.855  0.00  0.00    +0.000 A 
ATOM     21  C   UNL     1       6.711   4.058  11.850  0.00  0.00    +0.000 A 
ATOM     22  C   UNL     1       7.684   5.002  12.179  0.00  0.00    +0.000 A 
ATOM     23  C   UNL     1       7.898   5.353  13.521  0.00  0.00    +0.000 A 
ENDBRANCH  16  18
ENDBRANCH  13  15
ENDBRANCH   1  13
TORSDOF 5
ENDMDL
MODEL 4
REMARK VINA RESULT:      -7.6      1.110      1.840
REMARK  Name = 
REMARK  5 active torsions:
REMARK  status: ('A' for Active; 'I' for Inactive)
REMARK    1  A    between atoms: C_2  and  C_3
REMARK    2  A    between atoms: C_3  and  N_4
REMARK    3  A    between atoms: N_4  and  C_5
REMARK    4  A    between atoms: C_8  and  C_9
REMARK    5  A    between atoms: N_15  and  C_16
REMARK                            x       y       z     vdW  Elec       q    Type
REMARK                         _______ _______ _______ _____ _____    ______ ____
ROOT
ATOM      1  N   UNL     1       6.722   5.388  19.379  0.00  0.00    +0.000 N 
ATOM      2  H   UNL     1       6.749   5.989  20.202  0.00  0.00    +0.000 HD
ENDROOT
BRANCH   1   3
ATOM      3  C   UNL     1       5.396   4.939  19.159  0.00  0.00    +0.000 A 
ATOM      4  C   UNL     1       4.359   5.871  19.027  0.00  0.00    +0.000 A 
ATOM      5  C   UNL     1       3.028   5.457  18.845  0.00  0.00    +0.000 A 
ATOM      6  C   UNL     1       2.676   4.099  18.820  0.00  0.00    +0.000 A 
ATOM      7  C   UNL     1       3.717   3.186  19.016  0.00  0.00    +0.000 A 
ATOM      8  F   UNL     1       3.450   1.871  19.044  0.00  0.00    +0.000 F 
ATOM      9  C   UNL     1       5.041   3.588  19.195  0.00  0.00    +0.000 A 
BRANCH   6  10
ATOM     10  C   UNL     1       1.245   3.644  18.661  0.00  0.00    +0.000 C 
ATOM     11  C   UNL     1       0.875   2.186  18.807  0.00  0.00    +0.000 C 
ATOM     12  C   UNL     1       0.466   3.163  19.865  0.00  0.00    +0.000 C 
ENDBRANCH   6  10
ENDBRANCH   1   3
BRANCH   1  13
ATOM     13  C   UNL     1       7.315   6.077  18.211  0.00  0.00    +0.000 C 
BRANCH  13  15
ATOM     14  O   UNL     1       8.114   4.175  17.017  0.00  0.00    +0.000 OA
ATOM     15  C   UNL     1       7.419   5.194  16.972  0.00  0.00    +0.000 C 
ATOM     16  N   UNL     1       6.771   5.687  15.853  0.00  0.00    +0.000 N 
ATOM     17  H   UNL     1       6.399   6.629  15.937  0.00  0.00    +0.000 HD
BRANCH  16  18
ATOM     18  C   UNL     1       6.699   5.047  14.596  0.00  0.00    +0.000 A 
ATOM     19  C   UNL     1       7.637   5.270  13.581  0.00  0.00    +0.000 A 
ATOM     20  C   UNL     1       7.539   4.612  12.352  0.00  0.00    +0.000 A 
ATOM     21  C   UNL     1       6.498   3.724  12.123  0.00  0.00    +0.000 A 
ATOM     22  C   UNL     1       5.556   3.487  13.124  0.00  0.00    +0.000 A 
ATOM     23  C   UNL     1       5.664   4.141  14.361  0.00  0.00    +0.000 A 
ENDBRANCH  16  18
ENDBRANCH  13  15
ENDBRANCH   1  13
TORSDOF 5
ENDMDL
MODEL 5
REMARK VINA RESULT:      -7.6      1.106      1.503
REMARK  Name = 
REMARK  5 active torsions:
REMARK  status: ('A' for Active; 'I' for Inactive)
REMARK    1  A    between atoms: C_2  and  C_3
REMARK    2  A    between atoms: C_3  and  N_4
REMARK    3  A    between atoms: N_4  and  C_5
REMARK    4  A    between atoms: C_8  and  C_9
REMARK    5  A    between atoms: N_15  and  C_16
REMARK                            x       y       z     vdW  Elec       q    Type
REMARK                         _______ _______ _______ _____ _____    ______ ____
ROOT
ATOM      1  N   UNL     1       6.783   5.489  19.375  0.00  0.00    +0.000 N 
ATOM      2  H   UNL     1       6.778   6.131  20.167  0.00  0.00    +0.000 HD
ENDROOT
BRANCH   1   3
ATOM      3  C   UNL     1       5.469   5.015  19.138  0.00  0.00    +0.000 A 
ATOM      4  C   UNL     1       4.404   5.920  19.069  0.00  0.00    +0.000 A 
ATOM      5  C   UNL     1       3.083   5.478  18.871  0.00  0.00    +0.000 A 
ATOM      6  C   UNL     1       2.772   4.114  18.766  0.00  0.00    +0.000 A 
ATOM      7  C   UNL     1       3.842   3.223  18.901  0.00  0.00    +0.000 A 
ATOM      8  F   UNL     1       3.614   1.901  18.851  0.00  0.00    +0.000 F 
ATOM      9  C   UNL     1       5.154   3.653  19.094  0.00  0.00    +0.000 A 
BRANCH   6  10
ATOM     10  C   UNL     1       1.354   3.626  18.590  0.00  0.00    +0.000 C 
ATOM     11  C   UNL     1       0.986   2.191  18.888  0.00  0.00    +0.000 C 
ATOM     12  C   UNL     1       0.516   3.281  19.802  0.00  0.00    +0.000 C 
ENDBRANCH   6  10
ENDBRANCH   1   3
BRANCH   1  13
ATOM     13  C   UNL     1       7.405   6.125  18.193  0.00  0.00    +0.000 C 
BRANCH  13  15
ATOM     14  O   UNL     1       8.100   4.149  17.056  0.00  0.00    +0.000 OA
ATOM     15  C   UNL     1       7.474   5.209  16.976  0.00  0.00    +0.000 C 
ATOM     16  N   UNL     1       6.880   5.717  15.833  0.00  0.00    +0.000 N 
ATOM     17  H   UNL     1       6.568   6.683  15.890  0.00  0.00    +0.000 HD
BRANCH  16  18
ATOM     18  C   UNL     1       6.790   5.054  14.589  0.00  0.00    +0.000 A 
ATOM     19  C   UNL     1       5.796   4.110  14.309  0.00  0.00    +0.000 A 
ATOM     20  C   UNL     1       5.732   3.479  13.064  0.00  0.00    +0.000 A 
ATOM     21  C   UNL     1       6.665   3.786  12.082  0.00  0.00    +0.000 A 
ATOM     22  C   UNL     1       7.660   4.728  12.344  0.00  0.00    +0.000 A 
ATOM     23  C   UNL     1       7.714   5.367  13.592  0.00  0.00    +0.000 A 
ENDBRANCH  16  18
ENDBRANCH  13  15
ENDBRANCH   1  13
TORSDOF 5
ENDMDL
MODEL 6
REMARK VINA RESULT:      -7.5      1.051      1.481
REMARK  Name = 
REMARK  5 active torsions:
REMARK  status: ('A' for Active; 'I' for Inactive)
REMARK    1  A    between atoms: C_2  and  C_3
REMARK    2  A    between atoms: C_3  and  N_4
REMARK    3  A    between atoms: N_4  and  C_5
REMARK    4  A    between atoms: C_8  and  C_9
REMARK    5  A    between atoms: N_15  and  C_16
REMARK                            x       y       z     vdW  Elec       q    Type
REMARK                         _______ _______ _______ _____ _____    ______ ____
ROOT
ATOM      1  N   UNL     1       6.925   5.493  18.786  0.00  0.00    +0.000 N 
ATOM      2  H   UNL     1       7.268   5.753  19.710  0.00  0.00    +0.000 HD
ENDROOT
BRANCH   1   3
ATOM      3  C   UNL     1       5.566   5.099  18.876  0.00  0.00    +0.000 A 
ATOM      4  C   UNL     1       5.170   3.850  18.386  0.00  0.00    +0.000 A 
ATOM      5  C   UNL     1       3.824   3.445  18.428  0.00  0.00    +0.000 A 
ATOM      6  C   UNL     1       2.818   4.283  18.932  0.00  0.00    +0.000 A 
ATOM      7  C   UNL     1       3.226   5.552  19.358  0.00  0.00    +0.000 A 
ATOM      8  F   UNL     1       2.313   6.423  19.816  0.00  0.00    +0.000 F 
ATOM      9  C   UNL     1       4.559   5.960  19.323  0.00  0.00    +0.000 A 
BRANCH   6  10
ATOM     10  C   UNL     1       1.365   3.873  18.949  0.00  0.00    +0.000 C 
ATOM     11  C   UNL     1       0.967   2.423  18.799  0.00  0.00    +0.000 C 
ATOM     12  C   UNL     1       0.811   3.100  20.126  0.00  0.00    +0.000 C 
ENDBRANCH   6  10
ENDBRANCH   1   3
BRANCH   1  13
ATOM     13  C   UNL     1       7.160   6.586  17.816  0.00  0.00    +0.000 C 
BRANCH  13  15
ATOM     14  O   UNL     1       5.644   6.855  15.997  0.00  0.00    +0.000 OA
ATOM     15  C   UNL     1       6.649   6.274  16.414  0.00  0.00    +0.000 C 
ATOM     16  N   UNL     1       7.338   5.269  15.756  0.00  0.00    +0.000 N 
ATOM     17  H   UNL     1       8.027   4.769  16.312  0.00  0.00    +0.000 HD
BRANCH  16  18
ATOM     18  C   UNL     1       7.076   4.815  14.444  0.00  0.00    +0.000 A 
ATOM     19  C   UNL     1       7.820   5.238  13.338  0.00  0.00    +0.000 A 
ATOM     20  C   UNL     1       7.539   4.762  12.055  0.00  0.00    +0.000 A 
ATOM     21  C   UNL     1       6.504   3.856  11.863  0.00  0.00    +0.000 A 
ATOM     22  C   UNL     1       5.754   3.422  12.956  0.00  0.00    +0.000 A 
ATOM     23  C   UNL     1       6.047   3.894  14.244  0.00  0.00    +0.000 A 
ENDBRANCH  16  18
ENDBRANCH  13  15
ENDBRANCH   1  13
TORSDOF 5
ENDMDL
MODEL 7
REMARK VINA RESULT:      -7.4      2.328      6.413
REMARK  Name = 
REMARK  5 active torsions:
REMARK  status: ('A' for Active; 'I' for Inactive)
REMARK    1  A    between atoms: C_2  and  C_3
REMARK    2  A    between atoms: C_3  and  N_4
REMARK    3  A    between atoms: N_4  and  C_5
REMARK    4  A    between atoms: C_8  and  C_9
REMARK    5  A    between atoms: N_15  and  C_16
REMARK                            x       y       z     vdW  Elec       q    Type
REMARK                         _______ _______ _______ _____ _____    ______ ____
ROOT
ATOM      1  N   UNL     1       7.212   5.089  17.407  0.00  0.00    +0.000 N 
ATOM      2  H   UNL     1       7.112   4.264  17.997  0.00  0.00    +0.000 HD
ENDROOT
BRANCH   1   3
ATOM      3  C   UNL     1       6.887   4.759  16.067  0.00  0.00    +0.000 A 
ATOM      4  C   UNL     1       5.940   3.762  15.806  0.00  0.00    +0.000 A 
ATOM      5  C   UNL     1       5.623   3.385  14.489  0.00  0.00    +0.000 A 
ATOM      6  C   UNL     1       6.261   3.967  13.383  0.00  0.00    +0.000 A 
ATOM      7  C   UNL     1       7.249   4.916  13.667  0.00  0.00    +0.000 A 
ATOM      8  F   UNL     1       7.930   5.487  12.661  0.00  0.00    +0.000 F 
ATOM      9  C   UNL     1       7.567   5.297  14.971  0.00  0.00    +0.000 A 
BRANCH   6  10
ATOM     10  C   UNL     1       5.954   3.546  11.966  0.00  0.00    +0.000 C 
ATOM     11  C   UNL     1       5.533   2.129  11.653  0.00  0.00    +0.000 C 
ATOM     12  C   UNL     1       4.529   3.237  11.561  0.00  0.00    +0.000 C 
ENDBRANCH   6  10
ENDBRANCH   1   3
BRANCH   1  13
ATOM     13  C   UNL     1       6.419   6.216  17.947  0.00  0.00    +0.000 C 
BRANCH  13  15
ATOM     14  O   UNL     1       4.120   6.597  17.448  0.00  0.00    +0.000 OA
ATOM     15  C   UNL     1       4.931   5.907  18.071  0.00  0.00    +0.000 C 
ATOM     16  N   UNL     1       4.621   4.903  18.972  0.00  0.00    +0.000 N 
ATOM     17  H   UNL     1       5.394   4.562  19.537  0.00  0.00    +0.000 HD
BRANCH  16  18
ATOM     18  C   UNL     1       3.323   4.417  19.247  0.00  0.00    +0.000 A 
ATOM     19  C   UNL     1       2.656   4.687  20.448  0.00  0.00    +0.000 A 
ATOM     20  C   UNL     1       1.369   4.197  20.683  0.00  0.00    +0.000 A 
ATOM     21  C   UNL     1       0.734   3.427  19.718  0.00  0.00    +0.000 A 
ATOM     22  C   UNL     1       1.383   3.151  18.515  0.00  0.00    +0.000 A 
ATOM     23  C   UNL     1       2.671   3.654  18.278  0.00  0.00    +0.000 A 
ENDBRANCH  16  18
ENDBRANCH  13  15
ENDBRANCH   1  13
TORSDOF 5
ENDMDL
MODEL 8
REMARK VINA RESULT:      -7.4      1.308      1.668
REMARK  Name = 
REMARK  5 active torsions:
REMARK  status: ('A' for Active; 'I' for Inactive)
REMARK    1  A    between atoms: C_2  and  C_3
REMARK    2  A    between atoms: C_3  and  N_4
REMARK    3  A    between atoms: N_4  and  C_5
REMARK    4  A    between atoms: C_8  and  C_9
REMARK    5  A    between atoms: N_15  and  C_16
REMARK                            x       y       z     vdW  Elec       q    Type
REMARK                         _______ _______ _______ _____ _____    ______ ____
ROOT
ATOM      1  N   UNL     1       5.879   6.775  17.870  0.00  0.00    +0.000 N 
ATOM      2  H   UNL     1       5.548   7.281  17.049  0.00  0.00    +0.000 HD
ENDROOT
BRANCH   1   3
ATOM      3  C   UNL     1       4.936   5.779  18.228  0.00  0.00    +0.000 A 
ATOM      4  C   UNL     1       3.595   5.922  17.852  0.00  0.00    +0.000 A 
ATOM      5  C   UNL     1       2.629   4.970  18.224  0.00  0.00    +0.000 A 
ATOM      6  C   UNL     1       2.958   3.857  19.012  0.00  0.00    +0.000 A 
ATOM      7  C   UNL     1       4.290   3.766  19.430  0.00  0.00    +0.000 A 
ATOM      8  F   UNL     1       4.670   2.748  20.219  0.00  0.00    +0.000 F 
ATOM      9  C   UNL     1       5.255   4.704  19.063  0.00  0.00    +0.000 A 
BRANCH   6  10
ATOM     10  C   UNL     1       1.923   2.848  19.447  0.00  0.00    +0.000 C 
ATOM     11  C   UNL     1       1.644   2.607  20.912  0.00  0.00    +0.000 C 
ATOM     12  C   UNL     1       0.627   3.315  20.072  0.00  0.00    +0.000 C 
ENDBRANCH   6  10
ENDBRANCH   1   3
BRANCH   1  13
ATOM     13  C   UNL     1       7.241   6.245  17.640  0.00  0.00    +0.000 C 
BRANCH  13  15
ATOM     14  O   UNL     1       7.941   4.186  16.665  0.00  0.00    +0.000 OA
ATOM     15  C   UNL     1       7.317   5.237  16.499  0.00  0.00    +0.000 C 
ATOM     16  N   UNL     1       6.731   5.655  15.316  0.00  0.00    +0.000 N 
ATOM     17  H   UNL     1       6.420   6.623  15.296  0.00  0.00    +0.000 HD
BRANCH  16  18
ATOM     18  C   UNL     1       6.647   4.898  14.127  0.00  0.00    +0.000 A 
ATOM     19  C   UNL     1       5.648   3.943  13.910  0.00  0.00    +0.000 A 
ATOM     20  C   UNL     1       5.590   3.218  12.718  0.00  0.00    +0.000 A 
ATOM     21  C   UNL     1       6.537   3.439  11.726  0.00  0.00    +0.000 A 
ATOM     22  C   UNL     1       7.538   4.389  11.924  0.00  0.00    +0.000 A 
ATOM     23  C   UNL     1       7.585   5.123  13.119  0.00  0.00    +0.000 A 
ENDBRANCH  16  18
ENDBRANCH  13  15
ENDBRANCH   1  13
TORSDOF 5
ENDMDL
MODEL 9
REMARK VINA RESULT:      -7.4      2.382      6.599
REMARK  Name = 
REMARK  5 active torsions:
REMARK  status: ('A' for Active; 'I' for Inactive)
REMARK    1  A    between atoms: C_2  and  C_3
REMARK    2  A    between atoms: C_3  and  N_4
REMARK    3  A    between atoms: N_4  and  C_5
REMARK    4  A    between atoms: C_8  and  C_9
REMARK    5  A    between atoms: N_15  and  C_16
REMARK                            x       y       z     vdW  Elec       q    Type
REMARK                         _______ _______ _______ _____ _____    ______ ____
ROOT
ATOM      1  N   UNL     1       7.459   5.379  17.011  0.00  0.00    +0.000 N 
ATOM      2  H   UNL     1       7.689   4.570  17.587  0.00  0.00    +0.000 HD
ENDROOT
BRANCH   1   3
ATOM      3  C   UNL     1       7.059   4.948  15.721  0.00  0.00    +0.000 A 
ATOM      4  C   UNL     1       6.064   3.972  15.591  0.00  0.00    +0.000 A 
ATOM      5  C   UNL     1       5.670   3.497  14.328  0.00  0.00    +0.000 A 
ATOM      6  C   UNL     1       6.277   3.954  13.148  0.00  0.00    +0.000 A 
ATOM      7  C   UNL     1       7.312   4.882  13.303  0.00  0.00    +0.000 A 
ATOM      8  F   UNL     1       7.965   5.335  12.222  0.00  0.00    +0.000 F 
ATOM      9  C   UNL     1       7.706   5.361  14.553  0.00  0.00    +0.000 A 
BRANCH   6  10
ATOM     10  C   UNL     1       5.887   3.425  11.789  0.00  0.00    +0.000 C 
ATOM     11  C   UNL     1       5.472   1.983  11.608  0.00  0.00    +0.000 C 
ATOM     12  C   UNL     1       4.445   3.068  11.500  0.00  0.00    +0.000 C 
ENDBRANCH   6  10
ENDBRANCH   1   3
BRANCH   1  13
ATOM     13  C   UNL     1       6.457   6.233  17.687  0.00  0.00    +0.000 C 
BRANCH  13  15
ATOM     14  O   UNL     1       6.278   5.099  19.775  0.00  0.00    +0.000 OA
ATOM     15  C   UNL     1       5.678   5.507  18.778  0.00  0.00    +0.000 C 
ATOM     16  N   UNL     1       4.341   5.292  18.489  0.00  0.00    +0.000 N 
ATOM     17  H   UNL     1       4.049   5.530  17.545  0.00  0.00    +0.000 HD
BRANCH  16  18
ATOM     18  C   UNL     1       3.406   4.667  19.343  0.00  0.00    +0.000 A 
ATOM     19  C   UNL     1       2.283   5.332  19.848  0.00  0.00    +0.000 A 
ATOM     20  C   UNL     1       1.374   4.680  20.684  0.00  0.00    +0.000 A 
ATOM     21  C   UNL     1       1.579   3.351  21.029  0.00  0.00    +0.000 A 
ATOM     22  C   UNL     1       2.691   2.671  20.533  0.00  0.00    +0.000 A 
ATOM     23  C   UNL     1       3.596   3.327  19.684  0.00  0.00    +0.000 A 
ENDBRANCH  16  18
ENDBRANCH  13  15
ENDBRANCH   1  13
TORSDOF 5
ENDMDL
