MODEL 1
REMARK VINA RESULT:      -8.0      0.000      0.000
REMARK  Name = 
REMARK  3 active torsions:
REMARK  status: ('A' for Active; 'I' for Inactive)
REMARK    1  A    between atoms: C_6  and  C_7
REMARK    2  A    between atoms: C_7  and  N_8
REMARK    3  A    between atoms: N_8  and  C_9
REMARK                            x       y       z     vdW  Elec       q    Type
REMARK                         _______ _______ _______ _____ _____    ______ ____
ROOT
ATOM      1  C   UNL     1       5.373   4.006  17.007  0.00  0.00    +0.000 A 
ATOM      2  C   UNL     1       4.948   4.201  15.689  0.00  0.00    +0.000 A 
ATOM      3  C   UNL     1       5.409   5.294  14.982  0.00  0.00    +0.000 A 
ATOM      4  N   UNL     1       6.241   6.219  15.491  0.00  0.00    +0.000 NA
ATOM      5  C   UNL     1       6.644   6.070  16.759  0.00  0.00    +0.000 A 
ATOM      6  C   UNL     1       7.491   7.040  17.266  0.00  0.00    +0.000 A 
ATOM      7  C   UNL     1       7.983   6.956  18.559  0.00  0.00    +0.000 A 
ATOM      8  F   UNL     1       8.814   7.902  19.015  0.00  0.00    +0.000 F 
ATOM      9  C   UNL     1       7.630   5.905  19.385  0.00  0.00    +0.000 A 
ATOM     10  C   UNL     1       6.758   4.929  18.903  0.00  0.00    +0.000 A 
ATOM     11  C   UNL     1       6.245   4.982  17.579  0.00  0.00    +0.000 A 
ENDROOT
BRANCH   1  12
ATOM     12  N   UNL     1       4.841   2.954  17.790  0.00  0.00    +0.000 N 
ATOM     13  H   UNL     1       5.453   2.144  17.792  0.00  0.00    +0.000 HD
BRANCH  12  14
ATOM     14  C   UNL     1       3.444   2.572  17.603  0.00  0.00    +0.000 C 
BRANCH  14  20
ATOM     15  O   UNL     1       1.899   5.514  21.025  0.00  0.00    +0.000 OA
ATOM     16  S   UNL     1       2.018   4.072  21.049  0.00  0.00    +0.000 S 
ATOM     17  O   UNL     1       2.200   3.324  22.276  0.00  0.00    +0.000 OA
ATOM     18  C   UNL     1       0.653   3.374  20.132  0.00  0.00    +0.000 C 
ATOM     19  C   UNL     1       1.278   2.614  18.968  0.00  0.00    +0.000 C 
ATOM     20  C   UNL     1       2.568   3.357  18.580  0.00  0.00    +0.000 C 
ATOM     21  C   UNL     1       3.298   3.600  19.902  0.00  0.00    +0.000 C 
ENDBRANCH  14  20
ENDBRANCH  12  14
ENDBRANCH   1  12
TORSDOF 3
ENDMDL
MODEL 2
REMARK VINA RESULT:      -7.3      5.881      6.894
REMARK  Name = 
REMARK  3 active torsions:
REMARK  status: ('A' for Active; 'I' for Inactive)
REMARK    1  A    between atoms: C_6  and  C_7
REMARK    2  A    between atoms: C_7  and  N_8
REMARK    3  A    between atoms: N_8  and  C_9
REMARK                            x       y       z     vdW  Elec       q    Type
REMARK                         _______ _______ _______ _____ _____    ______ ____
ROOT
ATOM      1  C   UNL     1       1.565   8.420  19.994  0.00  0.00    +0.000 A 
ATOM      2  C   UNL     1       1.651   8.883  18.678  0.00  0.00    +0.000 A 
ATOM      3  C   UNL     1       1.007  10.053  18.326  0.00  0.00    +0.000 A 
ATOM      4  N   UNL     1       0.264  10.784  19.175  0.00  0.00    +0.000 NA
ATOM      5  C   UNL     1       0.144  10.349  20.437  0.00  0.00    +0.000 A 
ATOM      6  C   UNL     1      -0.634  11.111  21.291  0.00  0.00    +0.000 A 
ATOM      7  C   UNL     1      -0.794  10.757  22.621  0.00  0.00    +0.000 A 
ATOM      8  F   UNL     1      -1.540  11.524  23.427  0.00  0.00    +0.000 F 
ATOM      9  C   UNL     1      -0.190   9.622  23.130  0.00  0.00    +0.000 A 
ATOM     10  C   UNL     1       0.578   8.826  22.281  0.00  0.00    +0.000 A 
ATOM     11  C   UNL     1       0.769   9.169  20.915  0.00  0.00    +0.000 A 
ENDROOT
BRANCH   1  12
ATOM     12  N   UNL     1       2.130   7.175  20.361  0.00  0.00    +0.000 N 
ATOM     13  H   UNL     1       2.671   7.248  21.217  0.00  0.00    +0.000 HD
BRANCH  12  14
ATOM     14  C   UNL     1       2.829   6.392  19.346  0.00  0.00    +0.000 C 
BRANCH  14  20
ATOM     15  O   UNL     1       2.632   1.636  19.028  0.00  0.00    +0.000 OA
ATOM     16  S   UNL     1       1.549   2.586  19.167  0.00  0.00    +0.000 S 
ATOM     17  O   UNL     1       0.206   2.311  18.698  0.00  0.00    +0.000 OA
ATOM     18  C   UNL     1       1.479   3.123  20.869  0.00  0.00    +0.000 C 
ATOM     19  C   UNL     1       1.737   4.625  20.843  0.00  0.00    +0.000 C 
ATOM     20  C   UNL     1       2.685   4.903  19.664  0.00  0.00    +0.000 C 
ATOM     21  C   UNL     1       2.082   4.142  18.483  0.00  0.00    +0.000 C 
ENDBRANCH  14  20
ENDBRANCH  12  14
ENDBRANCH   1  12
TORSDOF 3
ENDMDL
MODEL 3
REMARK VINA RESULT:      -7.3      2.439      3.589
REMARK  Name = 
REMARK  3 active torsions:
REMARK  status: ('A' for Active; 'I' for Inactive)
REMARK    1  A    between atoms: C_6  and  C_7
REMARK    2  A    between atoms: C_7  and  N_8
REMARK    3  A    between atoms: N_8  and  C_9
REMARK                            x       y       z     vdW  Elec       q    Type
REMARK                         _______ _______ _______ _____ _____    ______ ____
ROOT
ATOM      1  C   UNL     1       5.238   4.402  16.160  0.00  0.00    +0.000 A 
ATOM      2  C   UNL     1       5.870   5.187  17.129  0.00  0.00    +0.000 A 
ATOM      3  C   UNL     1       7.014   5.885  16.796  0.00  0.00    +0.000 A 
ATOM      4  N   UNL     1       7.590   5.844  15.582  0.00  0.00    +0.000 NA
ATOM      5  C   UNL     1       7.019   5.080  14.642  0.00  0.00    +0.000 A 
ATOM      6  C   UNL     1       7.635   5.044  13.403  0.00  0.00    +0.000 A 
ATOM      7  C   UNL     1       7.102   4.303  12.360  0.00  0.00    +0.000 A 
ATOM      8  F   UNL     1       7.713   4.302  11.168  0.00  0.00    +0.000 F 
ATOM      9  C   UNL     1       5.945   3.568  12.532  0.00  0.00    +0.000 A 
ATOM     10  C   UNL     1       5.321   3.570  13.779  0.00  0.00    +0.000 A 
ATOM     11  C   UNL     1       5.837   4.327  14.865  0.00  0.00    +0.000 A 
ENDROOT
BRANCH   1  12
ATOM     12  N   UNL     1       4.123   3.597  16.496  0.00  0.00    +0.000 N 
ATOM     13  H   UNL     1       3.248   4.080  16.326  0.00  0.00    +0.000 HD
BRANCH  12  14
ATOM     14  C   UNL     1       4.115   2.905  17.783  0.00  0.00    +0.000 C 
BRANCH  14  20
ATOM     15  O   UNL     1       1.527   5.144  21.107  0.00  0.00    +0.000 OA
ATOM     16  S   UNL     1       1.857   3.738  21.002  0.00  0.00    +0.000 S 
ATOM     17  O   UNL     1       1.916   2.862  22.154  0.00  0.00    +0.000 OA
ATOM     18  C   UNL     1       0.810   3.001  19.756  0.00  0.00    +0.000 C 
ATOM     19  C   UNL     1       1.751   2.489  18.671  0.00  0.00    +0.000 C 
ATOM     20  C   UNL     1       2.963   3.435  18.637  0.00  0.00    +0.000 C 
ATOM     21  C   UNL     1       3.386   3.590  20.099  0.00  0.00    +0.000 C 
ENDBRANCH  14  20
ENDBRANCH  12  14
ENDBRANCH   1  12
TORSDOF 3
ENDMDL
MODEL 4
REMARK VINA RESULT:      -7.3      5.521      6.546
REMARK  Name = 
REMARK  3 active torsions:
REMARK  status: ('A' for Active; 'I' for Inactive)
REMARK    1  A    between atoms: C_6  and  C_7
REMARK    2  A    between atoms: C_7  and  N_8
REMARK    3  A    between atoms: N_8  and  C_9
REMARK                            x       y       z     vdW  Elec       q    Type
REMARK                         _______ _______ _______ _____ _____    ______ ____
ROOT
ATOM      1  C   UNL     1       1.946   7.910  19.868  0.00  0.00    +0.000 A 
ATOM      2  C   UNL     1       2.079   8.151  18.497  0.00  0.00    +0.000 A 
ATOM      3  C   UNL     1       1.442   9.239  17.934  0.00  0.00    +0.000 A 
ATOM      4  N   UNL     1       0.665  10.092  18.624  0.00  0.00    +0.000 NA
ATOM      5  C   UNL     1       0.500   9.870  19.934  0.00  0.00    +0.000 A 
ATOM      6  C   UNL     1      -0.313  10.755  20.622  0.00  0.00    +0.000 A 
ATOM      7  C   UNL     1      -0.521  10.623  21.986  0.00  0.00    +0.000 A 
ATOM      8  F   UNL     1      -1.300  11.504  22.626  0.00  0.00    +0.000 F 
ATOM      9  C   UNL     1       0.069   9.594  22.697  0.00  0.00    +0.000 A 
ATOM     10  C   UNL     1       0.872   8.677  22.019  0.00  0.00    +0.000 A 
ATOM     11  C   UNL     1       1.112   8.792  20.623  0.00  0.00    +0.000 A 
ENDROOT
BRANCH   1  12
ATOM     12  N   UNL     1       2.502   6.749  20.456  0.00  0.00    +0.000 N 
ATOM     13  H   UNL     1       3.482   6.642  20.216  0.00  0.00    +0.000 HD
BRANCH  12  14
ATOM     14  C   UNL     1       1.778   5.485  20.343  0.00  0.00    +0.000 C 
BRANCH  14  20
ATOM     15  O   UNL     1       3.616   1.470  18.539  0.00  0.00    +0.000 OA
ATOM     16  S   UNL     1       4.143   2.326  19.580  0.00  0.00    +0.000 S 
ATOM     17  O   UNL     1       5.032   1.841  20.615  0.00  0.00    +0.000 OA
ATOM     18  C   UNL     1       4.868   3.769  18.814  0.00  0.00    +0.000 C 
ATOM     19  C   UNL     1       4.072   4.961  19.336  0.00  0.00    +0.000 C 
ATOM     20  C   UNL     1       2.632   4.477  19.574  0.00  0.00    +0.000 C 
ATOM     21  C   UNL     1       2.777   3.169  20.354  0.00  0.00    +0.000 C 
ENDBRANCH  14  20
ENDBRANCH  12  14
ENDBRANCH   1  12
TORSDOF 3
ENDMDL
MODEL 5
REMARK VINA RESULT:      -7.2      1.197      1.409
REMARK  Name = 
REMARK  3 active torsions:
REMARK  status: ('A' for Active; 'I' for Inactive)
REMARK    1  A    between atoms: C_6  and  C_7
REMARK    2  A    between atoms: C_7  and  N_8
REMARK    3  A    between atoms: N_8  and  C_9
REMARK                            x       y       z     vdW  Elec       q    Type
REMARK                         _______ _______ _______ _____ _____    ______ ____
ROOT
ATOM      1  C   UNL     1       5.522   3.746  16.347  0.00  0.00    +0.000 A 
ATOM      2  C   UNL     1       5.591   3.790  14.951  0.00  0.00    +0.000 A 
ATOM      3  C   UNL     1       6.395   4.733  14.341  0.00  0.00    +0.000 A 
ATOM      4  N   UNL     1       7.115   5.649  15.010  0.00  0.00    +0.000 NA
ATOM      5  C   UNL     1       7.047   5.646  16.347  0.00  0.00    +0.000 A 
ATOM      6  C   UNL     1       7.789   6.605  17.015  0.00  0.00    +0.000 A 
ATOM      7  C   UNL     1       7.803   6.663  18.400  0.00  0.00    +0.000 A 
ATOM      8  F   UNL     1       8.543   7.593  19.017  0.00  0.00    +0.000 F 
ATOM      9  C   UNL     1       7.066   5.769  19.154  0.00  0.00    +0.000 A 
ATOM     10  C   UNL     1       6.293   4.809  18.502  0.00  0.00    +0.000 A 
ATOM     11  C   UNL     1       6.265   4.719  17.084  0.00  0.00    +0.000 A 
ENDROOT
BRANCH   1  12
ATOM     12  N   UNL     1       4.632   2.860  16.999  0.00  0.00    +0.000 N 
ATOM     13  H   UNL     1       4.580   1.965  16.523  0.00  0.00    +0.000 HD
BRANCH  12  14
ATOM     14  C   UNL     1       3.308   3.344  17.382  0.00  0.00    +0.000 C 
BRANCH  14  20
ATOM     15  O   UNL     1       3.061   2.416  22.055  0.00  0.00    +0.000 OA
ATOM     16  S   UNL     1       2.027   2.901  21.166  0.00  0.00    +0.000 S 
ATOM     17  O   UNL     1       0.618   2.681  21.416  0.00  0.00    +0.000 OA
ATOM     18  C   UNL     1       2.306   4.641  20.867  0.00  0.00    +0.000 C 
ATOM     19  C   UNL     1       2.550   4.771  19.367  0.00  0.00    +0.000 C 
ATOM     20  C   UNL     1       3.236   3.475  18.903  0.00  0.00    +0.000 C 
ATOM     21  C   UNL     1       2.405   2.346  19.516  0.00  0.00    +0.000 C 
ENDBRANCH  14  20
ENDBRANCH  12  14
ENDBRANCH   1  12
TORSDOF 3
ENDMDL
MODEL 6
REMARK VINA RESULT:      -7.2      2.429      3.602
REMARK  Name = 
REMARK  3 active torsions:
REMARK  status: ('A' for Active; 'I' for Inactive)
REMARK    1  A    between atoms: C_6  and  C_7
REMARK    2  A    between atoms: C_7  and  N_8
REMARK    3  A    between atoms: N_8  and  C_9
REMARK                            x       y       z     vdW  Elec       q    Type
REMARK                         _______ _______ _______ _____ _____    ______ ____
ROOT
ATOM      1  C   UNL     1       4.959   5.061  16.588  0.00  0.00    +0.000 A 
ATOM      2  C   UNL     1       5.709   5.810  17.500  0.00  0.00    +0.000 A 
ATOM      3  C   UNL     1       6.970   6.247  17.145  0.00  0.00    +0.000 A 
ATOM      4  N   UNL     1       7.551   5.978  15.963  0.00  0.00    +0.000 NA
ATOM      5  C   UNL     1       6.864   5.241  15.080  0.00  0.00    +0.000 A 
ATOM      6  C   UNL     1       7.486   4.966  13.874  0.00  0.00    +0.000 A 
ATOM      7  C   UNL     1       6.843   4.235  12.888  0.00  0.00    +0.000 A 
ATOM      8  F   UNL     1       7.465   3.999  11.726  0.00  0.00    +0.000 F 
ATOM      9  C   UNL     1       5.565   3.747  13.086  0.00  0.00    +0.000 A 
ATOM     10  C   UNL     1       4.929   3.991  14.303  0.00  0.00    +0.000 A 
ATOM     11  C   UNL     1       5.558   4.746  15.330  0.00  0.00    +0.000 A 
ENDROOT
BRANCH   1  12
ATOM     12  N   UNL     1       3.708   4.514  16.959  0.00  0.00    +0.000 N 
ATOM     13  H   UNL     1       3.196   4.172  16.152  0.00  0.00    +0.000 HD
BRANCH  12  14
ATOM     14  C   UNL     1       2.846   5.273  17.861  0.00  0.00    +0.000 C 
BRANCH  14  20
ATOM     15  O   UNL     1       1.671   3.236  22.012  0.00  0.00    +0.000 OA
ATOM     16  S   UNL     1       2.667   2.826  21.045  0.00  0.00    +0.000 S 
ATOM     17  O   UNL     1       3.835   2.050  21.409  0.00  0.00    +0.000 OA
ATOM     18  C   UNL     1       1.837   2.030  19.677  0.00  0.00    +0.000 C 
ATOM     19  C   UNL     1       2.145   2.882  18.451  0.00  0.00    +0.000 C 
ATOM     20  C   UNL     1       2.280   4.337  18.930  0.00  0.00    +0.000 C 
ATOM     21  C   UNL     1       3.201   4.270  20.148  0.00  0.00    +0.000 C 
ENDBRANCH  14  20
ENDBRANCH  12  14
ENDBRANCH   1  12
TORSDOF 3
ENDMDL
MODEL 7
REMARK VINA RESULT:      -7.2      4.385      6.591
REMARK  Name = 
REMARK  3 active torsions:
REMARK  status: ('A' for Active; 'I' for Inactive)
REMARK    1  A    between atoms: C_6  and  C_7
REMARK    2  A    between atoms: C_7  and  N_8
REMARK    3  A    between atoms: N_8  and  C_9
REMARK                            x       y       z     vdW  Elec       q    Type
REMARK                         _______ _______ _______ _____ _____    ______ ____
ROOT
ATOM      1  C   UNL     1       2.876   6.292  18.521  0.00  0.00    +0.000 A 
ATOM      2  C   UNL     1       2.451   7.155  19.536  0.00  0.00    +0.000 A 
ATOM      3  C   UNL     1       1.691   6.656  20.576  0.00  0.00    +0.000 A 
ATOM      4  N   UNL     1       1.301   5.374  20.671  0.00  0.00    +0.000 NA
ATOM      5  C   UNL     1       1.673   4.531  19.698  0.00  0.00    +0.000 A 
ATOM      6  C   UNL     1       1.251   3.218  19.811  0.00  0.00    +0.000 A 
ATOM      7  C   UNL     1       1.609   2.267  18.868  0.00  0.00    +0.000 A 
ATOM      8  F   UNL     1       1.199   1.001  19.014  0.00  0.00    +0.000 F 
ATOM      9  C   UNL     1       2.390   2.608  17.779  0.00  0.00    +0.000 A 
ATOM     10  C   UNL     1       2.806   3.931  17.633  0.00  0.00    +0.000 A 
ATOM     11  C   UNL     1       2.463   4.926  18.588  0.00  0.00    +0.000 A 
ENDROOT
BRANCH   1  12
ATOM     12  N   UNL     1       3.570   6.791  17.393  0.00  0.00    +0.000 N 
ATOM     13  H   UNL     1       3.632   6.096  16.655  0.00  0.00    +0.000 HD
BRANCH  12  14
ATOM     14  C   UNL     1       4.843   7.477  17.594  0.00  0.00    +0.000 C 
BRANCH  14  20
ATOM     15  O   UNL     1       7.737   5.291  14.495  0.00  0.00    +0.000 OA
ATOM     16  S   UNL     1       6.725   4.718  15.357  0.00  0.00    +0.000 S 
ATOM     17  O   UNL     1       6.049   3.475  15.049  0.00  0.00    +0.000 OA
ATOM     18  C   UNL     1       7.377   4.635  17.019  0.00  0.00    +0.000 C 
ATOM     19  C   UNL     1       6.469   5.519  17.867  0.00  0.00    +0.000 C 
ATOM     20  C   UNL     1       5.969   6.657  16.963  0.00  0.00    +0.000 C 
ATOM     21  C   UNL     1       5.497   5.967  15.682  0.00  0.00    +0.000 C 
ENDBRANCH  14  20
ENDBRANCH  12  14
ENDBRANCH   1  12
TORSDOF 3
ENDMDL
MODEL 8
REMARK VINA RESULT:      -7.2      5.842      6.839
REMARK  Name = 
REMARK  3 active torsions:
REMARK  status: ('A' for Active; 'I' for Inactive)
REMARK    1  A    between atoms: C_6  and  C_7
REMARK    2  A    between atoms: C_7  and  N_8
REMARK    3  A    between atoms: N_8  and  C_9
REMARK                            x       y       z     vdW  Elec       q    Type
REMARK                         _______ _______ _______ _____ _____    ______ ____
ROOT
ATOM      1  C   UNL     1       1.669   8.434  19.930  0.00  0.00    +0.000 A 
ATOM      2  C   UNL     1       1.684   8.887  18.607  0.00  0.00    +0.000 A 
ATOM      3  C   UNL     1       0.958  10.011  18.267  0.00  0.00    +0.000 A 
ATOM      4  N   UNL     1       0.201  10.705  19.133  0.00  0.00    +0.000 NA
ATOM      5  C   UNL     1       0.148  10.278  20.401  0.00  0.00    +0.000 A 
ATOM      6  C   UNL     1      -0.647  11.001  21.274  0.00  0.00    +0.000 A 
ATOM      7  C   UNL     1      -0.743  10.652  22.612  0.00  0.00    +0.000 A 
ATOM      8  F   UNL     1      -1.508  11.381  23.434  0.00  0.00    +0.000 F 
ATOM      9  C   UNL     1      -0.055   9.561  23.111  0.00  0.00    +0.000 A 
ATOM     10  C   UNL     1       0.733   8.804  22.244  0.00  0.00    +0.000 A 
ATOM     11  C   UNL     1       0.859   9.143  20.870  0.00  0.00    +0.000 A 
ENDROOT
BRANCH   1  12
ATOM     12  N   UNL     1       2.319   7.229  20.289  0.00  0.00    +0.000 N 
ATOM     13  H   UNL     1       3.110   7.400  20.902  0.00  0.00    +0.000 HD
BRANCH  12  14
ATOM     14  C   UNL     1       2.647   6.265  19.242  0.00  0.00    +0.000 C 
BRANCH  14  20
ATOM     15  O   UNL     1       4.936   2.239  20.386  0.00  0.00    +0.000 OA
ATOM     16  S   UNL     1       3.724   2.410  19.613  0.00  0.00    +0.000 S 
ATOM     17  O   UNL     1       3.295   1.456  18.612  0.00  0.00    +0.000 OA
ATOM     18  C   UNL     1       2.373   2.727  20.738  0.00  0.00    +0.000 C 
ATOM     19  C   UNL     1       1.852   4.116  20.383  0.00  0.00    +0.000 C 
ATOM     20  C   UNL     1       3.052   4.937  19.883  0.00  0.00    +0.000 C 
ATOM     21  C   UNL     1       3.759   4.031  18.874  0.00  0.00    +0.000 C 
ENDBRANCH  14  20
ENDBRANCH  12  14
ENDBRANCH   1  12
TORSDOF 3
ENDMDL
MODEL 9
REMARK VINA RESULT:      -7.1      4.963      6.921
REMARK  Name = 
REMARK  3 active torsions:
REMARK  status: ('A' for Active; 'I' for Inactive)
REMARK    1  A    between atoms: C_6  and  C_7
REMARK    2  A    between atoms: C_7  and  N_8
REMARK    3  A    between atoms: N_8  and  C_9
REMARK                            x       y       z     vdW  Elec       q    Type
REMARK                         _______ _______ _______ _____ _____    ______ ____
ROOT
ATOM      1  C   UNL     1       4.968   4.810  17.151  0.00  0.00    +0.000 A 
ATOM      2  C   UNL     1       4.940   6.207  17.215  0.00  0.00    +0.000 A 
ATOM      3  C   UNL     1       3.804   6.842  17.678  0.00  0.00    +0.000 A 
ATOM      4  N   UNL     1       2.688   6.197  18.060  0.00  0.00    +0.000 NA
ATOM      5  C   UNL     1       2.679   4.860  17.984  0.00  0.00    +0.000 A 
ATOM      6  C   UNL     1       1.516   4.218  18.371  0.00  0.00    +0.000 A 
ATOM      7  C   UNL     1       1.422   2.835  18.354  0.00  0.00    +0.000 A 
ATOM      8  F   UNL     1       0.288   2.243  18.750  0.00  0.00    +0.000 F 
ATOM      9  C   UNL     1       2.485   2.058  17.936  0.00  0.00    +0.000 A 
ATOM     10  C   UNL     1       3.659   2.685  17.519  0.00  0.00    +0.000 A 
ATOM     11  C   UNL     1       3.789   4.100  17.535  0.00  0.00    +0.000 A 
ENDROOT
BRANCH   1  12
ATOM     12  N   UNL     1       6.077   4.135  16.587  0.00  0.00    +0.000 N 
ATOM     13  H   UNL     1       6.567   3.579  17.280  0.00  0.00    +0.000 HD
BRANCH  12  14
ATOM     14  C   UNL     1       7.005   4.884  15.743  0.00  0.00    +0.000 C 
BRANCH  14  20
ATOM     15  O   UNL     1       4.747   3.697  11.712  0.00  0.00    +0.000 OA
ATOM     16  S   UNL     1       6.067   3.312  12.165  0.00  0.00    +0.000 S 
ATOM     17  O   UNL     1       6.713   2.089  11.738  0.00  0.00    +0.000 OA
ATOM     18  C   UNL     1       7.180   4.686  11.902  0.00  0.00    +0.000 C 
ATOM     19  C   UNL     1       7.687   5.081  13.284  0.00  0.00    +0.000 C 
ATOM     20  C   UNL     1       6.557   4.787  14.285  0.00  0.00    +0.000 C 
ATOM     21  C   UNL     1       6.086   3.372  13.946  0.00  0.00    +0.000 C 
ENDBRANCH  14  20
ENDBRANCH  12  14
ENDBRANCH   1  12
TORSDOF 3
ENDMDL
