MODEL 1
REMARK VINA RESULT:      -7.5      0.000      0.000
REMARK  Name = 
REMARK  9 active torsions:
REMARK  status: ('A' for Active; 'I' for Inactive)
REMARK    1  A    between atoms: C_1  and  O_2
REMARK    2  A    between atoms: O_2  and  C_3
REMARK    3  A    between atoms: C_6  and  O_7
REMARK    4  A    between atoms: O_7  and  C_8
REMARK    5  A    between atoms: C_9  and  C_10
REMARK    6  A    between atoms: C_10  and  N_11
REMARK    7  A    between atoms: C_12  and  C_14
REMARK    8  A    between atoms: C_17  and  O_18
REMARK    9  A    between atoms: O_18  and  C_19
REMARK                            x       y       z     vdW  Elec       q    Type
REMARK                         _______ _______ _______ _____ _____    ______ ____
ROOT
ATOM      1  N   UNL     1       3.694   5.831  18.950  0.00  0.00    +0.000 N 
ATOM      2  C   UNL     1       2.752   6.089  19.922  0.00  0.00    +0.000 C 
ATOM      3  N   UNL     1       2.462   5.271  20.879  0.00  0.00    +0.000 NA
ATOM      4  H   UNL     1       4.402   6.559  18.872  0.00  0.00    +0.000 HD
ATOM      5  H   UNL     1       3.042   4.436  20.829  0.00  0.00    +0.000 HD
ENDROOT
BRANCH   2   6
ATOM      6  C   UNL     1       2.007   7.387  19.864  0.00  0.00    +0.000 A 
ATOM      7  C   UNL     1       1.327   7.853  20.991  0.00  0.00    +0.000 A 
ATOM      8  C   UNL     1       0.706   9.104  20.960  0.00  0.00    +0.000 A 
ATOM      9  C   UNL     1       0.759   9.904  19.812  0.00  0.00    +0.000 A 
ATOM     10  C   UNL     1       1.393   9.415  18.670  0.00  0.00    +0.000 A 
ATOM     11  C   UNL     1       2.038   8.171  18.705  0.00  0.00    +0.000 A 
BRANCH   9  12
ATOM     12  O   UNL     1       0.120  11.099  19.932  0.00  0.00    +0.000 OA
BRANCH  12  13
ATOM     13  C   UNL     1      -1.051  11.364  19.170  0.00  0.00    +0.000 C 
ATOM     14  F   UNL     1      -0.827  12.000  18.004  0.00  0.00    +0.000 F 
ATOM     15  F   UNL     1      -1.693  10.202  18.920  0.00  0.00    +0.000 F 
ATOM     16  F   UNL     1      -1.872  12.142  19.914  0.00  0.00    +0.000 F 
ENDBRANCH  12  13
ENDBRANCH   9  12
ENDBRANCH   2   6
BRANCH   1  17
ATOM     17  C   UNL     1       4.182   4.504  18.607  0.00  0.00    +0.000 C 
BRANCH  17  22
ATOM     18  C   UNL     1       5.603   4.270  15.039  0.00  0.00    +0.000 A 
ATOM     19  C   UNL     1       6.962   4.442  15.291  0.00  0.00    +0.000 A 
ATOM     20  C   UNL     1       7.427   4.610  16.594  0.00  0.00    +0.000 A 
ATOM     21  C   UNL     1       6.532   4.613  17.668  0.00  0.00    +0.000 A 
ATOM     22  C   UNL     1       5.145   4.501  17.431  0.00  0.00    +0.000 A 
ATOM     23  C   UNL     1       4.701   4.295  16.105  0.00  0.00    +0.000 A 
BRANCH  18  25
ATOM     24  C   UNL     1       6.351   3.656  12.864  0.00  0.00    +0.000 C 
ATOM     25  O   UNL     1       5.299   4.076  13.721  0.00  0.00    +0.000 OA
ENDBRANCH  18  25
BRANCH  21  26
ATOM     26  O   UNL     1       6.927   4.737  18.976  0.00  0.00    +0.000 OA
ATOM     27  C   UNL     1       7.764   5.853  19.274  0.00  0.00    +0.000 C 
ENDBRANCH  21  26
ENDBRANCH  17  22
ENDBRANCH   1  17
TORSDOF 7
ENDMDL
MODEL 2
REMARK VINA RESULT:      -7.3      1.419      1.990
REMARK  Name = 
REMARK  9 active torsions:
REMARK  status: ('A' for Active; 'I' for Inactive)
REMARK    1  A    between atoms: C_1  and  O_2
REMARK    2  A    between atoms: O_2  and  C_3
REMARK    3  A    between atoms: C_6  and  O_7
REMARK    4  A    between atoms: O_7  and  C_8
REMARK    5  A    between atoms: C_9  and  C_10
REMARK    6  A    between atoms: C_10  and  N_11
REMARK    7  A    between atoms: C_12  and  C_14
REMARK    8  A    between atoms: C_17  and  O_18
REMARK    9  A    between atoms: O_18  and  C_19
REMARK                            x       y       z     vdW  Elec       q    Type
REMARK                         _______ _______ _______ _____ _____    ______ ____
ROOT
ATOM      1  N   UNL     1       4.432   6.107  19.474  0.00  0.00    +0.000 N 
ATOM      2  C   UNL     1       3.061   6.093  19.620  0.00  0.00    +0.000 C 
ATOM      3  N   UNL     1       2.385   5.046  19.961  0.00  0.00    +0.000 NA
ATOM      4  H   UNL     1       4.888   6.829  20.028  0.00  0.00    +0.000 HD
ATOM      5  H   UNL     1       3.002   4.256  20.132  0.00  0.00    +0.000 HD
ENDROOT
BRANCH   2   6
ATOM      6  C   UNL     1       2.304   7.358  19.357  0.00  0.00    +0.000 A 
ATOM      7  C   UNL     1       1.601   7.978  20.392  0.00  0.00    +0.000 A 
ATOM      8  C   UNL     1       0.968   9.203  20.164  0.00  0.00    +0.000 A 
ATOM      9  C   UNL     1       1.033   9.823  18.910  0.00  0.00    +0.000 A 
ATOM     10  C   UNL     1       1.691   9.178  17.864  0.00  0.00    +0.000 A 
ATOM     11  C   UNL     1       2.348   7.960  18.094  0.00  0.00    +0.000 A 
BRANCH   9  12
ATOM     12  O   UNL     1       0.380  11.015  18.840  0.00  0.00    +0.000 OA
BRANCH  12  13
ATOM     13  C   UNL     1      -1.013  11.053  18.557  0.00  0.00    +0.000 C 
ATOM     14  F   UNL     1      -1.391  12.061  17.747  0.00  0.00    +0.000 F 
ATOM     15  F   UNL     1      -1.386   9.879  18.000  0.00  0.00    +0.000 F 
ATOM     16  F   UNL     1      -1.679  11.191  19.726  0.00  0.00    +0.000 F 
ENDBRANCH  12  13
ENDBRANCH   9  12
ENDBRANCH   2   6
BRANCH   1  17
ATOM     17  C   UNL     1       5.251   4.922  19.270  0.00  0.00    +0.000 C 
BRANCH  17  22
ATOM     18  C   UNL     1       6.779   4.900  15.739  0.00  0.00    +0.000 A 
ATOM     19  C   UNL     1       5.896   4.046  15.082  0.00  0.00    +0.000 A 
ATOM     20  C   UNL     1       4.806   3.497  15.754  0.00  0.00    +0.000 A 
ATOM     21  C   UNL     1       4.586   3.794  17.102  0.00  0.00    +0.000 A 
ATOM     22  C   UNL     1       5.502   4.607  17.804  0.00  0.00    +0.000 A 
ATOM     23  C   UNL     1       6.579   5.181  17.093  0.00  0.00    +0.000 A 
BRANCH  18  25
ATOM     24  C   UNL     1       7.671   5.161  13.548  0.00  0.00    +0.000 C 
ATOM     25  O   UNL     1       7.775   5.393  14.945  0.00  0.00    +0.000 OA
ENDBRANCH  18  25
BRANCH  21  26
ATOM     26  O   UNL     1       3.514   3.316  17.813  0.00  0.00    +0.000 OA
ATOM     27  C   UNL     1       3.463   1.902  17.995  0.00  0.00    +0.000 C 
ENDBRANCH  21  26
ENDBRANCH  17  22
ENDBRANCH   1  17
TORSDOF 7
ENDMDL
MODEL 3
REMARK VINA RESULT:      -7.2      1.110      1.599
REMARK  Name = 
REMARK  9 active torsions:
REMARK  status: ('A' for Active; 'I' for Inactive)
REMARK    1  A    between atoms: C_1  and  O_2
REMARK    2  A    between atoms: O_2  and  C_3
REMARK    3  A    between atoms: C_6  and  O_7
REMARK    4  A    between atoms: O_7  and  C_8
REMARK    5  A    between atoms: C_9  and  C_10
REMARK    6  A    between atoms: C_10  and  N_11
REMARK    7  A    between atoms: C_12  and  C_14
REMARK    8  A    between atoms: C_17  and  O_18
REMARK    9  A    between atoms: O_18  and  C_19
REMARK                            x       y       z     vdW  Elec       q    Type
REMARK                         _______ _______ _______ _____ _____    ______ ____
ROOT
ATOM      1  N   UNL     1       3.780   6.010  18.935  0.00  0.00    +0.000 N 
ATOM      2  C   UNL     1       2.700   6.320  19.732  0.00  0.00    +0.000 C 
ATOM      3  N   UNL     1       2.195   5.514  20.607  0.00  0.00    +0.000 NA
ATOM      4  H   UNL     1       4.535   6.691  18.997  0.00  0.00    +0.000 HD
ATOM      5  H   UNL     1       2.721   4.644  20.642  0.00  0.00    +0.000 HD
ENDROOT
BRANCH   2   6
ATOM      6  C   UNL     1       2.060   7.665  19.571  0.00  0.00    +0.000 A 
ATOM      7  C   UNL     1       2.077   8.302  18.329  0.00  0.00    +0.000 A 
ATOM      8  C   UNL     1       1.406   9.516  18.161  0.00  0.00    +0.000 A 
ATOM      9  C   UNL     1       0.707  10.103  19.224  0.00  0.00    +0.000 A 
ATOM     10  C   UNL     1       0.734   9.492  20.477  0.00  0.00    +0.000 A 
ATOM     11  C   UNL     1       1.387   8.262  20.643  0.00  0.00    +0.000 A 
BRANCH   9  12
ATOM     12  O   UNL     1       0.093  11.275  18.910  0.00  0.00    +0.000 OA
BRANCH  12  13
ATOM     13  C   UNL     1       0.752  12.514  19.144  0.00  0.00    +0.000 C 
ATOM     14  F   UNL     1       0.908  13.280  18.048  0.00  0.00    +0.000 F 
ATOM     15  F   UNL     1       0.066  13.214  20.075  0.00  0.00    +0.000 F 
ATOM     16  F   UNL     1       1.982  12.251  19.643  0.00  0.00    +0.000 F 
ENDBRANCH  12  13
ENDBRANCH   9  12
ENDBRANCH   2   6
BRANCH   1  17
ATOM     17  C   UNL     1       4.236   4.657  18.655  0.00  0.00    +0.000 C 
BRANCH  17  22
ATOM     18  C   UNL     1       5.602   4.273  15.079  0.00  0.00    +0.000 A 
ATOM     19  C   UNL     1       6.972   4.364  15.315  0.00  0.00    +0.000 A 
ATOM     20  C   UNL     1       7.460   4.524  16.610  0.00  0.00    +0.000 A 
ATOM     21  C   UNL     1       6.578   4.601  17.692  0.00  0.00    +0.000 A 
ATOM     22  C   UNL     1       5.185   4.573  17.470  0.00  0.00    +0.000 A 
ATOM     23  C   UNL     1       4.714   4.374  16.153  0.00  0.00    +0.000 A 
BRANCH  18  25
ATOM     24  C   UNL     1       6.306   3.650  12.892  0.00  0.00    +0.000 C 
ATOM     25  O   UNL     1       5.273   4.078  13.767  0.00  0.00    +0.000 OA
ENDBRANCH  18  25
BRANCH  21  26
ATOM     26  O   UNL     1       6.994   4.722  18.994  0.00  0.00    +0.000 OA
ATOM     27  C   UNL     1       7.768   5.881  19.299  0.00  0.00    +0.000 C 
ENDBRANCH  21  26
ENDBRANCH  17  22
ENDBRANCH   1  17
TORSDOF 7
ENDMDL
MODEL 4
REMARK VINA RESULT:      -7.2      0.624      1.368
REMARK  Name = 
REMARK  9 active torsions:
REMARK  status: ('A' for Active; 'I' for Inactive)
REMARK    1  A    between atoms: C_1  and  O_2
REMARK    2  A    between atoms: O_2  and  C_3
REMARK    3  A    between atoms: C_6  and  O_7
REMARK    4  A    between atoms: O_7  and  C_8
REMARK    5  A    between atoms: C_9  and  C_10
REMARK    6  A    between atoms: C_10  and  N_11
REMARK    7  A    between atoms: C_12  and  C_14
REMARK    8  A    between atoms: C_17  and  O_18
REMARK    9  A    between atoms: O_18  and  C_19
REMARK                            x       y       z     vdW  Elec       q    Type
REMARK                         _______ _______ _______ _____ _____    ______ ____
ROOT
ATOM      1  N   UNL     1       3.693   6.070  18.520  0.00  0.00    +0.000 N 
ATOM      2  C   UNL     1       2.839   6.319  19.573  0.00  0.00    +0.000 C 
ATOM      3  N   UNL     1       2.637   5.495  20.547  0.00  0.00    +0.000 NA
ATOM      4  H   UNL     1       4.389   6.801  18.385  0.00  0.00    +0.000 HD
ATOM      5  H   UNL     1       3.212   4.662  20.442  0.00  0.00    +0.000 HD
ENDROOT
BRANCH   2   6
ATOM      6  C   UNL     1       2.087   7.614  19.587  0.00  0.00    +0.000 A 
ATOM      7  C   UNL     1       2.009   8.389  18.428  0.00  0.00    +0.000 A 
ATOM      8  C   UNL     1       1.236   9.554  18.421  0.00  0.00    +0.000 A 
ATOM      9  C   UNL     1       0.531   9.954  19.563  0.00  0.00    +0.000 A 
ATOM     10  C   UNL     1       0.652   9.208  20.735  0.00  0.00    +0.000 A 
ATOM     11  C   UNL     1       1.407   8.027  20.739  0.00  0.00    +0.000 A 
BRANCH   9  12
ATOM     12  O   UNL     1      -0.186  11.099  19.405  0.00  0.00    +0.000 OA
BRANCH  12  13
ATOM     13  C   UNL     1      -1.453  11.067  18.761  0.00  0.00    +0.000 C 
ATOM     14  F   UNL     1      -1.920   9.829  18.508  0.00  0.00    +0.000 F 
ATOM     15  F   UNL     1      -2.355  11.730  19.519  0.00  0.00    +0.000 F 
ATOM     16  F   UNL     1      -1.344  11.716  17.579  0.00  0.00    +0.000 F 
ENDBRANCH  12  13
ENDBRANCH   9  12
ENDBRANCH   2   6
BRANCH   1  17
ATOM     17  C   UNL     1       4.153   4.746  18.128  0.00  0.00    +0.000 C 
BRANCH  17  22
ATOM     18  C   UNL     1       5.802   4.161  14.702  0.00  0.00    +0.000 A 
ATOM     19  C   UNL     1       7.034   4.781  14.899  0.00  0.00    +0.000 A 
ATOM     20  C   UNL     1       7.347   5.364  16.125  0.00  0.00    +0.000 A 
ATOM     21  C   UNL     1       6.424   5.338  17.175  0.00  0.00    +0.000 A 
ATOM     22  C   UNL     1       5.148   4.769  16.979  0.00  0.00    +0.000 A 
ATOM     23  C   UNL     1       4.866   4.152  15.739  0.00  0.00    +0.000 A 
BRANCH  18  25
ATOM     24  C   UNL     1       6.660   3.863  12.502  0.00  0.00    +0.000 C 
ATOM     25  O   UNL     1       5.651   3.598  13.466  0.00  0.00    +0.000 OA
ENDBRANCH  18  25
BRANCH  21  26
ATOM     26  O   UNL     1       6.682   5.861  18.417  0.00  0.00    +0.000 OA
ATOM     27  C   UNL     1       7.877   6.632  18.536  0.00  0.00    +0.000 C 
ENDBRANCH  21  26
ENDBRANCH  17  22
ENDBRANCH   1  17
TORSDOF 7
ENDMDL
MODEL 5
REMARK VINA RESULT:      -7.2      4.593      8.631
REMARK  Name = 
REMARK  9 active torsions:
REMARK  status: ('A' for Active; 'I' for Inactive)
REMARK    1  A    between atoms: C_1  and  O_2
REMARK    2  A    between atoms: O_2  and  C_3
REMARK    3  A    between atoms: C_6  and  O_7
REMARK    4  A    between atoms: O_7  and  C_8
REMARK    5  A    between atoms: C_9  and  C_10
REMARK    6  A    between atoms: C_10  and  N_11
REMARK    7  A    between atoms: C_12  and  C_14
REMARK    8  A    between atoms: C_17  and  O_18
REMARK    9  A    between atoms: O_18  and  C_19
REMARK                            x       y       z     vdW  Elec       q    Type
REMARK                         _______ _______ _______ _____ _____    ______ ____
ROOT
ATOM      1  N   UNL     1       0.903  10.368  19.462  0.00  0.00    +0.000 N 
ATOM      2  C   UNL     1       1.680   9.654  18.576  0.00  0.00    +0.000 C 
ATOM      3  N   UNL     1       2.136  10.137  17.467  0.00  0.00    +0.000 NA
ATOM      4  H   UNL     1       1.277  10.376  20.409  0.00  0.00    +0.000 HD
ATOM      5  H   UNL     1       1.868  11.112  17.360  0.00  0.00    +0.000 HD
ENDROOT
BRANCH   2   6
ATOM      6  C   UNL     1       2.009   8.230  18.905  0.00  0.00    +0.000 A 
ATOM      7  C   UNL     1       1.722   7.723  20.174  0.00  0.00    +0.000 A 
ATOM      8  C   UNL     1       1.951   6.372  20.450  0.00  0.00    +0.000 A 
ATOM      9  C   UNL     1       2.459   5.515  19.467  0.00  0.00    +0.000 A 
ATOM     10  C   UNL     1       2.794   6.033  18.217  0.00  0.00    +0.000 A 
ATOM     11  C   UNL     1       2.544   7.383  17.928  0.00  0.00    +0.000 A 
BRANCH   9  12
ATOM     12  O   UNL     1       2.618   4.227  19.876  0.00  0.00    +0.000 OA
BRANCH  12  13
ATOM     13  C   UNL     1       1.537   3.307  19.782  0.00  0.00    +0.000 C 
ATOM     14  F   UNL     1       1.909   2.018  19.668  0.00  0.00    +0.000 F 
ATOM     15  F   UNL     1       0.743   3.441  20.867  0.00  0.00    +0.000 F 
ATOM     16  F   UNL     1       0.806   3.624  18.688  0.00  0.00    +0.000 F 
ENDBRANCH  12  13
ENDBRANCH   9  12
ENDBRANCH   2   6
BRANCH   1  17
ATOM     17  C   UNL     1       0.153  11.567  19.120  0.00  0.00    +0.000 C 
BRANCH  17  22
ATOM     18  C   UNL     1      -2.715  10.206  16.948  0.00  0.00    +0.000 A 
ATOM     19  C   UNL     1      -3.811  10.807  17.561  0.00  0.00    +0.000 A 
ATOM     20  C   UNL     1      -3.636  11.661  18.648  0.00  0.00    +0.000 A 
ATOM     21  C   UNL     1      -2.355  11.922  19.142  0.00  0.00    +0.000 A 
ATOM     22  C   UNL     1      -1.235  11.275  18.575  0.00  0.00    +0.000 A 
ATOM     23  C   UNL     1      -1.433  10.443  17.451  0.00  0.00    +0.000 A 
BRANCH  18  25
ATOM     24  C   UNL     1      -3.153  10.074  14.612  0.00  0.00    +0.000 C 
ATOM     25  O   UNL     1      -3.035   9.428  15.871  0.00  0.00    +0.000 OA
ENDBRANCH  18  25
BRANCH  21  26
ATOM     26  O   UNL     1      -2.110  12.779  20.185  0.00  0.00    +0.000 OA
ATOM     27  C   UNL     1      -2.928  12.609  21.341  0.00  0.00    +0.000 C 
ENDBRANCH  21  26
ENDBRANCH  17  22
ENDBRANCH   1  17
TORSDOF 7
ENDMDL
MODEL 6
REMARK VINA RESULT:      -7.1      4.705      8.820
REMARK  Name = 
REMARK  9 active torsions:
REMARK  status: ('A' for Active; 'I' for Inactive)
REMARK    1  A    between atoms: C_1  and  O_2
REMARK    2  A    between atoms: O_2  and  C_3
REMARK    3  A    between atoms: C_6  and  O_7
REMARK    4  A    between atoms: O_7  and  C_8
REMARK    5  A    between atoms: C_9  and  C_10
REMARK    6  A    between atoms: C_10  and  N_11
REMARK    7  A    between atoms: C_12  and  C_14
REMARK    8  A    between atoms: C_17  and  O_18
REMARK    9  A    between atoms: O_18  and  C_19
REMARK                            x       y       z     vdW  Elec       q    Type
REMARK                         _______ _______ _______ _____ _____    ______ ____
ROOT
ATOM      1  N   UNL     1       0.574  10.392  19.429  0.00  0.00    +0.000 N 
ATOM      2  C   UNL     1       1.430   9.643  18.651  0.00  0.00    +0.000 C 
ATOM      3  N   UNL     1       1.989  10.079  17.571  0.00  0.00    +0.000 NA
ATOM      4  H   UNL     1       0.856  10.442  20.406  0.00  0.00    +0.000 HD
ATOM      5  H   UNL     1       1.734  11.048  17.397  0.00  0.00    +0.000 HD
ENDROOT
BRANCH   2   6
ATOM      6  C   UNL     1       1.724   8.235  19.070  0.00  0.00    +0.000 A 
ATOM      7  C   UNL     1       2.211   7.317  18.138  0.00  0.00    +0.000 A 
ATOM      8  C   UNL     1       2.565   6.029  18.551  0.00  0.00    +0.000 A 
ATOM      9  C   UNL     1       2.444   5.647  19.892  0.00  0.00    +0.000 A 
ATOM     10  C   UNL     1       1.909   6.548  20.812  0.00  0.00    +0.000 A 
ATOM     11  C   UNL     1       1.574   7.848  20.407  0.00  0.00    +0.000 A 
BRANCH   9  12
ATOM     12  O   UNL     1       2.837   4.370  20.148  0.00  0.00    +0.000 OA
BRANCH  12  13
ATOM     13  C   UNL     1       1.886   3.398  20.563  0.00  0.00    +0.000 C 
ATOM     14  F   UNL     1       2.208   2.129  20.243  0.00  0.00    +0.000 F 
ATOM     15  F   UNL     1       1.716   3.483  21.901  0.00  0.00    +0.000 F 
ATOM     16  F   UNL     1       0.702   3.684  19.973  0.00  0.00    +0.000 F 
ENDBRANCH  12  13
ENDBRANCH   9  12
ENDBRANCH   2   6
BRANCH   1  17
ATOM     17  C   UNL     1      -0.139  11.574  18.967  0.00  0.00    +0.000 C 
BRANCH  17  22
ATOM     18  C   UNL     1      -2.886  10.207  16.646  0.00  0.00    +0.000 A 
ATOM     19  C   UNL     1      -4.021  10.753  17.240  0.00  0.00    +0.000 A 
ATOM     20  C   UNL     1      -3.911  11.571  18.362  0.00  0.00    +0.000 A 
ATOM     21  C   UNL     1      -2.656  11.852  18.911  0.00  0.00    +0.000 A 
ATOM     22  C   UNL     1      -1.498  11.260  18.362  0.00  0.00    +0.000 A 
ATOM     23  C   UNL     1      -1.630  10.464  17.203  0.00  0.00    +0.000 A 
BRANCH  18  25
ATOM     24  C   UNL     1      -3.594  10.149  14.374  0.00  0.00    +0.000 C 
ATOM     25  O   UNL     1      -3.143   9.460  15.531  0.00  0.00    +0.000 OA
ENDBRANCH  18  25
BRANCH  21  26
ATOM     26  O   UNL     1      -2.475  12.678  19.992  0.00  0.00    +0.000 OA
ATOM     27  C   UNL     1      -3.653  13.031  20.714  0.00  0.00    +0.000 C 
ENDBRANCH  21  26
ENDBRANCH  17  22
ENDBRANCH   1  17
TORSDOF 7
ENDMDL
MODEL 7
REMARK VINA RESULT:      -7.1      4.649      8.676
REMARK  Name = 
REMARK  9 active torsions:
REMARK  status: ('A' for Active; 'I' for Inactive)
REMARK    1  A    between atoms: C_1  and  O_2
REMARK    2  A    between atoms: O_2  and  C_3
REMARK    3  A    between atoms: C_6  and  O_7
REMARK    4  A    between atoms: O_7  and  C_8
REMARK    5  A    between atoms: C_9  and  C_10
REMARK    6  A    between atoms: C_10  and  N_11
REMARK    7  A    between atoms: C_12  and  C_14
REMARK    8  A    between atoms: C_17  and  O_18
REMARK    9  A    between atoms: O_18  and  C_19
REMARK                            x       y       z     vdW  Elec       q    Type
REMARK                         _______ _______ _______ _____ _____    ______ ____
ROOT
ATOM      1  N   UNL     1       1.009  10.036  19.323  0.00  0.00    +0.000 N 
ATOM      2  C   UNL     1       1.711   9.190  18.491  0.00  0.00    +0.000 C 
ATOM      3  N   UNL     1       2.213   9.550  17.356  0.00  0.00    +0.000 NA
ATOM      4  H   UNL     1       1.382  10.070  20.270  0.00  0.00    +0.000 HD
ATOM      5  H   UNL     1       2.045  10.538  17.182  0.00  0.00    +0.000 HD
ENDROOT
BRANCH   2   6
ATOM      6  C   UNL     1       1.894   7.766  18.916  0.00  0.00    +0.000 A 
ATOM      7  C   UNL     1       2.319   6.810  17.990  0.00  0.00    +0.000 A 
ATOM      8  C   UNL     1       2.572   5.501  18.410  0.00  0.00    +0.000 A 
ATOM      9  C   UNL     1       2.409   5.133  19.751  0.00  0.00    +0.000 A 
ATOM     10  C   UNL     1       1.935   6.075  20.663  0.00  0.00    +0.000 A 
ATOM     11  C   UNL     1       1.703   7.395  20.252  0.00  0.00    +0.000 A 
BRANCH   9  12
ATOM     12  O   UNL     1       2.703   3.831  20.014  0.00  0.00    +0.000 OA
BRANCH  12  13
ATOM     13  C   UNL     1       1.658   2.887  20.209  0.00  0.00    +0.000 C 
ATOM     14  F   UNL     1       0.431   3.335  19.881  0.00  0.00    +0.000 F 
ATOM     15  F   UNL     1       1.925   1.773  19.491  0.00  0.00    +0.000 F 
ATOM     16  F   UNL     1       1.636   2.544  21.518  0.00  0.00    +0.000 F 
ENDBRANCH  12  13
ENDBRANCH   9  12
ENDBRANCH   2   6
BRANCH   1  17
ATOM     17  C   UNL     1       0.384  11.279  18.896  0.00  0.00    +0.000 C 
BRANCH  17  22
ATOM     18  C   UNL     1      -2.776  10.219  16.975  0.00  0.00    +0.000 A 
ATOM     19  C   UNL     1      -3.758  10.877  17.711  0.00  0.00    +0.000 A 
ATOM     20  C   UNL     1      -3.415  11.673  18.802  0.00  0.00    +0.000 A 
ATOM     21  C   UNL     1      -2.075  11.818  19.175  0.00  0.00    +0.000 A 
ATOM     22  C   UNL     1      -1.069  11.113  18.481  0.00  0.00    +0.000 A 
ATOM     23  C   UNL     1      -1.437  10.341  17.357  0.00  0.00    +0.000 A 
BRANCH  18  25
ATOM     24  C   UNL     1      -3.027  10.042  14.615  0.00  0.00    +0.000 C 
ATOM     25  O   UNL     1      -3.256   9.509  15.911  0.00  0.00    +0.000 OA
ENDBRANCH  18  25
BRANCH  21  26
ATOM     26  O   UNL     1      -1.666  12.614  20.215  0.00  0.00    +0.000 OA
ATOM     27  C   UNL     1      -2.467  12.564  21.395  0.00  0.00    +0.000 C 
ENDBRANCH  21  26
ENDBRANCH  17  22
ENDBRANCH   1  17
TORSDOF 7
ENDMDL
MODEL 8
REMARK VINA RESULT:      -7.1      5.870      7.725
REMARK  Name = 
REMARK  9 active torsions:
REMARK  status: ('A' for Active; 'I' for Inactive)
REMARK    1  A    between atoms: C_1  and  O_2
REMARK    2  A    between atoms: O_2  and  C_3
REMARK    3  A    between atoms: C_6  and  O_7
REMARK    4  A    between atoms: O_7  and  C_8
REMARK    5  A    between atoms: C_9  and  C_10
REMARK    6  A    between atoms: C_10  and  N_11
REMARK    7  A    between atoms: C_12  and  C_14
REMARK    8  A    between atoms: C_17  and  O_18
REMARK    9  A    between atoms: O_18  and  C_19
REMARK                            x       y       z     vdW  Elec       q    Type
REMARK                         _______ _______ _______ _____ _____    ______ ____
ROOT
ATOM      1  N   UNL     1       8.133   7.084  19.026  0.00  0.00    +0.000 N 
ATOM      2  C   UNL     1       8.014   8.065  18.065  0.00  0.00    +0.000 C 
ATOM      3  N   UNL     1       7.469   7.877  16.909  0.00  0.00    +0.000 NA
ATOM      4  H   UNL     1       7.738   7.352  19.926  0.00  0.00    +0.000 HD
ATOM      5  H   UNL     1       7.120   6.926  16.823  0.00  0.00    +0.000 HD
ENDROOT
BRANCH   2   6
ATOM      6  C   UNL     1       8.558   9.427  18.368  0.00  0.00    +0.000 A 
ATOM      7  C   UNL     1       8.294  10.492  17.504  0.00  0.00    +0.000 A 
ATOM      8  C   UNL     1       8.730  11.779  17.834  0.00  0.00    +0.000 A 
ATOM      9  C   UNL     1       9.426  12.017  19.025  0.00  0.00    +0.000 A 
ATOM     10  C   UNL     1       9.735  10.945  19.861  0.00  0.00    +0.000 A 
ATOM     11  C   UNL     1       9.279   9.657  19.545  0.00  0.00    +0.000 A 
BRANCH   9  12
ATOM     12  O   UNL     1       9.776  13.317  19.218  0.00  0.00    +0.000 OA
BRANCH  12  13
ATOM     13  C   UNL     1      10.954  13.839  18.616  0.00  0.00    +0.000 C 
ATOM     14  F   UNL     1      11.662  14.672  19.403  0.00  0.00    +0.000 F 
ATOM     15  F   UNL     1      11.750  12.815  18.234  0.00  0.00    +0.000 F 
ATOM     16  F   UNL     1      10.595  14.524  17.506  0.00  0.00    +0.000 F 
ENDBRANCH  12  13
ENDBRANCH   9  12
ENDBRANCH   2   6
BRANCH   1  17
ATOM     17  C   UNL     1       8.061   5.655  18.759  0.00  0.00    +0.000 C 
BRANCH  17  22
ATOM     18  C   UNL     1       4.364   4.626  19.038  0.00  0.00    +0.000 A 
ATOM     19  C   UNL     1       4.106   4.235  17.726  0.00  0.00    +0.000 A 
ATOM     20  C   UNL     1       5.110   4.278  16.762  0.00  0.00    +0.000 A 
ATOM     21  C   UNL     1       6.393   4.719  17.098  0.00  0.00    +0.000 A 
ATOM     22  C   UNL     1       6.661   5.178  18.405  0.00  0.00    +0.000 A 
ATOM     23  C   UNL     1       5.638   5.092  19.375  0.00  0.00    +0.000 A 
BRANCH  18  25
ATOM     24  C   UNL     1       2.426   5.606  20.011  0.00  0.00    +0.000 C 
ATOM     25  O   UNL     1       3.297   4.493  19.881  0.00  0.00    +0.000 OA
ENDBRANCH  18  25
BRANCH  21  26
ATOM     26  O   UNL     1       7.436   4.752  16.206  0.00  0.00    +0.000 OA
ATOM     27  C   UNL     1       7.078   4.756  14.825  0.00  0.00    +0.000 C 
ENDBRANCH  21  26
ENDBRANCH  17  22
ENDBRANCH   1  17
TORSDOF 7
ENDMDL
MODEL 9
REMARK VINA RESULT:      -7.0      4.315      8.744
REMARK  Name = 
REMARK  9 active torsions:
REMARK  status: ('A' for Active; 'I' for Inactive)
REMARK    1  A    between atoms: C_1  and  O_2
REMARK    2  A    between atoms: O_2  and  C_3
REMARK    3  A    between atoms: C_6  and  O_7
REMARK    4  A    between atoms: O_7  and  C_8
REMARK    5  A    between atoms: C_9  and  C_10
REMARK    6  A    between atoms: C_10  and  N_11
REMARK    7  A    between atoms: C_12  and  C_14
REMARK    8  A    between atoms: C_17  and  O_18
REMARK    9  A    between atoms: O_18  and  C_19
REMARK                            x       y       z     vdW  Elec       q    Type
REMARK                         _______ _______ _______ _____ _____    ______ ____
ROOT
ATOM      1  N   UNL     1       1.563   8.678  19.039  0.00  0.00    +0.000 N 
ATOM      2  C   UNL     1       2.094   7.608  19.726  0.00  0.00    +0.000 C 
ATOM      3  N   UNL     1       1.843   7.353  20.968  0.00  0.00    +0.000 NA
ATOM      4  H   UNL     1       1.083   8.409  18.182  0.00  0.00    +0.000 HD
ATOM      5  H   UNL     1       1.185   8.028  21.350  0.00  0.00    +0.000 HD
ENDROOT
BRANCH   2   6
ATOM      6  C   UNL     1       3.027   6.689  19.000  0.00  0.00    +0.000 A 
ATOM      7  C   UNL     1       3.393   6.966  17.680  0.00  0.00    +0.000 A 
ATOM      8  C   UNL     1       4.331   6.155  17.035  0.00  0.00    +0.000 A 
ATOM      9  C   UNL     1       4.915   5.068  17.695  0.00  0.00    +0.000 A 
ATOM     10  C   UNL     1       4.510   4.761  18.994  0.00  0.00    +0.000 A 
ATOM     11  C   UNL     1       3.588   5.586  19.654  0.00  0.00    +0.000 A 
BRANCH   9  12
ATOM     12  O   UNL     1       5.817   4.377  16.947  0.00  0.00    +0.000 OA
BRANCH  12  13
ATOM     13  C   UNL     1       7.177   4.791  16.903  0.00  0.00    +0.000 C 
ATOM     14  F   UNL     1       7.972   4.193  17.811  0.00  0.00    +0.000 F 
ATOM     15  F   UNL     1       7.672   4.561  15.666  0.00  0.00    +0.000 F 
ATOM     16  F   UNL     1       7.221   6.124  17.129  0.00  0.00    +0.000 F 
ENDBRANCH  12  13
ENDBRANCH   9  12
ENDBRANCH   2   6
BRANCH   1  17
ATOM     17  C   UNL     1       1.010   9.869  19.668  0.00  0.00    +0.000 C 
BRANCH  17  22
ATOM     18  C   UNL     1      -1.922  10.285  17.213  0.00  0.00    +0.000 A 
ATOM     19  C   UNL     1      -2.654  11.283  17.853  0.00  0.00    +0.000 A 
ATOM     20  C   UNL     1      -2.205  11.837  19.049  0.00  0.00    +0.000 A 
ATOM     21  C   UNL     1      -1.012  11.394  19.628  0.00  0.00    +0.000 A 
ATOM     22  C   UNL     1      -0.286  10.342  19.030  0.00  0.00    +0.000 A 
ATOM     23  C   UNL     1      -0.742   9.821  17.798  0.00  0.00    +0.000 A 
BRANCH  18  25
ATOM     24  C   UNL     1      -3.184  10.823  15.268  0.00  0.00    +0.000 C 
ATOM     25  O   UNL     1      -2.463   9.867  16.030  0.00  0.00    +0.000 OA
ENDBRANCH  18  25
BRANCH  21  26
ATOM     26  O   UNL     1      -0.495  11.921  20.785  0.00  0.00    +0.000 OA
ATOM     27  C   UNL     1      -1.286  11.749  21.960  0.00  0.00    +0.000 C 
ENDBRANCH  21  26
ENDBRANCH  17  22
ENDBRANCH   1  17
TORSDOF 7
ENDMDL
