MODEL 1
REMARK VINA RESULT:      -8.2      0.000      0.000
REMARK  Name = 
REMARK  9 active torsions:
REMARK  status: ('A' for Active; 'I' for Inactive)
REMARK    1  A    between atoms: C_1  and  O_2
REMARK    2  A    between atoms: O_2  and  C_3
REMARK    3  A    between atoms: C_6  and  C_7
REMARK    4  A    between atoms: N_10  and  C_11
REMARK    5  A    between atoms: C_12  and  N_13
REMARK    6  A    between atoms: C_14  and  O_16
REMARK    7  A    between atoms: O_16  and  C_17
REMARK    8  A    between atoms: C_17  and  C_18
REMARK    9  A    between atoms: C_17  and  C_19
REMARK                            x       y       z     vdW  Elec       q    Type
REMARK                         _______ _______ _______ _____ _____    ______ ____
ROOT
ATOM      1  C   UNL     1       4.227   3.770  18.903  0.00  0.00    +0.000 A 
ATOM      2  C   UNL     1       4.087   2.395  19.201  0.00  0.00    +0.000 A 
ATOM      3  N   UNL     1       3.267   2.168  20.216  0.00  0.00    +0.000 NA
ATOM      4  N   UNL     1       2.881   3.401  20.611  0.00  0.00    +0.000 N 
ATOM      5  C   UNL     1       1.942   3.427  21.707  0.00  0.00    +0.000 C 
ATOM      6  C   UNL     1       3.407   4.425  19.831  0.00  0.00    +0.000 A 
ENDROOT
BRANCH   1  10
ATOM      7  C   UNL     1       6.887   5.110  15.824  0.00  0.00    +0.000 A 
ATOM      8  C   UNL     1       5.663   4.527  15.510  0.00  0.00    +0.000 A 
ATOM      9  C   UNL     1       4.776   4.156  16.525  0.00  0.00    +0.000 A 
ATOM     10  C   UNL     1       5.110   4.327  17.879  0.00  0.00    +0.000 A 
ATOM     11  C   UNL     1       6.353   4.892  18.185  0.00  0.00    +0.000 A 
ATOM     12  C   UNL     1       7.233   5.290  17.163  0.00  0.00    +0.000 A 
BRANCH   7  14
ATOM     13  C   UNL     1       7.275   4.830  13.511  0.00  0.00    +0.000 C 
ATOM     14  O   UNL     1       7.681   5.399  14.750  0.00  0.00    +0.000 OA
ENDBRANCH   7  14
ENDBRANCH   1  10
BRANCH   6  15
ATOM     15  N   UNL     1       3.154   5.799  19.914  0.00  0.00    +0.000 N 
ATOM     16  C   UNL     1       2.539   6.614  18.998  0.00  0.00    +0.000 C 
ATOM     17  O   UNL     1       2.072   6.305  17.917  0.00  0.00    +0.000 OA
ATOM     18  H   UNL     1       3.392   6.260  20.782  0.00  0.00    +0.000 HD
BRANCH  16  19
ATOM     19  O   UNL     1       2.495   7.885  19.495  0.00  0.00    +0.000 OA
BRANCH  19  20
ATOM     20  C   UNL     1       1.371   8.702  19.090  0.00  0.00    +0.000 C 
ATOM     21  C   UNL     1       1.866   9.813  18.162  0.00  0.00    +0.000 C 
BRANCH  20  22
ATOM     22  C   UNL     1       0.716   9.291  20.329  0.00  0.00    +0.000 A 
ATOM     23  C   UNL     1      -0.129  10.407  20.221  0.00  0.00    +0.000 A 
ATOM     24  C   UNL     1      -0.690  10.987  21.361  0.00  0.00    +0.000 A 
ATOM     25  C   UNL     1      -0.415  10.460  22.624  0.00  0.00    +0.000 A 
ATOM     26  C   UNL     1       0.413   9.346  22.743  0.00  0.00    +0.000 A 
ATOM     27  C   UNL     1       0.970   8.763  21.605  0.00  0.00    +0.000 A 
ENDBRANCH  20  22
ENDBRANCH  19  20
ENDBRANCH  16  19
ENDBRANCH   6  15
TORSDOF 6
ENDMDL
MODEL 2
REMARK VINA RESULT:      -8.0      1.213      2.022
REMARK  Name = 
REMARK  9 active torsions:
REMARK  status: ('A' for Active; 'I' for Inactive)
REMARK    1  A    between atoms: C_1  and  O_2
REMARK    2  A    between atoms: O_2  and  C_3
REMARK    3  A    between atoms: C_6  and  C_7
REMARK    4  A    between atoms: N_10  and  C_11
REMARK    5  A    between atoms: C_12  and  N_13
REMARK    6  A    between atoms: C_14  and  O_16
REMARK    7  A    between atoms: O_16  and  C_17
REMARK    8  A    between atoms: C_17  and  C_18
REMARK    9  A    between atoms: C_17  and  C_19
REMARK                            x       y       z     vdW  Elec       q    Type
REMARK                         _______ _______ _______ _____ _____    ______ ____
ROOT
ATOM      1  C   UNL     1       4.097   4.054  19.056  0.00  0.00    +0.000 A 
ATOM      2  C   UNL     1       3.987   2.644  19.019  0.00  0.00    +0.000 A 
ATOM      3  N   UNL     1       2.996   2.184  19.767  0.00  0.00    +0.000 NA
ATOM      4  N   UNL     1       2.462   3.293  20.326  0.00  0.00    +0.000 N 
ATOM      5  C   UNL     1       1.322   3.059  21.180  0.00  0.00    +0.000 C 
ATOM      6  C   UNL     1       3.068   4.473  19.910  0.00  0.00    +0.000 A 
ENDROOT
BRANCH   1  10
ATOM      7  C   UNL     1       7.028   6.598  17.244  0.00  0.00    +0.000 A 
ATOM      8  C   UNL     1       7.141   6.208  18.576  0.00  0.00    +0.000 A 
ATOM      9  C   UNL     1       6.214   5.323  19.134  0.00  0.00    +0.000 A 
ATOM     10  C   UNL     1       5.131   4.838  18.383  0.00  0.00    +0.000 A 
ATOM     11  C   UNL     1       5.012   5.255  17.053  0.00  0.00    +0.000 A 
ATOM     12  C   UNL     1       5.960   6.123  16.483  0.00  0.00    +0.000 A 
BRANCH   7  14
ATOM     13  C   UNL     1       8.194   8.606  17.676  0.00  0.00    +0.000 C 
ATOM     14  O   UNL     1       7.973   7.491  16.822  0.00  0.00    +0.000 OA
ENDBRANCH   7  14
ENDBRANCH   1  10
BRANCH   6  15
ATOM     15  N   UNL     1       2.717   5.789  20.228  0.00  0.00    +0.000 N 
ATOM     16  C   UNL     1       2.330   6.800  19.386  0.00  0.00    +0.000 C 
ATOM     17  O   UNL     1       2.198   6.757  18.177  0.00  0.00    +0.000 OA
ATOM     18  H   UNL     1       2.678   6.031  21.209  0.00  0.00    +0.000 HD
BRANCH  16  19
ATOM     19  O   UNL     1       2.072   7.919  20.126  0.00  0.00    +0.000 OA
BRANCH  19  20
ATOM     20  C   UNL     1       0.996   8.769  19.664  0.00  0.00    +0.000 C 
ATOM     21  C   UNL     1       1.554   9.788  18.667  0.00  0.00    +0.000 C 
BRANCH  20  22
ATOM     22  C   UNL     1       0.375   9.475  20.858  0.00  0.00    +0.000 A 
ATOM     23  C   UNL     1       0.425   8.888  22.133  0.00  0.00    +0.000 A 
ATOM     24  C   UNL     1      -0.191   9.505  23.224  0.00  0.00    +0.000 A 
ATOM     25  C   UNL     1      -0.866  10.715  23.057  0.00  0.00    +0.000 A 
ATOM     26  C   UNL     1      -0.913  11.312  21.800  0.00  0.00    +0.000 A 
ATOM     27  C   UNL     1      -0.294  10.701  20.710  0.00  0.00    +0.000 A 
ENDBRANCH  20  22
ENDBRANCH  19  20
ENDBRANCH  16  19
ENDBRANCH   6  15
TORSDOF 6
ENDMDL
MODEL 3
REMARK VINA RESULT:      -7.8      1.790      7.810
REMARK  Name = 
REMARK  9 active torsions:
REMARK  status: ('A' for Active; 'I' for Inactive)
REMARK    1  A    between atoms: C_1  and  O_2
REMARK    2  A    between atoms: O_2  and  C_3
REMARK    3  A    between atoms: C_6  and  C_7
REMARK    4  A    between atoms: N_10  and  C_11
REMARK    5  A    between atoms: C_12  and  N_13
REMARK    6  A    between atoms: C_14  and  O_16
REMARK    7  A    between atoms: O_16  and  C_17
REMARK    8  A    between atoms: C_17  and  C_18
REMARK    9  A    between atoms: C_17  and  C_19
REMARK                            x       y       z     vdW  Elec       q    Type
REMARK                         _______ _______ _______ _____ _____    ______ ____
ROOT
ATOM      1  C   UNL     1       2.463   5.736  20.071  0.00  0.00    +0.000 A 
ATOM      2  C   UNL     1       1.901   5.008  21.145  0.00  0.00    +0.000 A 
ATOM      3  N   UNL     1       2.338   3.760  21.208  0.00  0.00    +0.000 NA
ATOM      4  N   UNL     1       3.177   3.651  20.154  0.00  0.00    +0.000 N 
ATOM      5  C   UNL     1       3.823   2.367  20.016  0.00  0.00    +0.000 C 
ATOM      6  C   UNL     1       3.323   4.832  19.434  0.00  0.00    +0.000 A 
ENDROOT
BRANCH   1  10
ATOM      7  C   UNL     1       1.168   9.685  19.033  0.00  0.00    +0.000 A 
ATOM      8  C   UNL     1       0.992   9.188  20.321  0.00  0.00    +0.000 A 
ATOM      9  C   UNL     1       1.481   7.924  20.664  0.00  0.00    +0.000 A 
ATOM     10  C   UNL     1       2.123   7.112  19.713  0.00  0.00    +0.000 A 
ATOM     11  C   UNL     1       2.274   7.611  18.415  0.00  0.00    +0.000 A 
ATOM     12  C   UNL     1       1.807   8.894  18.079  0.00  0.00    +0.000 A 
BRANCH   7  14
ATOM     13  C   UNL     1      -0.777  10.932  18.542  0.00  0.00    +0.000 C 
ATOM     14  O   UNL     1       0.619  10.917  18.810  0.00  0.00    +0.000 OA
ENDBRANCH   7  14
ENDBRANCH   1  10
BRANCH   6  15
ATOM     15  N   UNL     1       4.163   5.088  18.345  0.00  0.00    +0.000 N 
ATOM     16  C   UNL     1       4.142   4.524  17.095  0.00  0.00    +0.000 C 
ATOM     17  O   UNL     1       3.373   3.684  16.666  0.00  0.00    +0.000 OA
ATOM     18  H   UNL     1       4.843   5.828  18.453  0.00  0.00    +0.000 HD
BRANCH  16  19
ATOM     19  O   UNL     1       5.138   5.078  16.342  0.00  0.00    +0.000 OA
BRANCH  19  20
ATOM     20  C   UNL     1       6.268   4.227  16.035  0.00  0.00    +0.000 C 
ATOM     21  C   UNL     1       7.477   4.683  16.854  0.00  0.00    +0.000 C 
BRANCH  20  22
ATOM     22  C   UNL     1       6.566   4.318  14.547  0.00  0.00    +0.000 A 
ATOM     23  C   UNL     1       5.847   3.533  13.631  0.00  0.00    +0.000 A 
ATOM     24  C   UNL     1       6.152   3.571  12.269  0.00  0.00    +0.000 A 
ATOM     25  C   UNL     1       7.179   4.393  11.803  0.00  0.00    +0.000 A 
ATOM     26  C   UNL     1       7.893   5.184  12.700  0.00  0.00    +0.000 A 
ATOM     27  C   UNL     1       7.585   5.152  14.060  0.00  0.00    +0.000 A 
ENDBRANCH  20  22
ENDBRANCH  19  20
ENDBRANCH  16  19
ENDBRANCH   6  15
TORSDOF 6
ENDMDL
MODEL 4
REMARK VINA RESULT:      -7.8      0.279      1.365
REMARK  Name = 
REMARK  9 active torsions:
REMARK  status: ('A' for Active; 'I' for Inactive)
REMARK    1  A    between atoms: C_1  and  O_2
REMARK    2  A    between atoms: O_2  and  C_3
REMARK    3  A    between atoms: C_6  and  C_7
REMARK    4  A    between atoms: N_10  and  C_11
REMARK    5  A    between atoms: C_12  and  N_13
REMARK    6  A    between atoms: C_14  and  O_16
REMARK    7  A    between atoms: O_16  and  C_17
REMARK    8  A    between atoms: C_17  and  C_18
REMARK    9  A    between atoms: C_17  and  C_19
REMARK                            x       y       z     vdW  Elec       q    Type
REMARK                         _______ _______ _______ _____ _____    ______ ____
ROOT
ATOM      1  C   UNL     1       4.223   3.553  18.916  0.00  0.00    +0.000 A 
ATOM      2  C   UNL     1       4.028   2.218  19.340  0.00  0.00    +0.000 A 
ATOM      3  N   UNL     1       3.228   2.121  20.391  0.00  0.00    +0.000 NA
ATOM      4  N   UNL     1       2.912   3.403  20.684  0.00  0.00    +0.000 N 
ATOM      5  C   UNL     1       2.007   3.571  21.796  0.00  0.00    +0.000 C 
ATOM      6  C   UNL     1       3.462   4.327  19.803  0.00  0.00    +0.000 A 
ENDROOT
BRANCH   1  10
ATOM      7  C   UNL     1       6.736   5.078  15.800  0.00  0.00    +0.000 A 
ATOM      8  C   UNL     1       7.123   5.153  17.135  0.00  0.00    +0.000 A 
ATOM      9  C   UNL     1       6.324   4.591  18.135  0.00  0.00    +0.000 A 
ATOM     10  C   UNL     1       5.101   3.973  17.826  0.00  0.00    +0.000 A 
ATOM     11  C   UNL     1       4.709   3.923  16.483  0.00  0.00    +0.000 A 
ATOM     12  C   UNL     1       5.526   4.464  15.475  0.00  0.00    +0.000 A 
BRANCH   7  14
ATOM     13  C   UNL     1       7.557   5.189  13.588  0.00  0.00    +0.000 C 
ATOM     14  O   UNL     1       7.581   5.691  14.919  0.00  0.00    +0.000 OA
ENDBRANCH   7  14
ENDBRANCH   1  10
BRANCH   6  15
ATOM     15  N   UNL     1       3.276   5.713  19.769  0.00  0.00    +0.000 N 
ATOM     16  C   UNL     1       2.603   6.465  18.840  0.00  0.00    +0.000 C 
ATOM     17  O   UNL     1       2.013   6.076  17.848  0.00  0.00    +0.000 OA
ATOM     18  H   UNL     1       3.622   6.244  20.557  0.00  0.00    +0.000 HD
BRANCH  16  19
ATOM     19  O   UNL     1       2.664   7.779  19.205  0.00  0.00    +0.000 OA
BRANCH  19  20
ATOM     20  C   UNL     1       1.533   8.606  18.843  0.00  0.00    +0.000 C 
ATOM     21  C   UNL     1       1.997   9.697  17.877  0.00  0.00    +0.000 C 
BRANCH  20  22
ATOM     22  C   UNL     1       0.947   9.223  20.104  0.00  0.00    +0.000 A 
ATOM     23  C   UNL     1       1.191   8.639  21.357  0.00  0.00    +0.000 A 
ATOM     24  C   UNL     1       0.612   9.167  22.513  0.00  0.00    +0.000 A 
ATOM     25  C   UNL     1      -0.219  10.286  22.432  0.00  0.00    +0.000 A 
ATOM     26  C   UNL     1      -0.461  10.880  21.196  0.00  0.00    +0.000 A 
ATOM     27  C   UNL     1       0.122  10.357  20.041  0.00  0.00    +0.000 A 
ENDBRANCH  20  22
ENDBRANCH  19  20
ENDBRANCH  16  19
ENDBRANCH   6  15
TORSDOF 6
ENDMDL
MODEL 5
REMARK VINA RESULT:      -7.5      1.632      7.724
REMARK  Name = 
REMARK  9 active torsions:
REMARK  status: ('A' for Active; 'I' for Inactive)
REMARK    1  A    between atoms: C_1  and  O_2
REMARK    2  A    between atoms: O_2  and  C_3
REMARK    3  A    between atoms: C_6  and  C_7
REMARK    4  A    between atoms: N_10  and  C_11
REMARK    5  A    between atoms: C_12  and  N_13
REMARK    6  A    between atoms: C_14  and  O_16
REMARK    7  A    between atoms: O_16  and  C_17
REMARK    8  A    between atoms: C_17  and  C_18
REMARK    9  A    between atoms: C_17  and  C_19
REMARK                            x       y       z     vdW  Elec       q    Type
REMARK                         _______ _______ _______ _____ _____    ______ ____
ROOT
ATOM      1  C   UNL     1       2.513   5.326  20.217  0.00  0.00    +0.000 A 
ATOM      2  C   UNL     1       2.103   4.490  21.281  0.00  0.00    +0.000 A 
ATOM      3  N   UNL     1       2.669   3.293  21.246  0.00  0.00    +0.000 NA
ATOM      4  N   UNL     1       3.440   3.327  20.136  0.00  0.00    +0.000 N 
ATOM      5  C   UNL     1       4.202   2.127  19.885  0.00  0.00    +0.000 C 
ATOM      6  C   UNL     1       3.415   4.550  19.477  0.00  0.00    +0.000 A 
ENDROOT
BRANCH   1  10
ATOM      7  C   UNL     1       1.335   9.376  19.467  0.00  0.00    +0.000 A 
ATOM      8  C   UNL     1       1.951   8.614  18.479  0.00  0.00    +0.000 A 
ATOM      9  C   UNL     1       2.269   7.273  18.716  0.00  0.00    +0.000 A 
ATOM     10  C   UNL     1       2.010   6.675  19.961  0.00  0.00    +0.000 A 
ATOM     11  C   UNL     1       1.412   7.456  20.955  0.00  0.00    +0.000 A 
ATOM     12  C   UNL     1       1.067   8.797  20.707  0.00  0.00    +0.000 A 
BRANCH   7  14
ATOM     13  C   UNL     1       0.302  11.421  20.041  0.00  0.00    +0.000 C 
ATOM     14  O   UNL     1       1.103  10.680  19.129  0.00  0.00    +0.000 OA
ENDBRANCH   7  14
ENDBRANCH   1  10
BRANCH   6  15
ATOM     15  N   UNL     1       4.147   4.948  18.354  0.00  0.00    +0.000 N 
ATOM     16  C   UNL     1       4.100   4.447  17.078  0.00  0.00    +0.000 C 
ATOM     17  O   UNL     1       3.395   3.551  16.652  0.00  0.00    +0.000 OA
ATOM     18  H   UNL     1       4.753   5.751  18.459  0.00  0.00    +0.000 HD
BRANCH  16  19
ATOM     19  O   UNL     1       4.980   5.140  16.296  0.00  0.00    +0.000 OA
BRANCH  19  20
ATOM     20  C   UNL     1       6.273   4.529  16.075  0.00  0.00    +0.000 C 
ATOM     21  C   UNL     1       7.350   5.369  16.764  0.00  0.00    +0.000 C 
BRANCH  20  22
ATOM     22  C   UNL     1       6.533   4.448  14.579  0.00  0.00    +0.000 A 
ATOM     23  C   UNL     1       5.803   3.553  13.781  0.00  0.00    +0.000 A 
ATOM     24  C   UNL     1       6.073   3.435  12.416  0.00  0.00    +0.000 A 
ATOM     25  C   UNL     1       7.077   4.207  11.830  0.00  0.00    +0.000 A 
ATOM     26  C   UNL     1       7.802   5.106  12.610  0.00  0.00    +0.000 A 
ATOM     27  C   UNL     1       7.529   5.230  13.972  0.00  0.00    +0.000 A 
ENDBRANCH  20  22
ENDBRANCH  19  20
ENDBRANCH  16  19
ENDBRANCH   6  15
TORSDOF 6
ENDMDL
MODEL 6
REMARK VINA RESULT:      -7.5      1.791      7.665
REMARK  Name = 
REMARK  9 active torsions:
REMARK  status: ('A' for Active; 'I' for Inactive)
REMARK    1  A    between atoms: C_1  and  O_2
REMARK    2  A    between atoms: O_2  and  C_3
REMARK    3  A    between atoms: C_6  and  C_7
REMARK    4  A    between atoms: N_10  and  C_11
REMARK    5  A    between atoms: C_12  and  N_13
REMARK    6  A    between atoms: C_14  and  O_16
REMARK    7  A    between atoms: O_16  and  C_17
REMARK    8  A    between atoms: C_17  and  C_18
REMARK    9  A    between atoms: C_17  and  C_19
REMARK                            x       y       z     vdW  Elec       q    Type
REMARK                         _______ _______ _______ _____ _____    ______ ____
ROOT
ATOM      1  C   UNL     1       2.507   5.377  20.110  0.00  0.00    +0.000 A 
ATOM      2  C   UNL     1       2.057   4.634  21.226  0.00  0.00    +0.000 A 
ATOM      3  N   UNL     1       2.620   3.439  21.312  0.00  0.00    +0.000 NA
ATOM      4  N   UNL     1       3.429   3.377  20.231  0.00  0.00    +0.000 N 
ATOM      5  C   UNL     1       4.195   2.159  20.109  0.00  0.00    +0.000 C 
ATOM      6  C   UNL     1       3.431   4.540  19.470  0.00  0.00    +0.000 A 
ENDROOT
BRANCH   1  10
ATOM      7  C   UNL     1       1.370   9.346  18.970  0.00  0.00    +0.000 A 
ATOM      8  C   UNL     1       1.989   8.490  18.065  0.00  0.00    +0.000 A 
ATOM      9  C   UNL     1       2.293   7.175  18.430  0.00  0.00    +0.000 A 
ATOM     10  C   UNL     1       2.018   6.699  19.723  0.00  0.00    +0.000 A 
ATOM     11  C   UNL     1       1.417   7.575  20.634  0.00  0.00    +0.000 A 
ATOM     12  C   UNL     1       1.086   8.889  20.257  0.00  0.00    +0.000 A 
BRANCH   7  14
ATOM     13  C   UNL     1       1.427  11.662  19.431  0.00  0.00    +0.000 C 
ATOM     14  O   UNL     1       1.152  10.614  18.509  0.00  0.00    +0.000 OA
ENDBRANCH   7  14
ENDBRANCH   1  10
BRANCH   6  15
ATOM     15  N   UNL     1       4.203   4.841  18.343  0.00  0.00    +0.000 N 
ATOM     16  C   UNL     1       4.075   4.362  17.064  0.00  0.00    +0.000 C 
ATOM     17  O   UNL     1       3.247   3.578  16.638  0.00  0.00    +0.000 OA
ATOM     18  H   UNL     1       4.916   5.549  18.449  0.00  0.00    +0.000 HD
BRANCH  16  19
ATOM     19  O   UNL     1       5.037   4.931  16.279  0.00  0.00    +0.000 OA
BRANCH  19  20
ATOM     20  C   UNL     1       6.227   4.144  16.037  0.00  0.00    +0.000 C 
ATOM     21  C   UNL     1       7.369   4.680  16.901  0.00  0.00    +0.000 C 
BRANCH  20  22
ATOM     22  C   UNL     1       6.586   4.231  14.562  0.00  0.00    +0.000 A 
ATOM     23  C   UNL     1       7.576   5.125  14.125  0.00  0.00    +0.000 A 
ATOM     24  C   UNL     1       7.872   5.249  12.766  0.00  0.00    +0.000 A 
ATOM     25  C   UNL     1       7.183   4.482  11.825  0.00  0.00    +0.000 A 
ATOM     26  C   UNL     1       6.206   3.584  12.247  0.00  0.00    +0.000 A 
ATOM     27  C   UNL     1       5.913   3.455  13.605  0.00  0.00    +0.000 A 
ENDBRANCH  20  22
ENDBRANCH  19  20
ENDBRANCH  16  19
ENDBRANCH   6  15
TORSDOF 6
ENDMDL
MODEL 7
REMARK VINA RESULT:      -7.5      1.937      7.452
REMARK  Name = 
REMARK  9 active torsions:
REMARK  status: ('A' for Active; 'I' for Inactive)
REMARK    1  A    between atoms: C_1  and  O_2
REMARK    2  A    between atoms: O_2  and  C_3
REMARK    3  A    between atoms: C_6  and  C_7
REMARK    4  A    between atoms: N_10  and  C_11
REMARK    5  A    between atoms: C_12  and  N_13
REMARK    6  A    between atoms: C_14  and  O_16
REMARK    7  A    between atoms: O_16  and  C_17
REMARK    8  A    between atoms: C_17  and  C_18
REMARK    9  A    between atoms: C_17  and  C_19
REMARK                            x       y       z     vdW  Elec       q    Type
REMARK                         _______ _______ _______ _____ _____    ______ ____
ROOT
ATOM      1  C   UNL     1       2.583   5.044  20.106  0.00  0.00    +0.000 A 
ATOM      2  C   UNL     1       2.261   4.518  21.378  0.00  0.00    +0.000 A 
ATOM      3  N   UNL     1       2.675   3.271  21.541  0.00  0.00    +0.000 NA
ATOM      4  N   UNL     1       3.252   2.958  20.360  0.00  0.00    +0.000 N 
ATOM      5  C   UNL     1       3.822   1.634  20.289  0.00  0.00    +0.000 C 
ATOM      6  C   UNL     1       3.258   4.007  19.448  0.00  0.00    +0.000 A 
ENDROOT
BRANCH   1  10
ATOM      7  C   UNL     1       1.766   8.994  18.662  0.00  0.00    +0.000 A 
ATOM      8  C   UNL     1       2.303   8.021  17.824  0.00  0.00    +0.000 A 
ATOM      9  C   UNL     1       2.501   6.718  18.290  0.00  0.00    +0.000 A 
ATOM     10  C   UNL     1       2.201   6.368  19.618  0.00  0.00    +0.000 A 
ATOM     11  C   UNL     1       1.684   7.360  20.459  0.00  0.00    +0.000 A 
ATOM     12  C   UNL     1       1.459   8.663  19.982  0.00  0.00    +0.000 A 
BRANCH   7  14
ATOM     13  C   UNL     1       1.208  11.267  18.978  0.00  0.00    +0.000 C 
ATOM     14  O   UNL     1       1.650  10.236  18.104  0.00  0.00    +0.000 OA
ENDBRANCH   7  14
ENDBRANCH   1  10
BRANCH   6  15
ATOM     15  N   UNL     1       3.837   4.050  18.175  0.00  0.00    +0.000 N 
ATOM     16  C   UNL     1       5.163   4.160  17.839  0.00  0.00    +0.000 C 
ATOM     17  O   UNL     1       6.120   4.233  18.588  0.00  0.00    +0.000 OA
ATOM     18  H   UNL     1       3.221   3.921  17.384  0.00  0.00    +0.000 HD
BRANCH  16  19
ATOM     19  O   UNL     1       5.278   4.153  16.479  0.00  0.00    +0.000 OA
BRANCH  19  20
ATOM     20  C   UNL     1       6.097   5.191  15.891  0.00  0.00    +0.000 C 
ATOM     21  C   UNL     1       5.313   6.504  15.879  0.00  0.00    +0.000 C 
BRANCH  20  22
ATOM     22  C   UNL     1       6.476   4.781  14.476  0.00  0.00    +0.000 A 
ATOM     23  C   UNL     1       7.530   5.425  13.810  0.00  0.00    +0.000 A 
ATOM     24  C   UNL     1       7.848   5.091  12.492  0.00  0.00    +0.000 A 
ATOM     25  C   UNL     1       7.116   4.110  11.821  0.00  0.00    +0.000 A 
ATOM     26  C   UNL     1       6.074   3.456  12.475  0.00  0.00    +0.000 A 
ATOM     27  C   UNL     1       5.759   3.784  13.794  0.00  0.00    +0.000 A 
ENDBRANCH  20  22
ENDBRANCH  19  20
ENDBRANCH  16  19
ENDBRANCH   6  15
TORSDOF 6
ENDMDL
MODEL 8
REMARK VINA RESULT:      -7.5      3.516      8.067
REMARK  Name = 
REMARK  9 active torsions:
REMARK  status: ('A' for Active; 'I' for Inactive)
REMARK    1  A    between atoms: C_1  and  O_2
REMARK    2  A    between atoms: O_2  and  C_3
REMARK    3  A    between atoms: C_6  and  C_7
REMARK    4  A    between atoms: N_10  and  C_11
REMARK    5  A    between atoms: C_12  and  N_13
REMARK    6  A    between atoms: C_14  and  O_16
REMARK    7  A    between atoms: O_16  and  C_17
REMARK    8  A    between atoms: C_17  and  C_18
REMARK    9  A    between atoms: C_17  and  C_19
REMARK                            x       y       z     vdW  Elec       q    Type
REMARK                         _______ _______ _______ _____ _____    ______ ____
ROOT
ATOM      1  C   UNL     1      -0.676  10.614  19.930  0.00  0.00    +0.000 A 
ATOM      2  C   UNL     1      -0.828  11.411  21.088  0.00  0.00    +0.000 A 
ATOM      3  N   UNL     1      -0.014  11.055  22.071  0.00  0.00    +0.000 NA
ATOM      4  N   UNL     1       0.663   9.998  21.570  0.00  0.00    +0.000 N 
ATOM      5  C   UNL     1       1.655   9.433  22.454  0.00  0.00    +0.000 C 
ATOM      6  C   UNL     1       0.329   9.694  20.256  0.00  0.00    +0.000 A 
ENDROOT
BRANCH   1  10
ATOM      7  C   UNL     1      -3.252  10.802  16.513  0.00  0.00    +0.000 A 
ATOM      8  C   UNL     1      -3.507  11.569  17.646  0.00  0.00    +0.000 A 
ATOM      9  C   UNL     1      -2.621  11.549  18.727  0.00  0.00    +0.000 A 
ATOM     10  C   UNL     1      -1.478  10.731  18.714  0.00  0.00    +0.000 A 
ATOM     11  C   UNL     1      -1.243   9.946  17.579  0.00  0.00    +0.000 A 
ATOM     12  C   UNL     1      -2.120   9.988  16.481  0.00  0.00    +0.000 A 
BRANCH   7  14
ATOM     13  C   UNL     1      -3.908  10.195  14.327  0.00  0.00    +0.000 C 
ATOM     14  O   UNL     1      -4.206  10.880  15.537  0.00  0.00    +0.000 OA
ENDBRANCH   7  14
ENDBRANCH   1  10
BRANCH   6  15
ATOM     15  N   UNL     1       0.888   8.722  19.419  0.00  0.00    +0.000 N 
ATOM     16  C   UNL     1       1.804   8.883  18.411  0.00  0.00    +0.000 C 
ATOM     17  O   UNL     1       2.335   9.914  18.040  0.00  0.00    +0.000 OA
ATOM     18  H   UNL     1       0.645   7.759  19.605  0.00  0.00    +0.000 HD
BRANCH  16  19
ATOM     19  O   UNL     1       2.079   7.663  17.862  0.00  0.00    +0.000 OA
BRANCH  19  20
ATOM     20  C   UNL     1       3.018   6.826  18.577  0.00  0.00    +0.000 C 
ATOM     21  C   UNL     1       4.216   6.529  17.673  0.00  0.00    +0.000 C 
BRANCH  20  22
ATOM     22  C   UNL     1       2.323   5.536  18.984  0.00  0.00    +0.000 A 
ATOM     23  C   UNL     1       1.992   4.574  18.017  0.00  0.00    +0.000 A 
ATOM     24  C   UNL     1       1.305   3.413  18.375  0.00  0.00    +0.000 A 
ATOM     25  C   UNL     1       0.938   3.197  19.704  0.00  0.00    +0.000 A 
ATOM     26  C   UNL     1       1.268   4.139  20.675  0.00  0.00    +0.000 A 
ATOM     27  C   UNL     1       1.960   5.298  20.319  0.00  0.00    +0.000 A 
ENDBRANCH  20  22
ENDBRANCH  19  20
ENDBRANCH  16  19
ENDBRANCH   6  15
TORSDOF 6
ENDMDL
MODEL 9
REMARK VINA RESULT:      -7.4      2.114      6.334
REMARK  Name = 
REMARK  9 active torsions:
REMARK  status: ('A' for Active; 'I' for Inactive)
REMARK    1  A    between atoms: C_1  and  O_2
REMARK    2  A    between atoms: O_2  and  C_3
REMARK    3  A    between atoms: C_6  and  C_7
REMARK    4  A    between atoms: N_10  and  C_11
REMARK    5  A    between atoms: C_12  and  N_13
REMARK    6  A    between atoms: C_14  and  O_16
REMARK    7  A    between atoms: O_16  and  C_17
REMARK    8  A    between atoms: C_17  and  C_18
REMARK    9  A    between atoms: C_17  and  C_19
REMARK                            x       y       z     vdW  Elec       q    Type
REMARK                         _______ _______ _______ _____ _____    ______ ____
ROOT
ATOM      1  C   UNL     1       2.475   5.267  20.082  0.00  0.00    +0.000 A 
ATOM      2  C   UNL     1       1.772   4.928  21.261  0.00  0.00    +0.000 A 
ATOM      3  N   UNL     1       1.907   3.653  21.595  0.00  0.00    +0.000 NA
ATOM      4  N   UNL     1       2.683   3.137  20.616  0.00  0.00    +0.000 N 
ATOM      5  C   UNL     1       3.009   1.739  20.767  0.00  0.00    +0.000 C 
ATOM      6  C   UNL     1       3.091   4.076  19.675  0.00  0.00    +0.000 A 
ENDROOT
BRANCH   1  10
ATOM      7  C   UNL     1       2.127   9.079  18.160  0.00  0.00    +0.000 A 
ATOM      8  C   UNL     1       1.652   8.882  19.453  0.00  0.00    +0.000 A 
ATOM      9  C   UNL     1       1.833   7.652  20.092  0.00  0.00    +0.000 A 
ATOM     10  C   UNL     1       2.461   6.579  19.438  0.00  0.00    +0.000 A 
ATOM     11  C   UNL     1       2.915   6.780  18.130  0.00  0.00    +0.000 A 
ATOM     12  C   UNL     1       2.757   8.026  17.497  0.00  0.00    +0.000 A 
BRANCH   7  14
ATOM     13  C   UNL     1       1.260  11.247  18.513  0.00  0.00    +0.000 C 
ATOM     14  O   UNL     1       1.863  10.311  17.629  0.00  0.00    +0.000 OA
ENDBRANCH   7  14
ENDBRANCH   1  10
BRANCH   6  15
ATOM     15  N   UNL     1       3.952   3.899  18.587  0.00  0.00    +0.000 N 
ATOM     16  C   UNL     1       3.649   3.514  17.306  0.00  0.00    +0.000 C 
ATOM     17  O   UNL     1       2.553   3.256  16.843  0.00  0.00    +0.000 OA
ATOM     18  H   UNL     1       4.924   4.142  18.725  0.00  0.00    +0.000 HD
BRANCH  16  19
ATOM     19  O   UNL     1       4.798   3.481  16.569  0.00  0.00    +0.000 OA
BRANCH  19  20
ATOM     20  C   UNL     1       5.175   4.708  15.899  0.00  0.00    +0.000 C 
ATOM     21  C   UNL     1       5.779   4.370  14.535  0.00  0.00    +0.000 C 
BRANCH  20  22
ATOM     22  C   UNL     1       6.183   5.452  16.761  0.00  0.00    +0.000 A 
ATOM     23  C   UNL     1       7.024   4.747  17.637  0.00  0.00    +0.000 A 
ATOM     24  C   UNL     1       7.913   5.428  18.470  0.00  0.00    +0.000 A 
ATOM     25  C   UNL     1       7.975   6.822  18.441  0.00  0.00    +0.000 A 
ATOM     26  C   UNL     1       7.153   7.532  17.568  0.00  0.00    +0.000 A 
ATOM     27  C   UNL     1       6.268   6.853  16.731  0.00  0.00    +0.000 A 
ENDBRANCH  20  22
ENDBRANCH  19  20
ENDBRANCH  16  19
ENDBRANCH   6  15
TORSDOF 6
ENDMDL
