MODEL 1
REMARK VINA RESULT:      -7.9      0.000      0.000
REMARK  Name = 
REMARK  6 active torsions:
REMARK  status: ('A' for Active; 'I' for Inactive)
REMARK    1  A    between atoms: C_1  and  O_2
REMARK    2  A    between atoms: O_2  and  C_3
REMARK    3  A    between atoms: C_3  and  C_4
REMARK    4  A    between atoms: C_14  and  C_15
REMARK    5  A    between atoms: C_15  and  C_16
REMARK    6  A    between atoms: C_16  and  C_17
REMARK                            x       y       z     vdW  Elec       q    Type
REMARK                         _______ _______ _______ _____ _____    ______ ____
ROOT
ATOM      1  C   UNL     1      -0.956  11.348  21.463  0.00  0.00    +0.000 A 
ATOM      2  C   UNL     1      -0.966  11.126  22.829  0.00  0.00    +0.000 A 
ATOM      3  S   UNL     1      -0.193   9.636  23.186  0.00  0.00    +0.000 S 
ATOM      4  C   UNL     1       0.134   9.437  21.523  0.00  0.00    +0.000 A 
ATOM      5  N   UNL     1       0.855   8.315  21.233  0.00  0.00    +0.000 N 
ATOM      6  C   UNL     1       1.479   8.144  20.022  0.00  0.00    +0.000 C 
ATOM      7  O   UNL     1       1.502   8.975  19.120  0.00  0.00    +0.000 OA
ATOM      8  N   UNL     1       2.153   6.929  19.898  0.00  0.00    +0.000 N 
ATOM      9  C   UNL     1       3.010   6.724  18.729  0.00  0.00    +0.000 C 
ATOM     10  C   UNL     1       2.457   5.616  17.831  0.00  0.00    +0.000 C 
ATOM     11  C   UNL     1       2.204   4.308  18.614  0.00  0.00    +0.000 C 
ATOM     12  C   UNL     1       1.294   4.632  19.812  0.00  0.00    +0.000 C 
ATOM     13  C   UNL     1       1.885   5.730  20.694  0.00  0.00    +0.000 C 
ATOM     14  N   UNL     1      -0.341  10.350  20.722  0.00  0.00    +0.000 NA
ATOM     15  H   UNL     1       1.168   7.785  22.025  0.00  0.00    +0.000 HD
ENDROOT
BRANCH   1  16
ATOM     16  C   UNL     1      -1.541  12.517  20.741  0.00  0.00    +0.000 C 
BRANCH  16  18
ATOM     17  C   UNL     1      -0.275  13.621  19.097  0.00  0.00    +0.000 C 
ATOM     18  O   UNL     1      -0.555  13.522  20.486  0.00  0.00    +0.000 OA
ENDBRANCH  16  18
ENDBRANCH   1  16
BRANCH  11  19
ATOM     19  C   UNL     1       3.529   3.624  19.025  0.00  0.00    +0.000 C 
BRANCH  19  20
ATOM     20  C   UNL     1       4.552   3.557  17.884  0.00  0.00    +0.000 C 
BRANCH  20  21
ATOM     21  C   UNL     1       5.631   4.600  18.022  0.00  0.00    +0.000 A 
ATOM     22  C   UNL     1       6.275   4.801  19.250  0.00  0.00    +0.000 A 
ATOM     23  C   UNL     1       7.261   5.780  19.368  0.00  0.00    +0.000 A 
ATOM     24  C   UNL     1       7.605   6.555  18.263  0.00  0.00    +0.000 A 
ATOM     25  F   UNL     1       8.547   7.497  18.388  0.00  0.00    +0.000 F 
ATOM     26  C   UNL     1       6.987   6.365  17.036  0.00  0.00    +0.000 A 
ATOM     27  C   UNL     1       6.008   5.385  16.924  0.00  0.00    +0.000 A 
ATOM     28  F   UNL     1       5.417   5.196  15.735  0.00  0.00    +0.000 F 
ENDBRANCH  20  21
ENDBRANCH  19  20
ENDBRANCH  11  19
TORSDOF 5
ENDMDL
MODEL 2
REMARK VINA RESULT:      -7.2      1.067      1.441
REMARK  Name = 
REMARK  6 active torsions:
REMARK  status: ('A' for Active; 'I' for Inactive)
REMARK    1  A    between atoms: C_1  and  O_2
REMARK    2  A    between atoms: O_2  and  C_3
REMARK    3  A    between atoms: C_3  and  C_4
REMARK    4  A    between atoms: C_14  and  C_15
REMARK    5  A    between atoms: C_15  and  C_16
REMARK    6  A    between atoms: C_16  and  C_17
REMARK                            x       y       z     vdW  Elec       q    Type
REMARK                         _______ _______ _______ _____ _____    ______ ____
ROOT
ATOM      1  C   UNL     1      -0.875  11.359  21.487  0.00  0.00    +0.000 A 
ATOM      2  C   UNL     1      -0.851  11.158  22.856  0.00  0.00    +0.000 A 
ATOM      3  S   UNL     1      -0.100   9.657  23.215  0.00  0.00    +0.000 S 
ATOM      4  C   UNL     1       0.176   9.426  21.547  0.00  0.00    +0.000 A 
ATOM      5  N   UNL     1       0.865   8.285  21.256  0.00  0.00    +0.000 N 
ATOM      6  C   UNL     1       1.452   8.082  20.030  0.00  0.00    +0.000 C 
ATOM      7  O   UNL     1       1.467   8.899  19.115  0.00  0.00    +0.000 OA
ATOM      8  N   UNL     1       2.096   6.851  19.908  0.00  0.00    +0.000 N 
ATOM      9  C   UNL     1       2.916   6.611  18.718  0.00  0.00    +0.000 C 
ATOM     10  C   UNL     1       2.315   5.501  17.854  0.00  0.00    +0.000 C 
ATOM     11  C   UNL     1       2.056   4.211  18.664  0.00  0.00    +0.000 C 
ATOM     12  C   UNL     1       1.187   4.572  19.881  0.00  0.00    +0.000 C 
ATOM     13  C   UNL     1       1.826   5.670  20.729  0.00  0.00    +0.000 C 
ATOM     14  N   UNL     1      -0.301  10.337  20.745  0.00  0.00    +0.000 NA
ATOM     15  H   UNL     1       1.189   7.761  22.046  0.00  0.00    +0.000 HD
ENDROOT
BRANCH   1  16
ATOM     16  C   UNL     1      -1.455  12.529  20.763  0.00  0.00    +0.000 C 
BRANCH  16  18
ATOM     17  C   UNL     1      -0.636  14.637  21.406  0.00  0.00    +0.000 C 
ATOM     18  O   UNL     1      -0.469  13.538  20.522  0.00  0.00    +0.000 OA
ENDBRANCH  16  18
ENDBRANCH   1  16
BRANCH  11  19
ATOM     19  C   UNL     1       3.378   3.505  19.049  0.00  0.00    +0.000 C 
BRANCH  19  20
ATOM     20  C   UNL     1       4.273   3.201  17.841  0.00  0.00    +0.000 C 
BRANCH  20  21
ATOM     21  C   UNL     1       5.269   4.301  17.577  0.00  0.00    +0.000 A 
ATOM     22  C   UNL     1       5.476   4.776  16.274  0.00  0.00    +0.000 A 
ATOM     23  C   UNL     1       6.411   5.784  16.041  0.00  0.00    +0.000 A 
ATOM     24  C   UNL     1       7.135   6.318  17.104  0.00  0.00    +0.000 A 
ATOM     25  F   UNL     1       8.036   7.279  16.869  0.00  0.00    +0.000 F 
ATOM     26  C   UNL     1       6.938   5.869  18.402  0.00  0.00    +0.000 A 
ATOM     27  C   UNL     1       6.002   4.867  18.628  0.00  0.00    +0.000 A 
ATOM     28  F   UNL     1       5.805   4.439  19.884  0.00  0.00    +0.000 F 
ENDBRANCH  20  21
ENDBRANCH  19  20
ENDBRANCH  11  19
TORSDOF 5
ENDMDL
MODEL 3
REMARK VINA RESULT:      -7.1      1.354      1.410
REMARK  Name = 
REMARK  6 active torsions:
REMARK  status: ('A' for Active; 'I' for Inactive)
REMARK    1  A    between atoms: C_1  and  O_2
REMARK    2  A    between atoms: O_2  and  C_3
REMARK    3  A    between atoms: C_3  and  C_4
REMARK    4  A    between atoms: C_14  and  C_15
REMARK    5  A    between atoms: C_15  and  C_16
REMARK    6  A    between atoms: C_16  and  C_17
REMARK                            x       y       z     vdW  Elec       q    Type
REMARK                         _______ _______ _______ _____ _____    ______ ____
ROOT
ATOM      1  C   UNL     1      -0.837  11.585  19.756  0.00  0.00    +0.000 A 
ATOM      2  C   UNL     1      -0.602  11.839  21.097  0.00  0.00    +0.000 A 
ATOM      3  S   UNL     1       0.359  10.587  21.771  0.00  0.00    +0.000 S 
ATOM      4  C   UNL     1       0.428   9.848  20.234  0.00  0.00    +0.000 A 
ATOM      5  N   UNL     1       1.197   8.722  20.198  0.00  0.00    +0.000 N 
ATOM      6  C   UNL     1       1.629   8.173  19.015  0.00  0.00    +0.000 C 
ATOM      7  O   UNL     1       1.424   8.649  17.904  0.00  0.00    +0.000 OA
ATOM      8  N   UNL     1       2.388   7.013  19.173  0.00  0.00    +0.000 N 
ATOM      9  C   UNL     1       3.058   6.455  17.996  0.00  0.00    +0.000 C 
ATOM     10  C   UNL     1       2.476   5.089  17.630  0.00  0.00    +0.000 C 
ATOM     11  C   UNL     1       2.481   4.116  18.830  0.00  0.00    +0.000 C 
ATOM     12  C   UNL     1       1.752   4.793  20.003  0.00  0.00    +0.000 C 
ATOM     13  C   UNL     1       2.371   6.146  20.352  0.00  0.00    +0.000 C 
ATOM     14  N   UNL     1      -0.257  10.419  19.281  0.00  0.00    +0.000 NA
ATOM     15  H   UNL     1       1.685   8.503  21.046  0.00  0.00    +0.000 HD
ENDROOT
BRANCH   1  16
ATOM     16  C   UNL     1      -1.641  12.419  18.814  0.00  0.00    +0.000 C 
BRANCH  16  18
ATOM     17  C   UNL     1      -2.647  11.375  16.964  0.00  0.00    +0.000 C 
ATOM     18  O   UNL     1      -2.789  11.710  18.337  0.00  0.00    +0.000 OA
ENDBRANCH  16  18
ENDBRANCH   1  16
BRANCH  11  19
ATOM     19  C   UNL     1       3.916   3.660  19.188  0.00  0.00    +0.000 C 
BRANCH  19  20
ATOM     20  C   UNL     1       4.878   3.707  17.995  0.00  0.00    +0.000 C 
BRANCH  20  21
ATOM     21  C   UNL     1       5.933   4.771  18.155  0.00  0.00    +0.000 A 
ATOM     22  C   UNL     1       6.624   4.914  19.366  0.00  0.00    +0.000 A 
ATOM     23  C   UNL     1       7.588   5.913  19.506  0.00  0.00    +0.000 A 
ATOM     24  C   UNL     1       7.863   6.764  18.439  0.00  0.00    +0.000 A 
ATOM     25  F   UNL     1       8.784   7.724  18.586  0.00  0.00    +0.000 F 
ATOM     26  C   UNL     1       7.199   6.634  17.228  0.00  0.00    +0.000 A 
ATOM     27  C   UNL     1       6.243   5.634  17.094  0.00  0.00    +0.000 A 
ATOM     28  F   UNL     1       5.607   5.502  15.921  0.00  0.00    +0.000 F 
ENDBRANCH  20  21
ENDBRANCH  19  20
ENDBRANCH  11  19
TORSDOF 5
ENDMDL
MODEL 4
REMARK VINA RESULT:      -7.1      1.281      1.872
REMARK  Name = 
REMARK  6 active torsions:
REMARK  status: ('A' for Active; 'I' for Inactive)
REMARK    1  A    between atoms: C_1  and  O_2
REMARK    2  A    between atoms: O_2  and  C_3
REMARK    3  A    between atoms: C_3  and  C_4
REMARK    4  A    between atoms: C_14  and  C_15
REMARK    5  A    between atoms: C_15  and  C_16
REMARK    6  A    between atoms: C_16  and  C_17
REMARK                            x       y       z     vdW  Elec       q    Type
REMARK                         _______ _______ _______ _____ _____    ______ ____
ROOT
ATOM      1  C   UNL     1      -0.934  11.394  21.415  0.00  0.00    +0.000 A 
ATOM      2  C   UNL     1      -0.943  11.216  22.788  0.00  0.00    +0.000 A 
ATOM      3  S   UNL     1      -0.191   9.727  23.191  0.00  0.00    +0.000 S 
ATOM      4  C   UNL     1       0.127   9.469  21.535  0.00  0.00    +0.000 A 
ATOM      5  N   UNL     1       0.829   8.327  21.280  0.00  0.00    +0.000 N 
ATOM      6  C   UNL     1       1.447   8.107  20.073  0.00  0.00    +0.000 C 
ATOM      7  O   UNL     1       1.479   8.907  19.144  0.00  0.00    +0.000 OA
ATOM      8  N   UNL     1       2.102   6.878  19.988  0.00  0.00    +0.000 N 
ATOM      9  C   UNL     1       2.951   6.622  18.823  0.00  0.00    +0.000 C 
ATOM     10  C   UNL     1       2.378   5.493  17.964  0.00  0.00    +0.000 C 
ATOM     11  C   UNL     1       2.108   4.216  18.790  0.00  0.00    +0.000 C 
ATOM     12  C   UNL     1       1.207   4.593  19.979  0.00  0.00    +0.000 C 
ATOM     13  C   UNL     1       1.819   5.710  20.824  0.00  0.00    +0.000 C 
ATOM     14  N   UNL     1      -0.337  10.363  20.705  0.00  0.00    +0.000 NA
ATOM     15  H   UNL     1       1.137   7.819  22.088  0.00  0.00    +0.000 HD
ENDROOT
BRANCH   1  16
ATOM     16  C   UNL     1      -1.504  12.547  20.657  0.00  0.00    +0.000 C 
BRANCH  16  18
ATOM     17  C   UNL     1      -3.063  11.972  18.995  0.00  0.00    +0.000 C 
ATOM     18  O   UNL     1      -1.693  12.224  19.276  0.00  0.00    +0.000 OA
ENDBRANCH  16  18
ENDBRANCH   1  16
BRANCH  11  19
ATOM     19  C   UNL     1       3.425   3.526  19.220  0.00  0.00    +0.000 C 
BRANCH  19  20
ATOM     20  C   UNL     1       4.090   2.738  18.085  0.00  0.00    +0.000 C 
BRANCH  20  21
ATOM     21  C   UNL     1       5.024   3.592  17.267  0.00  0.00    +0.000 A 
ATOM     22  C   UNL     1       4.967   3.570  15.867  0.00  0.00    +0.000 A 
ATOM     23  C   UNL     1       5.848   4.355  15.121  0.00  0.00    +0.000 A 
ATOM     24  C   UNL     1       6.780   5.160  15.771  0.00  0.00    +0.000 A 
ATOM     25  F   UNL     1       7.625   5.902  15.047  0.00  0.00    +0.000 F 
ATOM     26  C   UNL     1       6.846   5.203  17.157  0.00  0.00    +0.000 A 
ATOM     27  C   UNL     1       5.963   4.423  17.893  0.00  0.00    +0.000 A 
ATOM     28  F   UNL     1       6.021   4.472  19.232  0.00  0.00    +0.000 F 
ENDBRANCH  20  21
ENDBRANCH  19  20
ENDBRANCH  11  19
TORSDOF 5
ENDMDL
MODEL 5
REMARK VINA RESULT:      -7.1      1.771      2.155
REMARK  Name = 
REMARK  6 active torsions:
REMARK  status: ('A' for Active; 'I' for Inactive)
REMARK    1  A    between atoms: C_1  and  O_2
REMARK    2  A    between atoms: O_2  and  C_3
REMARK    3  A    between atoms: C_3  and  C_4
REMARK    4  A    between atoms: C_14  and  C_15
REMARK    5  A    between atoms: C_15  and  C_16
REMARK    6  A    between atoms: C_16  and  C_17
REMARK                            x       y       z     vdW  Elec       q    Type
REMARK                         _______ _______ _______ _____ _____    ______ ____
ROOT
ATOM      1  C   UNL     1      -1.973  12.041  20.757  0.00  0.00    +0.000 A 
ATOM      2  C   UNL     1      -1.849  12.155  22.131  0.00  0.00    +0.000 A 
ATOM      3  S   UNL     1      -0.752  10.975  22.721  0.00  0.00    +0.000 S 
ATOM      4  C   UNL     1      -0.494  10.451  21.117  0.00  0.00    +0.000 A 
ATOM      5  N   UNL     1       0.433   9.456  21.005  0.00  0.00    +0.000 N 
ATOM      6  C   UNL     1       1.003   9.125  19.800  0.00  0.00    +0.000 C 
ATOM      7  O   UNL     1       0.789   9.703  18.739  0.00  0.00    +0.000 OA
ATOM      8  N   UNL     1       1.914   8.071  19.875  0.00  0.00    +0.000 N 
ATOM      9  C   UNL     1       2.720   7.764  18.691  0.00  0.00    +0.000 C 
ATOM     10  C   UNL     1       2.365   6.387  18.129  0.00  0.00    +0.000 C 
ATOM     11  C   UNL     1       2.450   5.281  19.205  0.00  0.00    +0.000 C 
ATOM     12  C   UNL     1       1.568   5.699  20.395  0.00  0.00    +0.000 C 
ATOM     13  C   UNL     1       1.962   7.070  20.941  0.00  0.00    +0.000 C 
ATOM     14  N   UNL     1      -1.204  11.035  20.192  0.00  0.00    +0.000 NA
ATOM     15  H   UNL     1       0.902   9.203  21.854  0.00  0.00    +0.000 HD
ENDROOT
BRANCH   1  16
ATOM     16  C   UNL     1      -2.840  12.865  19.864  0.00  0.00    +0.000 C 
BRANCH  16  18
ATOM     17  C   UNL     1      -4.768  13.814  20.817  0.00  0.00    +0.000 C 
ATOM     18  O   UNL     1      -3.384  13.993  20.557  0.00  0.00    +0.000 OA
ENDBRANCH  16  18
ENDBRANCH   1  16
BRANCH  11  19
ATOM     19  C   UNL     1       3.915   4.989  19.607  0.00  0.00    +0.000 C 
BRANCH  19  20
ATOM     20  C   UNL     1       4.486   3.735  18.935  0.00  0.00    +0.000 C 
BRANCH  20  21
ATOM     21  C   UNL     1       5.307   4.064  17.715  0.00  0.00    +0.000 A 
ATOM     22  C   UNL     1       6.653   4.434  17.841  0.00  0.00    +0.000 A 
ATOM     23  C   UNL     1       7.398   4.751  16.704  0.00  0.00    +0.000 A 
ATOM     24  C   UNL     1       6.802   4.696  15.447  0.00  0.00    +0.000 A 
ATOM     25  F   UNL     1       7.522   5.009  14.364  0.00  0.00    +0.000 F 
ATOM     26  C   UNL     1       5.474   4.322  15.300  0.00  0.00    +0.000 A 
ATOM     27  C   UNL     1       4.739   4.003  16.435  0.00  0.00    +0.000 A 
ATOM     28  F   UNL     1       3.458   3.634  16.293  0.00  0.00    +0.000 F 
ENDBRANCH  20  21
ENDBRANCH  19  20
ENDBRANCH  11  19
TORSDOF 5
ENDMDL
MODEL 6
REMARK VINA RESULT:      -7.1      1.119      1.617
REMARK  Name = 
REMARK  6 active torsions:
REMARK  status: ('A' for Active; 'I' for Inactive)
REMARK    1  A    between atoms: C_1  and  O_2
REMARK    2  A    between atoms: O_2  and  C_3
REMARK    3  A    between atoms: C_3  and  C_4
REMARK    4  A    between atoms: C_14  and  C_15
REMARK    5  A    between atoms: C_15  and  C_16
REMARK    6  A    between atoms: C_16  and  C_17
REMARK                            x       y       z     vdW  Elec       q    Type
REMARK                         _______ _______ _______ _____ _____    ______ ____
ROOT
ATOM      1  C   UNL     1      -0.916  11.227  21.673  0.00  0.00    +0.000 A 
ATOM      2  C   UNL     1      -0.829  10.961  23.029  0.00  0.00    +0.000 A 
ATOM      3  S   UNL     1      -0.004   9.477  23.282  0.00  0.00    +0.000 S 
ATOM      4  C   UNL     1       0.214   9.340  21.595  0.00  0.00    +0.000 A 
ATOM      5  N   UNL     1       0.936   8.245  21.220  0.00  0.00    +0.000 N 
ATOM      6  C   UNL     1       1.481   8.127  19.964  0.00  0.00    +0.000 C 
ATOM      7  O   UNL     1       1.426   8.987  19.091  0.00  0.00    +0.000 OA
ATOM      8  N   UNL     1       2.169   6.932  19.755  0.00  0.00    +0.000 N 
ATOM      9  C   UNL     1       2.949   6.785  18.524  0.00  0.00    +0.000 C 
ATOM     10  C   UNL     1       2.359   5.695  17.628  0.00  0.00    +0.000 C 
ATOM     11  C   UNL     1       2.186   4.356  18.382  0.00  0.00    +0.000 C 
ATOM     12  C   UNL     1       1.353   4.621  19.648  0.00  0.00    +0.000 C 
ATOM     13  C   UNL     1       1.980   5.702  20.526  0.00  0.00    +0.000 C 
ATOM     14  N   UNL     1      -0.332  10.269  20.859  0.00  0.00    +0.000 NA
ATOM     15  H   UNL     1       1.313   7.697  21.970  0.00  0.00    +0.000 HD
ENDROOT
BRANCH   1  16
ATOM     16  C   UNL     1      -1.571  12.406  21.032  0.00  0.00    +0.000 C 
BRANCH  16  18
ATOM     17  C   UNL     1      -3.701  12.816  21.939  0.00  0.00    +0.000 C 
ATOM     18  O   UNL     1      -2.325  13.167  21.981  0.00  0.00    +0.000 OA
ENDBRANCH  16  18
ENDBRANCH   1  16
BRANCH  11  19
ATOM     19  C   UNL     1       3.550   3.690  18.680  0.00  0.00    +0.000 C 
BRANCH  19  20
ATOM     20  C   UNL     1       4.544   3.806  17.518  0.00  0.00    +0.000 C 
BRANCH  20  21
ATOM     21  C   UNL     1       5.645   4.794  17.805  0.00  0.00    +0.000 A 
ATOM     22  C   UNL     1       6.121   5.643  16.796  0.00  0.00    +0.000 A 
ATOM     23  C   UNL     1       7.151   6.543  17.071  0.00  0.00    +0.000 A 
ATOM     24  C   UNL     1       7.702   6.597  18.349  0.00  0.00    +0.000 A 
ATOM     25  F   UNL     1       8.694   7.458  18.601  0.00  0.00    +0.000 F 
ATOM     26  C   UNL     1       7.238   5.773  19.364  0.00  0.00    +0.000 A 
ATOM     27  C   UNL     1       6.209   4.882  19.085  0.00  0.00    +0.000 A 
ATOM     28  F   UNL     1       5.755   4.092  20.068  0.00  0.00    +0.000 F 
ENDBRANCH  20  21
ENDBRANCH  19  20
ENDBRANCH  11  19
TORSDOF 5
ENDMDL
MODEL 7
REMARK VINA RESULT:      -7.0      4.274      9.341
REMARK  Name = 
REMARK  6 active torsions:
REMARK  status: ('A' for Active; 'I' for Inactive)
REMARK    1  A    between atoms: C_1  and  O_2
REMARK    2  A    between atoms: O_2  and  C_3
REMARK    3  A    between atoms: C_3  and  C_4
REMARK    4  A    between atoms: C_14  and  C_15
REMARK    5  A    between atoms: C_15  and  C_16
REMARK    6  A    between atoms: C_16  and  C_17
REMARK                            x       y       z     vdW  Elec       q    Type
REMARK                         _______ _______ _______ _____ _____    ______ ____
ROOT
ATOM      1  C   UNL     1       5.069   4.822  18.390  0.00  0.00    +0.000 A 
ATOM      2  C   UNL     1       4.506   3.804  19.141  0.00  0.00    +0.000 A 
ATOM      3  S   UNL     1       3.127   4.388  19.979  0.00  0.00    +0.000 S 
ATOM      4  C   UNL     1       3.357   5.911  19.243  0.00  0.00    +0.000 A 
ATOM      5  N   UNL     1       2.398   6.827  19.562  0.00  0.00    +0.000 N 
ATOM      6  C   UNL     1       2.228   7.985  18.841  0.00  0.00    +0.000 C 
ATOM      7  O   UNL     1       2.862   8.284  17.835  0.00  0.00    +0.000 OA
ATOM      8  N   UNL     1       1.213   8.810  19.325  0.00  0.00    +0.000 N 
ATOM      9  C   UNL     1       0.819   9.971  18.524  0.00  0.00    +0.000 C 
ATOM     10  C   UNL     1       1.156  11.276  19.247  0.00  0.00    +0.000 C 
ATOM     11  C   UNL     1       0.567  11.316  20.675  0.00  0.00    +0.000 C 
ATOM     12  C   UNL     1       1.044  10.062  21.428  0.00  0.00    +0.000 C 
ATOM     13  C   UNL     1       0.675   8.779  20.686  0.00  0.00    +0.000 C 
ATOM     14  N   UNL     1       4.408   6.038  18.481  0.00  0.00    +0.000 NA
ATOM     15  H   UNL     1       1.641   6.485  20.123  0.00  0.00    +0.000 HD
ENDROOT
BRANCH   1  16
ATOM     16  C   UNL     1       6.288   4.733  17.533  0.00  0.00    +0.000 C 
BRANCH  16  18
ATOM     17  C   UNL     1       7.842   5.703  19.006  0.00  0.00    +0.000 C 
ATOM     18  O   UNL     1       7.170   5.836  17.761  0.00  0.00    +0.000 OA
ENDBRANCH  16  18
ENDBRANCH   1  16
BRANCH  11  19
ATOM     19  C   UNL     1      -0.973  11.463  20.652  0.00  0.00    +0.000 C 
BRANCH  19  20
ATOM     20  C   UNL     1      -1.468  12.463  19.600  0.00  0.00    +0.000 C 
BRANCH  20  21
ATOM     21  C   UNL     1      -2.849  12.129  19.099  0.00  0.00    +0.000 A 
ATOM     22  C   UNL     1      -3.983  12.489  19.842  0.00  0.00    +0.000 A 
ATOM     23  C   UNL     1      -5.255  12.160  19.375  0.00  0.00    +0.000 A 
ATOM     24  C   UNL     1      -5.396  11.478  18.169  0.00  0.00    +0.000 A 
ATOM     25  F   UNL     1      -6.621  11.160  17.733  0.00  0.00    +0.000 F 
ATOM     26  C   UNL     1      -4.288  11.122  17.414  0.00  0.00    +0.000 A 
ATOM     27  C   UNL     1      -3.024  11.456  17.883  0.00  0.00    +0.000 A 
ATOM     28  F   UNL     1      -1.953  11.119  17.149  0.00  0.00    +0.000 F 
ENDBRANCH  20  21
ENDBRANCH  19  20
ENDBRANCH  11  19
TORSDOF 5
ENDMDL
MODEL 8
REMARK VINA RESULT:      -7.0      1.713      2.336
REMARK  Name = 
REMARK  6 active torsions:
REMARK  status: ('A' for Active; 'I' for Inactive)
REMARK    1  A    between atoms: C_1  and  O_2
REMARK    2  A    between atoms: O_2  and  C_3
REMARK    3  A    between atoms: C_3  and  C_4
REMARK    4  A    between atoms: C_14  and  C_15
REMARK    5  A    between atoms: C_15  and  C_16
REMARK    6  A    between atoms: C_16  and  C_17
REMARK                            x       y       z     vdW  Elec       q    Type
REMARK                         _______ _______ _______ _____ _____    ______ ____
ROOT
ATOM      1  C   UNL     1      -1.897  11.861  21.026  0.00  0.00    +0.000 A 
ATOM      2  C   UNL     1      -1.749  11.864  22.402  0.00  0.00    +0.000 A 
ATOM      3  S   UNL     1      -0.646  10.637  22.876  0.00  0.00    +0.000 S 
ATOM      4  C   UNL     1      -0.419  10.243  21.231  0.00  0.00    +0.000 A 
ATOM      5  N   UNL     1       0.501   9.258  21.023  0.00  0.00    +0.000 N 
ATOM      6  C   UNL     1       1.049   9.023  19.785  0.00  0.00    +0.000 C 
ATOM      7  O   UNL     1       0.819   9.685  18.778  0.00  0.00    +0.000 OA
ATOM      8  N   UNL     1       1.957   7.964  19.759  0.00  0.00    +0.000 N 
ATOM      9  C   UNL     1       2.741   7.751  18.541  0.00  0.00    +0.000 C 
ATOM     10  C   UNL     1       2.371   6.424  17.876  0.00  0.00    +0.000 C 
ATOM     11  C   UNL     1       2.470   5.235  18.858  0.00  0.00    +0.000 C 
ATOM     12  C   UNL     1       1.610   5.558  20.093  0.00  0.00    +0.000 C 
ATOM     13  C   UNL     1       2.020   6.880  20.741  0.00  0.00    +0.000 C 
ATOM     14  N   UNL     1      -1.142  10.901  20.368  0.00  0.00    +0.000 NA
ATOM     15  H   UNL     1       0.984   8.936  21.841  0.00  0.00    +0.000 HD
ENDROOT
BRANCH   1  16
ATOM     16  C   UNL     1      -2.777  12.756  20.217  0.00  0.00    +0.000 C 
BRANCH  16  18
ATOM     17  C   UNL     1      -4.459  14.370  20.518  0.00  0.00    +0.000 C 
ATOM     18  O   UNL     1      -3.969  13.101  20.929  0.00  0.00    +0.000 OA
ENDBRANCH  16  18
ENDBRANCH   1  16
BRANCH  11  19
ATOM     19  C   UNL     1       3.940   4.908  19.210  0.00  0.00    +0.000 C 
BRANCH  19  20
ATOM     20  C   UNL     1       4.490   3.702  18.438  0.00  0.00    +0.000 C 
BRANCH  20  21
ATOM     21  C   UNL     1       5.303   4.114  17.238  0.00  0.00    +0.000 A 
ATOM     22  C   UNL     1       4.747   4.068  15.952  0.00  0.00    +0.000 A 
ATOM     23  C   UNL     1       5.515   4.438  14.847  0.00  0.00    +0.000 A 
ATOM     24  C   UNL     1       6.831   4.854  15.026  0.00  0.00    +0.000 A 
ATOM     25  F   UNL     1       7.562   5.200  13.960  0.00  0.00    +0.000 F 
ATOM     26  C   UNL     1       7.397   4.917  16.292  0.00  0.00    +0.000 A 
ATOM     27  C   UNL     1       6.625   4.551  17.388  0.00  0.00    +0.000 A 
ATOM     28  F   UNL     1       7.169   4.620  18.612  0.00  0.00    +0.000 F 
ENDBRANCH  20  21
ENDBRANCH  19  20
ENDBRANCH  11  19
TORSDOF 5
ENDMDL
MODEL 9
REMARK VINA RESULT:      -6.9      4.909     10.010
REMARK  Name = 
REMARK  6 active torsions:
REMARK  status: ('A' for Active; 'I' for Inactive)
REMARK    1  A    between atoms: C_1  and  O_2
REMARK    2  A    between atoms: O_2  and  C_3
REMARK    3  A    between atoms: C_3  and  C_4
REMARK    4  A    between atoms: C_14  and  C_15
REMARK    5  A    between atoms: C_15  and  C_16
REMARK    6  A    between atoms: C_16  and  C_17
REMARK                            x       y       z     vdW  Elec       q    Type
REMARK                         _______ _______ _______ _____ _____    ______ ____
ROOT
ATOM      1  C   UNL     1       4.902   5.632  17.148  0.00  0.00    +0.000 A 
ATOM      2  C   UNL     1       4.604   4.505  17.895  0.00  0.00    +0.000 A 
ATOM      3  S   UNL     1       3.404   4.877  19.064  0.00  0.00    +0.000 S 
ATOM      4  C   UNL     1       3.342   6.470  18.455  0.00  0.00    +0.000 A 
ATOM      5  N   UNL     1       2.408   7.256  19.065  0.00  0.00    +0.000 N 
ATOM      6  C   UNL     1       1.990   8.446  18.519  0.00  0.00    +0.000 C 
ATOM      7  O   UNL     1       2.357   8.889  17.436  0.00  0.00    +0.000 OA
ATOM      8  N   UNL     1       1.046   9.122  19.291  0.00  0.00    +0.000 N 
ATOM      9  C   UNL     1       0.392  10.299  18.716  0.00  0.00    +0.000 C 
ATOM     10  C   UNL     1       0.776  11.568  19.479  0.00  0.00    +0.000 C 
ATOM     11  C   UNL     1       0.519  11.432  20.997  0.00  0.00    +0.000 C 
ATOM     12  C   UNL     1       1.251  10.175  21.498  0.00  0.00    +0.000 C 
ATOM     13  C   UNL     1       0.830   8.926  20.726  0.00  0.00    +0.000 C 
ATOM     14  N   UNL     1       4.183   6.764  17.503  0.00  0.00    +0.000 NA
ATOM     15  H   UNL     1       1.825   6.795  19.737  0.00  0.00    +0.000 HD
ENDROOT
BRANCH   1  16
ATOM     16  C   UNL     1       5.902   5.737  16.045  0.00  0.00    +0.000 C 
BRANCH  16  18
ATOM     17  C   UNL     1       6.009   4.008  14.455  0.00  0.00    +0.000 C 
ATOM     18  O   UNL     1       6.463   4.461  15.723  0.00  0.00    +0.000 OA
ENDBRANCH  16  18
ENDBRANCH   1  16
BRANCH  11  19
ATOM     19  C   UNL     1      -0.994  11.424  21.320  0.00  0.00    +0.000 C 
BRANCH  19  20
ATOM     20  C   UNL     1      -1.290  11.318  22.821  0.00  0.00    +0.000 C 
BRANCH  20  21
ATOM     21  C   UNL     1      -2.139  12.459  23.318  0.00  0.00    +0.000 A 
ATOM     22  C   UNL     1      -3.467  12.240  23.712  0.00  0.00    +0.000 A 
ATOM     23  C   UNL     1      -4.248  13.307  24.156  0.00  0.00    +0.000 A 
ATOM     24  C   UNL     1      -3.705  14.588  24.209  0.00  0.00    +0.000 A 
ATOM     25  F   UNL     1      -4.464  15.607  24.629  0.00  0.00    +0.000 F 
ATOM     26  C   UNL     1      -2.390  14.825  23.833  0.00  0.00    +0.000 A 
ATOM     27  C   UNL     1      -1.617  13.757  23.396  0.00  0.00    +0.000 A 
ATOM     28  F   UNL     1      -0.344  13.984  23.041  0.00  0.00    +0.000 F 
ENDBRANCH  20  21
ENDBRANCH  19  20
ENDBRANCH  11  19
TORSDOF 5
ENDMDL
