MODEL 1
REMARK VINA RESULT:      -7.5      0.000      0.000
REMARK  Name = 
REMARK  8 active torsions:
REMARK  status: ('A' for Active; 'I' for Inactive)
REMARK    1  A    between atoms: C_1  and  C_2
REMARK    2  A    between atoms: C_2  and  O_3
REMARK    3  A    between atoms: C_2  and  C_12
REMARK    4  A    between atoms: O_3  and  C_4
REMARK    5  A    between atoms: N_14  and  C_15
REMARK    6  A    between atoms: C_15  and  C_16
REMARK    7  A    between atoms: C_16  and  C_17
REMARK    8  A    between atoms: C_17  and  C_18
REMARK                            x       y       z     vdW  Elec       q    Type
REMARK                         _______ _______ _______ _____ _____    ______ ____
ROOT
ATOM      1  C   UNL     1       6.314   5.785  16.596  0.00  0.00    +0.000 C 
ATOM      2  O   UNL     1       5.601   6.600  16.009  0.00  0.00    +0.000 OA
ATOM      3  N   UNL     1       7.056   4.842  15.914  0.00  0.00    +0.000 N 
ATOM      4  H   UNL     1       7.683   4.232  16.421  0.00  0.00    +0.000 HD
ENDROOT
BRANCH   1   6
ATOM      5  C   UNL     1       7.775   6.119  18.662  0.00  0.00    +0.000 C 
ATOM      6  C   UNL     1       6.383   5.744  18.149  0.00  0.00    +0.000 C 
BRANCH   6   7
ATOM      7  O   UNL     1       6.067   4.481  18.732  0.00  0.00    +0.000 OA
BRANCH   7   8
ATOM      8  C   UNL     1       4.784   4.024  18.616  0.00  0.00    +0.000 A 
ATOM      9  C   UNL     1       4.342   3.034  17.740  0.00  0.00    +0.000 A 
ATOM     10  C   UNL     1       3.015   2.592  17.790  0.00  0.00    +0.000 A 
ATOM     11  C   UNL     1       2.117   3.156  18.699  0.00  0.00    +0.000 A 
ATOM     12 CL   UNL     1       0.515   2.512  18.759  0.00  0.00    +0.000 Cl
ATOM     13  C   UNL     1       2.540   4.198  19.529  0.00  0.00    +0.000 A 
ATOM     14 CL   UNL     1       1.484   4.971  20.658  0.00  0.00    +0.000 Cl
ATOM     15  C   UNL     1       3.867   4.635  19.475  0.00  0.00    +0.000 A 
ENDBRANCH   7   8
ENDBRANCH   6   7
ENDBRANCH   1   6
BRANCH   3  16
ATOM     16  C   UNL     1       7.134   4.824  14.468  0.00  0.00    +0.000 C 
BRANCH  16  17
ATOM     17  C   UNL     1       6.196   3.783  13.865  0.00  0.00    +0.000 C 
BRANCH  17  18
ATOM     18  C   UNL     1       6.447   3.621  12.366  0.00  0.00    +0.000 C 
BRANCH  18  19
ATOM     19  C   UNL     1       5.451   2.682  11.719  0.00  0.00    +0.000 C 
ATOM     20  N   UNL     1       5.931   1.423  11.499  0.00  0.00    +0.000 N 
ATOM     21  O   UNL     1       4.315   2.990  11.386  0.00  0.00    +0.000 OA
ATOM     22  H   UNL     1       6.831   1.112  11.840  0.00  0.00    +0.000 HD
ATOM     23  H   UNL     1       5.301   0.744  11.100  0.00  0.00    +0.000 HD
ENDBRANCH  18  19
ENDBRANCH  17  18
ENDBRANCH  16  17
ENDBRANCH   3  16
TORSDOF 7
ENDMDL
MODEL 2
REMARK VINA RESULT:      -7.0      1.326      1.847
REMARK  Name = 
REMARK  8 active torsions:
REMARK  status: ('A' for Active; 'I' for Inactive)
REMARK    1  A    between atoms: C_1  and  C_2
REMARK    2  A    between atoms: C_2  and  O_3
REMARK    3  A    between atoms: C_2  and  C_12
REMARK    4  A    between atoms: O_3  and  C_4
REMARK    5  A    between atoms: N_14  and  C_15
REMARK    6  A    between atoms: C_15  and  C_16
REMARK    7  A    between atoms: C_16  and  C_17
REMARK    8  A    between atoms: C_17  and  C_18
REMARK                            x       y       z     vdW  Elec       q    Type
REMARK                         _______ _______ _______ _____ _____    ______ ____
ROOT
ATOM      1  C   UNL     1       7.245   5.369  16.621  0.00  0.00    +0.000 C 
ATOM      2  O   UNL     1       8.030   4.446  16.841  0.00  0.00    +0.000 OA
ATOM      3  N   UNL     1       6.813   5.671  15.345  0.00  0.00    +0.000 N 
ATOM      4  H   UNL     1       6.117   6.390  15.205  0.00  0.00    +0.000 HD
ENDROOT
BRANCH   1   6
ATOM      5  C   UNL     1       7.817   7.229  18.273  0.00  0.00    +0.000 C 
ATOM      6  C   UNL     1       6.727   6.279  17.770  0.00  0.00    +0.000 C 
BRANCH   6   7
ATOM      7  O   UNL     1       6.242   5.582  18.916  0.00  0.00    +0.000 OA
BRANCH   7   8
ATOM      8  C   UNL     1       4.968   5.088  18.875  0.00  0.00    +0.000 A 
ATOM      9  C   UNL     1       3.796   5.842  18.879  0.00  0.00    +0.000 A 
ATOM     10  C   UNL     1       2.553   5.212  18.738  0.00  0.00    +0.000 A 
ATOM     11  C   UNL     1       2.476   3.823  18.619  0.00  0.00    +0.000 A 
ATOM     12 CL   UNL     1       0.919   3.118  18.373  0.00  0.00    +0.000 Cl
ATOM     13  C   UNL     1       3.646   3.060  18.686  0.00  0.00    +0.000 A 
ATOM     14 CL   UNL     1       3.634   1.334  18.578  0.00  0.00    +0.000 Cl
ATOM     15  C   UNL     1       4.883   3.694  18.826  0.00  0.00    +0.000 A 
ENDBRANCH   7   8
ENDBRANCH   6   7
ENDBRANCH   1   6
BRANCH   3  16
ATOM     16  C   UNL     1       7.164   4.853  14.201  0.00  0.00    +0.000 C 
BRANCH  16  17
ATOM     17  C   UNL     1       6.216   3.668  14.042  0.00  0.00    +0.000 C 
BRANCH  17  18
ATOM     18  C   UNL     1       5.061   4.012  13.102  0.00  0.00    +0.000 C 
BRANCH  18  19
ATOM     19  C   UNL     1       4.983   3.064  11.924  0.00  0.00    +0.000 C 
ATOM     20  N   UNL     1       6.037   2.202  11.829  0.00  0.00    +0.000 N 
ATOM     21  O   UNL     1       4.083   3.052  11.096  0.00  0.00    +0.000 OA
ATOM     22  H   UNL     1       6.750   2.127  12.542  0.00  0.00    +0.000 HD
ATOM     23  H   UNL     1       6.023   1.525  11.082  0.00  0.00    +0.000 HD
ENDBRANCH  18  19
ENDBRANCH  17  18
ENDBRANCH  16  17
ENDBRANCH   3  16
TORSDOF 7
ENDMDL
MODEL 3
REMARK VINA RESULT:      -6.9      1.327      1.347
REMARK  Name = 
REMARK  8 active torsions:
REMARK  status: ('A' for Active; 'I' for Inactive)
REMARK    1  A    between atoms: C_1  and  C_2
REMARK    2  A    between atoms: C_2  and  O_3
REMARK    3  A    between atoms: C_2  and  C_12
REMARK    4  A    between atoms: O_3  and  C_4
REMARK    5  A    between atoms: N_14  and  C_15
REMARK    6  A    between atoms: C_15  and  C_16
REMARK    7  A    between atoms: C_16  and  C_17
REMARK    8  A    between atoms: C_17  and  C_18
REMARK                            x       y       z     vdW  Elec       q    Type
REMARK                         _______ _______ _______ _____ _____    ______ ____
ROOT
ATOM      1  C   UNL     1       7.179   5.058  16.699  0.00  0.00    +0.000 C 
ATOM      2  O   UNL     1       8.026   4.164  16.709  0.00  0.00    +0.000 OA
ATOM      3  N   UNL     1       6.607   5.506  15.525  0.00  0.00    +0.000 N 
ATOM      4  H   UNL     1       5.866   6.193  15.556  0.00  0.00    +0.000 HD
ENDROOT
BRANCH   1   6
ATOM      5  C   UNL     1       7.826   6.696  18.546  0.00  0.00    +0.000 C 
ATOM      6  C   UNL     1       6.735   5.765  18.010  0.00  0.00    +0.000 C 
BRANCH   6   7
ATOM      7  O   UNL     1       6.396   4.886  19.082  0.00  0.00    +0.000 OA
BRANCH   7   8
ATOM      8  C   UNL     1       5.094   4.486  19.196  0.00  0.00    +0.000 A 
ATOM      9  C   UNL     1       4.608   3.200  18.964  0.00  0.00    +0.000 A 
ATOM     10  C   UNL     1       3.262   2.902  19.210  0.00  0.00    +0.000 A 
ATOM     11  C   UNL     1       2.391   3.895  19.664  0.00  0.00    +0.000 A 
ATOM     12 CL   UNL     1       0.763   3.441  20.019  0.00  0.00    +0.000 Cl
ATOM     13  C   UNL     1       2.861   5.201  19.829  0.00  0.00    +0.000 A 
ATOM     14 CL   UNL     1       1.841   6.493  20.356  0.00  0.00    +0.000 Cl
ATOM     15  C   UNL     1       4.206   5.493  19.582  0.00  0.00    +0.000 A 
ENDBRANCH   7   8
ENDBRANCH   6   7
ENDBRANCH   1   6
BRANCH   3  16
ATOM     16  C   UNL     1       6.880   4.879  14.248  0.00  0.00    +0.000 C 
BRANCH  16  17
ATOM     17  C   UNL     1       5.873   3.777  13.932  0.00  0.00    +0.000 C 
BRANCH  17  18
ATOM     18  C   UNL     1       5.552   3.738  12.439  0.00  0.00    +0.000 C 
BRANCH  18  19
ATOM     19  C   UNL     1       6.074   2.482  11.775  0.00  0.00    +0.000 C 
ATOM     20  N   UNL     1       7.431   2.449  11.632  0.00  0.00    +0.000 N 
ATOM     21  O   UNL     1       5.375   1.565  11.369  0.00  0.00    +0.000 OA
ATOM     22  H   UNL     1       8.043   3.147  12.033  0.00  0.00    +0.000 HD
ATOM     23  H   UNL     1       7.839   1.621  11.225  0.00  0.00    +0.000 HD
ENDBRANCH  18  19
ENDBRANCH  17  18
ENDBRANCH  16  17
ENDBRANCH   3  16
TORSDOF 7
ENDMDL
MODEL 4
REMARK VINA RESULT:      -6.9      1.170      1.270
REMARK  Name = 
REMARK  8 active torsions:
REMARK  status: ('A' for Active; 'I' for Inactive)
REMARK    1  A    between atoms: C_1  and  C_2
REMARK    2  A    between atoms: C_2  and  O_3
REMARK    3  A    between atoms: C_2  and  C_12
REMARK    4  A    between atoms: O_3  and  C_4
REMARK    5  A    between atoms: N_14  and  C_15
REMARK    6  A    between atoms: C_15  and  C_16
REMARK    7  A    between atoms: C_16  and  C_17
REMARK    8  A    between atoms: C_17  and  C_18
REMARK                            x       y       z     vdW  Elec       q    Type
REMARK                         _______ _______ _______ _____ _____    ______ ____
ROOT
ATOM      1  C   UNL     1       7.086   6.033  16.929  0.00  0.00    +0.000 C 
ATOM      2  O   UNL     1       7.466   7.146  16.564  0.00  0.00    +0.000 OA
ATOM      3  N   UNL     1       6.824   5.020  16.029  0.00  0.00    +0.000 N 
ATOM      4  H   UNL     1       6.580   4.099  16.365  0.00  0.00    +0.000 HD
ENDROOT
BRANCH   1   6
ATOM      5  C   UNL     1       8.096   5.951  19.273  0.00  0.00    +0.000 C 
ATOM      6  C   UNL     1       6.838   5.719  18.432  0.00  0.00    +0.000 C 
BRANCH   6   7
ATOM      7  O   UNL     1       6.414   4.384  18.704  0.00  0.00    +0.000 OA
BRANCH   7   8
ATOM      8  C   UNL     1       5.114   4.188  19.079  0.00  0.00    +0.000 A 
ATOM      9  C   UNL     1       4.501   2.956  19.299  0.00  0.00    +0.000 A 
ATOM     10  C   UNL     1       3.185   2.899  19.773  0.00  0.00    +0.000 A 
ATOM     11  C   UNL     1       2.467   4.075  20.005  0.00  0.00    +0.000 A 
ATOM     12 CL   UNL     1       0.876   3.934  20.660  0.00  0.00    +0.000 Cl
ATOM     13  C   UNL     1       3.056   5.309  19.717  0.00  0.00    +0.000 A 
ATOM     14 CL   UNL     1       2.225   6.808  19.945  0.00  0.00    +0.000 Cl
ATOM     15  C   UNL     1       4.371   5.360  19.244  0.00  0.00    +0.000 A 
ENDBRANCH   7   8
ENDBRANCH   6   7
ENDBRANCH   1   6
BRANCH   3  16
ATOM     16  C   UNL     1       7.087   5.164  14.612  0.00  0.00    +0.000 C 
BRANCH  16  17
ATOM     17  C   UNL     1       6.720   3.901  13.838  0.00  0.00    +0.000 C 
BRANCH  17  18
ATOM     18  C   UNL     1       5.283   3.971  13.323  0.00  0.00    +0.000 C 
BRANCH  18  19
ATOM     19  C   UNL     1       5.100   3.197  12.035  0.00  0.00    +0.000 C 
ATOM     20  N   UNL     1       6.011   2.198  11.849  0.00  0.00    +0.000 N 
ATOM     21  O   UNL     1       4.239   3.429  11.198  0.00  0.00    +0.000 OA
ATOM     22  H   UNL     1       6.678   1.924  12.558  0.00  0.00    +0.000 HD
ATOM     23  H   UNL     1       5.918   1.627  11.023  0.00  0.00    +0.000 HD
ENDBRANCH  18  19
ENDBRANCH  17  18
ENDBRANCH  16  17
ENDBRANCH   3  16
TORSDOF 7
ENDMDL
MODEL 5
REMARK VINA RESULT:      -6.7      4.066      6.100
REMARK  Name = 
REMARK  8 active torsions:
REMARK  status: ('A' for Active; 'I' for Inactive)
REMARK    1  A    between atoms: C_1  and  C_2
REMARK    2  A    between atoms: C_2  and  O_3
REMARK    3  A    between atoms: C_2  and  C_12
REMARK    4  A    between atoms: O_3  and  C_4
REMARK    5  A    between atoms: N_14  and  C_15
REMARK    6  A    between atoms: C_15  and  C_16
REMARK    7  A    between atoms: C_16  and  C_17
REMARK    8  A    between atoms: C_17  and  C_18
REMARK                            x       y       z     vdW  Elec       q    Type
REMARK                         _______ _______ _______ _____ _____    ______ ____
ROOT
ATOM      1  C   UNL     1       5.215   4.353  19.271  0.00  0.00    +0.000 C 
ATOM      2  O   UNL     1       5.127   3.200  19.697  0.00  0.00    +0.000 OA
ATOM      3  N   UNL     1       4.170   5.248  19.369  0.00  0.00    +0.000 N 
ATOM      4  H   UNL     1       4.297   6.205  19.071  0.00  0.00    +0.000 HD
ENDROOT
BRANCH   1   6
ATOM      5  C   UNL     1       7.378   5.691  19.488  0.00  0.00    +0.000 C 
ATOM      6  C   UNL     1       6.502   4.851  18.555  0.00  0.00    +0.000 C 
BRANCH   6   7
ATOM      7  O   UNL     1       6.274   5.648  17.394  0.00  0.00    +0.000 OA
BRANCH   7   8
ATOM      8  C   UNL     1       6.196   5.014  16.185  0.00  0.00    +0.000 A 
ATOM      9  C   UNL     1       5.264   4.041  15.828  0.00  0.00    +0.000 A 
ATOM     10  C   UNL     1       5.237   3.540  14.522  0.00  0.00    +0.000 A 
ATOM     11  C   UNL     1       6.157   3.991  13.573  0.00  0.00    +0.000 A 
ATOM     12 CL   UNL     1       6.019   3.386  11.961  0.00  0.00    +0.000 Cl
ATOM     13  C   UNL     1       7.137   4.914  13.949  0.00  0.00    +0.000 A 
ATOM     14 CL   UNL     1       8.332   5.498  12.845  0.00  0.00    +0.000 Cl
ATOM     15  C   UNL     1       7.159   5.412  15.255  0.00  0.00    +0.000 A 
ENDBRANCH   7   8
ENDBRANCH   6   7
ENDBRANCH   1   6
BRANCH   3  16
ATOM     16  C   UNL     1       2.948   4.929  20.079  0.00  0.00    +0.000 C 
BRANCH  16  17
ATOM     17  C   UNL     1       1.727   5.009  19.166  0.00  0.00    +0.000 C 
BRANCH  17  18
ATOM     18  C   UNL     1       1.846   4.025  18.003  0.00  0.00    +0.000 C 
BRANCH  18  19
ATOM     19  C   UNL     1       1.501   2.610  18.415  0.00  0.00    +0.000 C 
ATOM     20  N   UNL     1       2.557   1.746  18.386  0.00  0.00    +0.000 N 
ATOM     21  O   UNL     1       0.383   2.228  18.732  0.00  0.00    +0.000 OA
ATOM     22  H   UNL     1       3.508   2.047  18.214  0.00  0.00    +0.000 HD
ATOM     23  H   UNL     1       2.394   0.796  18.682  0.00  0.00    +0.000 HD
ENDBRANCH  18  19
ENDBRANCH  17  18
ENDBRANCH  16  17
ENDBRANCH   3  16
TORSDOF 7
ENDMDL
MODEL 6
REMARK VINA RESULT:      -6.7      1.007      1.028
REMARK  Name = 
REMARK  8 active torsions:
REMARK  status: ('A' for Active; 'I' for Inactive)
REMARK    1  A    between atoms: C_1  and  C_2
REMARK    2  A    between atoms: C_2  and  O_3
REMARK    3  A    between atoms: C_2  and  C_12
REMARK    4  A    between atoms: O_3  and  C_4
REMARK    5  A    between atoms: N_14  and  C_15
REMARK    6  A    between atoms: C_15  and  C_16
REMARK    7  A    between atoms: C_16  and  C_17
REMARK    8  A    between atoms: C_17  and  C_18
REMARK                            x       y       z     vdW  Elec       q    Type
REMARK                         _______ _______ _______ _____ _____    ______ ____
ROOT
ATOM      1  C   UNL     1       6.277   6.128  16.473  0.00  0.00    +0.000 C 
ATOM      2  O   UNL     1       5.397   6.684  15.815  0.00  0.00    +0.000 OA
ATOM      3  N   UNL     1       7.094   5.159  15.925  0.00  0.00    +0.000 N 
ATOM      4  H   UNL     1       7.850   4.771  16.471  0.00  0.00    +0.000 HD
ENDROOT
BRANCH   1   6
ATOM      5  C   UNL     1       7.911   6.952  18.252  0.00  0.00    +0.000 C 
ATOM      6  C   UNL     1       6.489   6.456  17.977  0.00  0.00    +0.000 C 
BRANCH   6   7
ATOM      7  O   UNL     1       6.266   5.364  18.868  0.00  0.00    +0.000 OA
BRANCH   7   8
ATOM      8  C   UNL     1       5.027   4.786  18.878  0.00  0.00    +0.000 A 
ATOM      9  C   UNL     1       4.680   3.578  18.277  0.00  0.00    +0.000 A 
ATOM     10  C   UNL     1       3.394   3.053  18.444  0.00  0.00    +0.000 A 
ATOM     11  C   UNL     1       2.441   3.746  19.193  0.00  0.00    +0.000 A 
ATOM     12 CL   UNL     1       0.897   3.005  19.422  0.00  0.00    +0.000 Cl
ATOM     13  C   UNL     1       2.765   4.991  19.738  0.00  0.00    +0.000 A 
ATOM     14 CL   UNL     1       1.634   5.927  20.650  0.00  0.00    +0.000 Cl
ATOM     15  C   UNL     1       4.052   5.511  19.568  0.00  0.00    +0.000 A 
ENDBRANCH   7   8
ENDBRANCH   6   7
ENDBRANCH   1   6
BRANCH   3  16
ATOM     16  C   UNL     1       7.045   4.819  14.517  0.00  0.00    +0.000 C 
BRANCH  16  17
ATOM     17  C   UNL     1       6.023   3.721  14.237  0.00  0.00    +0.000 C 
BRANCH  17  18
ATOM     18  C   UNL     1       5.555   3.764  12.783  0.00  0.00    +0.000 C 
BRANCH  18  19
ATOM     19  C   UNL     1       6.379   2.861  11.891  0.00  0.00    +0.000 C 
ATOM     20  N   UNL     1       5.778   1.673  11.590  0.00  0.00    +0.000 N 
ATOM     21  O   UNL     1       7.498   3.124  11.473  0.00  0.00    +0.000 OA
ATOM     22  H   UNL     1       4.822   1.462  11.845  0.00  0.00    +0.000 HD
ATOM     23  H   UNL     1       6.266   1.043  10.972  0.00  0.00    +0.000 HD
ENDBRANCH  18  19
ENDBRANCH  17  18
ENDBRANCH  16  17
ENDBRANCH   3  16
TORSDOF 7
ENDMDL
MODEL 7
REMARK VINA RESULT:      -6.7      1.385      1.416
REMARK  Name = 
REMARK  8 active torsions:
REMARK  status: ('A' for Active; 'I' for Inactive)
REMARK    1  A    between atoms: C_1  and  C_2
REMARK    2  A    between atoms: C_2  and  O_3
REMARK    3  A    between atoms: C_2  and  C_12
REMARK    4  A    between atoms: O_3  and  C_4
REMARK    5  A    between atoms: N_14  and  C_15
REMARK    6  A    between atoms: C_15  and  C_16
REMARK    7  A    between atoms: C_16  and  C_17
REMARK    8  A    between atoms: C_17  and  C_18
REMARK                            x       y       z     vdW  Elec       q    Type
REMARK                         _______ _______ _______ _____ _____    ______ ____
ROOT
ATOM      1  C   UNL     1       7.103   4.689  17.087  0.00  0.00    +0.000 C 
ATOM      2  O   UNL     1       8.205   4.153  16.974  0.00  0.00    +0.000 OA
ATOM      3  N   UNL     1       6.256   4.850  16.009  0.00  0.00    +0.000 N 
ATOM      4  H   UNL     1       5.331   5.232  16.147  0.00  0.00    +0.000 HD
ENDROOT
BRANCH   1   6
ATOM      5  C   UNL     1       7.738   6.001  19.183  0.00  0.00    +0.000 C 
ATOM      6  C   UNL     1       6.618   5.258  18.451  0.00  0.00    +0.000 C 
BRANCH   6   7
ATOM      7  O   UNL     1       6.118   4.283  19.365  0.00  0.00    +0.000 OA
BRANCH   7   8
ATOM      8  C   UNL     1       4.805   3.917  19.258  0.00  0.00    +0.000 A 
ATOM      9  C   UNL     1       4.324   2.753  18.663  0.00  0.00    +0.000 A 
ATOM     10  C   UNL     1       2.957   2.454  18.706  0.00  0.00    +0.000 A 
ATOM     11  C   UNL     1       2.062   3.330  19.322  0.00  0.00    +0.000 A 
ATOM     12 CL   UNL     1       0.401   2.864  19.405  0.00  0.00    +0.000 Cl
ATOM     13  C   UNL     1       2.534   4.532  19.858  0.00  0.00    +0.000 A 
ATOM     14 CL   UNL     1       1.488   5.686  20.609  0.00  0.00    +0.000 Cl
ATOM     15  C   UNL     1       3.900   4.825  19.813  0.00  0.00    +0.000 A 
ENDBRANCH   7   8
ENDBRANCH   6   7
ENDBRANCH   1   6
BRANCH   3  16
ATOM     16  C   UNL     1       6.560   4.298  14.704  0.00  0.00    +0.000 C 
BRANCH  16  17
ATOM     17  C   UNL     1       5.354   4.355  13.772  0.00  0.00    +0.000 C 
BRANCH  17  18
ATOM     18  C   UNL     1       5.440   3.274  12.695  0.00  0.00    +0.000 C 
BRANCH  18  19
ATOM     19  C   UNL     1       6.741   3.340  11.924  0.00  0.00    +0.000 C 
ATOM     20  N   UNL     1       7.205   2.127  11.505  0.00  0.00    +0.000 N 
ATOM     21  O   UNL     1       7.364   4.367  11.693  0.00  0.00    +0.000 OA
ATOM     22  H   UNL     1       6.672   1.272  11.602  0.00  0.00    +0.000 HD
ATOM     23  H   UNL     1       8.052   2.112  10.957  0.00  0.00    +0.000 HD
ENDBRANCH  18  19
ENDBRANCH  17  18
ENDBRANCH  16  17
ENDBRANCH   3  16
TORSDOF 7
ENDMDL
MODEL 8
REMARK VINA RESULT:      -6.7      1.243      1.829
REMARK  Name = 
REMARK  8 active torsions:
REMARK  status: ('A' for Active; 'I' for Inactive)
REMARK    1  A    between atoms: C_1  and  C_2
REMARK    2  A    between atoms: C_2  and  O_3
REMARK    3  A    between atoms: C_2  and  C_12
REMARK    4  A    between atoms: O_3  and  C_4
REMARK    5  A    between atoms: N_14  and  C_15
REMARK    6  A    between atoms: C_15  and  C_16
REMARK    7  A    between atoms: C_16  and  C_17
REMARK    8  A    between atoms: C_17  and  C_18
REMARK                            x       y       z     vdW  Elec       q    Type
REMARK                         _______ _______ _______ _____ _____    ______ ____
ROOT
ATOM      1  C   UNL     1       6.894   5.869  16.637  0.00  0.00    +0.000 C 
ATOM      2  O   UNL     1       7.825   6.506  16.142  0.00  0.00    +0.000 OA
ATOM      3  N   UNL     1       5.968   5.207  15.858  0.00  0.00    +0.000 N 
ATOM      4  H   UNL     1       5.256   4.638  16.296  0.00  0.00    +0.000 HD
ENDROOT
BRANCH   1   6
ATOM      5  C   UNL     1       7.970   6.161  18.934  0.00  0.00    +0.000 C 
ATOM      6  C   UNL     1       6.686   5.812  18.177  0.00  0.00    +0.000 C 
BRANCH   6   7
ATOM      7  O   UNL     1       6.255   4.548  18.679  0.00  0.00    +0.000 OA
BRANCH   7   8
ATOM      8  C   UNL     1       4.962   4.434  19.106  0.00  0.00    +0.000 A 
ATOM      9  C   UNL     1       4.194   5.447  19.677  0.00  0.00    +0.000 A 
ATOM     10  C   UNL     1       2.847   5.221  19.984  0.00  0.00    +0.000 A 
ATOM     11  C   UNL     1       2.269   3.973  19.745  0.00  0.00    +0.000 A 
ATOM     12 CL   UNL     1       0.584   3.785  20.077  0.00  0.00    +0.000 Cl
ATOM     13  C   UNL     1       3.056   2.935  19.238  0.00  0.00    +0.000 A 
ATOM     14 CL   UNL     1       2.425   1.352  18.943  0.00  0.00    +0.000 Cl
ATOM     15  C   UNL     1       4.400   3.166  18.932  0.00  0.00    +0.000 A 
ENDBRANCH   7   8
ENDBRANCH   6   7
ENDBRANCH   1   6
BRANCH   3  16
ATOM     16  C   UNL     1       6.094   5.123  14.417  0.00  0.00    +0.000 C 
BRANCH  16  17
ATOM     17  C   UNL     1       5.941   3.689  13.920  0.00  0.00    +0.000 C 
BRANCH  17  18
ATOM     18  C   UNL     1       6.350   3.570  12.452  0.00  0.00    +0.000 C 
BRANCH  18  19
ATOM     19  C   UNL     1       5.446   2.630  11.682  0.00  0.00    +0.000 C 
ATOM     20  N   UNL     1       4.218   3.150  11.390  0.00  0.00    +0.000 N 
ATOM     21  O   UNL     1       5.744   1.492  11.350  0.00  0.00    +0.000 OA
ATOM     22  H   UNL     1       3.972   4.113  11.572  0.00  0.00    +0.000 HD
ATOM     23  H   UNL     1       3.585   2.580  10.850  0.00  0.00    +0.000 HD
ENDBRANCH  18  19
ENDBRANCH  17  18
ENDBRANCH  16  17
ENDBRANCH   3  16
TORSDOF 7
ENDMDL
MODEL 9
REMARK VINA RESULT:      -6.6      1.132      1.169
REMARK  Name = 
REMARK  8 active torsions:
REMARK  status: ('A' for Active; 'I' for Inactive)
REMARK    1  A    between atoms: C_1  and  C_2
REMARK    2  A    between atoms: C_2  and  O_3
REMARK    3  A    between atoms: C_2  and  C_12
REMARK    4  A    between atoms: O_3  and  C_4
REMARK    5  A    between atoms: N_14  and  C_15
REMARK    6  A    between atoms: C_15  and  C_16
REMARK    7  A    between atoms: C_16  and  C_17
REMARK    8  A    between atoms: C_17  and  C_18
REMARK                            x       y       z     vdW  Elec       q    Type
REMARK                         _______ _______ _______ _____ _____    ______ ____
ROOT
ATOM      1  C   UNL     1       6.673   5.705  17.101  0.00  0.00    +0.000 C 
ATOM      2  O   UNL     1       6.633   6.856  16.665  0.00  0.00    +0.000 OA
ATOM      3  N   UNL     1       6.838   4.616  16.270  0.00  0.00    +0.000 N 
ATOM      4  H   UNL     1       6.935   3.691  16.665  0.00  0.00    +0.000 HD
ENDROOT
BRANCH   1   6
ATOM      5  C   UNL     1       7.787   5.667  19.398  0.00  0.00    +0.000 C 
ATOM      6  C   UNL     1       6.495   5.411  18.617  0.00  0.00    +0.000 C 
BRANCH   6   7
ATOM      7  O   UNL     1       6.096   4.077  18.928  0.00  0.00    +0.000 OA
BRANCH   7   8
ATOM      8  C   UNL     1       4.773   3.756  18.800  0.00  0.00    +0.000 A 
ATOM      9  C   UNL     1       4.123   3.416  17.615  0.00  0.00    +0.000 A 
ATOM     10  C   UNL     1       2.782   3.016  17.639  0.00  0.00    +0.000 A 
ATOM     11  C   UNL     1       2.078   2.979  18.844  0.00  0.00    +0.000 A 
ATOM     12 CL   UNL     1       0.449   2.405  18.812  0.00  0.00    +0.000 Cl
ATOM     13  C   UNL     1       2.708   3.387  20.023  0.00  0.00    +0.000 A 
ATOM     14 CL   UNL     1       1.898   3.401  21.550  0.00  0.00    +0.000 Cl
ATOM     15  C   UNL     1       4.048   3.785  19.993  0.00  0.00    +0.000 A 
ENDBRANCH   7   8
ENDBRANCH   6   7
ENDBRANCH   1   6
BRANCH   3  16
ATOM     16  C   UNL     1       7.088   4.763  14.851  0.00  0.00    +0.000 C 
BRANCH  16  17
ATOM     17  C   UNL     1       5.790   4.832  14.052  0.00  0.00    +0.000 C 
BRANCH  17  18
ATOM     18  C   UNL     1       5.611   3.585  13.186  0.00  0.00    +0.000 C 
BRANCH  18  19
ATOM     19  C   UNL     1       6.680   3.473  12.120  0.00  0.00    +0.000 C 
ATOM     20  N   UNL     1       6.918   2.197  11.699  0.00  0.00    +0.000 N 
ATOM     21  O   UNL     1       7.313   4.416  11.664  0.00  0.00    +0.000 OA
ATOM     22  H   UNL     1       6.355   1.409  11.990  0.00  0.00    +0.000 HD
ATOM     23  H   UNL     1       7.598   2.064  10.966  0.00  0.00    +0.000 HD
ENDBRANCH  18  19
ENDBRANCH  17  18
ENDBRANCH  16  17
ENDBRANCH   3  16
TORSDOF 7
ENDMDL
