MODEL 1
REMARK VINA RESULT:      -7.1      0.000      0.000
REMARK  Name = 
REMARK  12 active torsions:
REMARK  status: ('A' for Active; 'I' for Inactive)
REMARK    1  A    between atoms: C_1  and  C_2
REMARK    2  A    between atoms: C_2  and  C_3
REMARK    3  A    between atoms: C_2  and  C_4
REMARK    4  A    between atoms: C_2  and  O_5
REMARK    5  A    between atoms: O_5  and  C_6
REMARK    6  A    between atoms: N_11  and  C_12
REMARK    7  A    between atoms: C_12  and  S_14
REMARK    8  A    between atoms: S_14  and  C_15
REMARK    9  A    between atoms: C_15  and  C_16
REMARK   10  A    between atoms: N_18  and  C_19
REMARK   11  A    between atoms: C_19  and  C_20
REMARK   12  A    between atoms: C_20  and  C_21
REMARK                            x       y       z     vdW  Elec       q    Type
REMARK                         _______ _______ _______ _____ _____    ______ ____
ROOT
ATOM      1  S   UNL     1       1.944   5.546  21.048  0.00  0.00    +0.000 S 
ENDROOT
BRANCH   1   2
ATOM      2  C   UNL     1       1.981   4.430  19.681  0.00  0.00    +0.000 C 
ATOM      3  S   UNL     1       0.781   3.251  19.561  0.00  0.00    +0.000 S 
BRANCH   2   9
ATOM      4  C   UNL     1       6.762   4.338  16.800  0.00  0.00    +0.000 C 
ATOM      5  O   UNL     1       7.734   4.957  17.219  0.00  0.00    +0.000 OA
ATOM      6  N   UNL     1       5.618   4.166  17.548  0.00  0.00    +0.000 N 
ATOM      7  C   UNL     1       5.540   4.768  18.876  0.00  0.00    +0.000 C 
ATOM      8  C   UNL     1       4.198   5.479  19.074  0.00  0.00    +0.000 C 
ATOM      9  N   UNL     1       3.064   4.567  18.799  0.00  0.00    +0.000 N 
ATOM     10  C   UNL     1       3.146   3.973  17.439  0.00  0.00    +0.000 C 
ATOM     11  C   UNL     1       4.503   3.289  17.191  0.00  0.00    +0.000 C 
BRANCH   4  12
ATOM     12  O   UNL     1       6.690   3.779  15.560  0.00  0.00    +0.000 OA
BRANCH  12  14
ATOM     13  C   UNL     1       5.421   3.849  13.458  0.00  0.00    +0.000 C 
ATOM     14  C   UNL     1       6.338   4.612  14.424  0.00  0.00    +0.000 C 
ATOM     15  C   UNL     1       7.586   5.175  13.727  0.00  0.00    +0.000 C 
ATOM     16  C   UNL     1       5.545   5.800  14.992  0.00  0.00    +0.000 C 
ENDBRANCH  12  14
ENDBRANCH   4  12
ENDBRANCH   2   9
ENDBRANCH   1   2
BRANCH   1  17
ATOM     17  C   UNL     1       1.476   7.098  20.209  0.00  0.00    +0.000 C 
BRANCH  17  18
ATOM     18  C   UNL     1       1.056   8.121  21.202  0.00  0.00    +0.000 A 
ATOM     19  C   UNL     1      -0.182   8.696  21.405  0.00  0.00    +0.000 A 
ATOM     20  N   UNL     1       0.006   9.544  22.454  0.00  0.00    +0.000 N 
ATOM     21  N   UNL     1       1.292   9.546  22.845  0.00  0.00    +0.000 NA
ATOM     22  N   UNL     1       1.945   8.671  22.089  0.00  0.00    +0.000 NA
BRANCH  20  23
ATOM     23  C   UNL     1      -0.959  10.400  23.119  0.00  0.00    +0.000 C 
BRANCH  23  24
ATOM     24  C   UNL     1      -1.331  11.641  22.306  0.00  0.00    +0.000 C 
BRANCH  24  25
ATOM     25  C   UNL     1      -1.974  12.730  23.129  0.00  0.00    +0.000 A 
ATOM     26  C   UNL     1      -3.290  12.585  23.595  0.00  0.00    +0.000 A 
ATOM     27  C   UNL     1      -3.863  13.568  24.405  0.00  0.00    +0.000 A 
ATOM     28  C   UNL     1      -3.126  14.696  24.741  0.00  0.00    +0.000 A 
ATOM     29  F   UNL     1      -3.671  15.628  25.534  0.00  0.00    +0.000 F 
ATOM     30  C   UNL     1      -1.830  14.867  24.274  0.00  0.00    +0.000 A 
ATOM     31  C   UNL     1      -1.253  13.886  23.465  0.00  0.00    +0.000 A 
ENDBRANCH  24  25
ENDBRANCH  23  24
ENDBRANCH  20  23
ENDBRANCH  17  18
ENDBRANCH   1  17
TORSDOF 9
ENDMDL
MODEL 2
REMARK VINA RESULT:      -7.1      3.058      3.786
REMARK  Name = 
REMARK  12 active torsions:
REMARK  status: ('A' for Active; 'I' for Inactive)
REMARK    1  A    between atoms: C_1  and  C_2
REMARK    2  A    between atoms: C_2  and  C_3
REMARK    3  A    between atoms: C_2  and  C_4
REMARK    4  A    between atoms: C_2  and  O_5
REMARK    5  A    between atoms: O_5  and  C_6
REMARK    6  A    between atoms: N_11  and  C_12
REMARK    7  A    between atoms: C_12  and  S_14
REMARK    8  A    between atoms: S_14  and  C_15
REMARK    9  A    between atoms: C_15  and  C_16
REMARK   10  A    between atoms: N_18  and  C_19
REMARK   11  A    between atoms: C_19  and  C_20
REMARK   12  A    between atoms: C_20  and  C_21
REMARK                            x       y       z     vdW  Elec       q    Type
REMARK                         _______ _______ _______ _____ _____    ______ ____
ROOT
ATOM      1  S   UNL     1       2.303   7.131  18.836  0.00  0.00    +0.000 S 
ENDROOT
BRANCH   1   2
ATOM      2  C   UNL     1       3.199   5.614  18.740  0.00  0.00    +0.000 C 
ATOM      3  S   UNL     1       3.198   4.582  20.075  0.00  0.00    +0.000 S 
BRANCH   2   9
ATOM      4  C   UNL     1       6.846   4.619  14.632  0.00  0.00    +0.000 C 
ATOM      5  O   UNL     1       7.636   5.494  14.298  0.00  0.00    +0.000 OA
ATOM      6  N   UNL     1       6.051   4.729  15.753  0.00  0.00    +0.000 N 
ATOM      7  C   UNL     1       6.123   5.946  16.557  0.00  0.00    +0.000 C 
ATOM      8  C   UNL     1       4.720   6.452  16.905  0.00  0.00    +0.000 C 
ATOM      9  N   UNL     1       3.915   5.391  17.554  0.00  0.00    +0.000 N 
ATOM     10  C   UNL     1       3.836   4.165  16.719  0.00  0.00    +0.000 C 
ATOM     11  C   UNL     1       5.231   3.655  16.312  0.00  0.00    +0.000 C 
BRANCH   4  12
ATOM     12  O   UNL     1       6.646   3.465  13.936  0.00  0.00    +0.000 OA
BRANCH  12  14
ATOM     13  C   UNL     1       4.792   4.071  12.443  0.00  0.00    +0.000 C 
ATOM     14  C   UNL     1       6.226   3.536  12.547  0.00  0.00    +0.000 C 
ATOM     15  C   UNL     1       6.404   2.187  11.833  0.00  0.00    +0.000 C 
ATOM     16  C   UNL     1       7.162   4.549  11.869  0.00  0.00    +0.000 C 
ENDBRANCH  12  14
ENDBRANCH   4  12
ENDBRANCH   2   9
ENDBRANCH   1   2
BRANCH   1  17
ATOM     17  C   UNL     1       1.799   7.120  20.590  0.00  0.00    +0.000 C 
BRANCH  17  18
ATOM     18  C   UNL     1       1.209   8.429  20.972  0.00  0.00    +0.000 A 
ATOM     19  C   UNL     1       0.374   9.262  20.254  0.00  0.00    +0.000 A 
ATOM     20  N   UNL     1       0.131  10.305  21.096  0.00  0.00    +0.000 N 
ATOM     21  N   UNL     1       0.817  10.165  22.243  0.00  0.00    +0.000 NA
ATOM     22  N   UNL     1       1.476   9.015  22.182  0.00  0.00    +0.000 NA
BRANCH  20  23
ATOM     23  C   UNL     1      -0.703  11.473  20.883  0.00  0.00    +0.000 C 
BRANCH  23  24
ATOM     24  C   UNL     1      -0.888  11.825  19.405  0.00  0.00    +0.000 C 
BRANCH  24  25
ATOM     25  C   UNL     1      -2.294  11.600  18.904  0.00  0.00    +0.000 A 
ATOM     26  C   UNL     1      -2.555  10.615  17.939  0.00  0.00    +0.000 A 
ATOM     27  C   UNL     1      -3.864  10.369  17.519  0.00  0.00    +0.000 A 
ATOM     28  C   UNL     1      -4.908  11.112  18.056  0.00  0.00    +0.000 A 
ATOM     29  F   UNL     1      -6.165  10.862  17.666  0.00  0.00    +0.000 F 
ATOM     30  C   UNL     1      -4.668  12.104  18.997  0.00  0.00    +0.000 A 
ATOM     31  C   UNL     1      -3.360  12.352  19.420  0.00  0.00    +0.000 A 
ENDBRANCH  24  25
ENDBRANCH  23  24
ENDBRANCH  20  23
ENDBRANCH  17  18
ENDBRANCH   1  17
TORSDOF 9
ENDMDL
MODEL 3
REMARK VINA RESULT:      -7.0      1.020      1.448
REMARK  Name = 
REMARK  12 active torsions:
REMARK  status: ('A' for Active; 'I' for Inactive)
REMARK    1  A    between atoms: C_1  and  C_2
REMARK    2  A    between atoms: C_2  and  C_3
REMARK    3  A    between atoms: C_2  and  C_4
REMARK    4  A    between atoms: C_2  and  O_5
REMARK    5  A    between atoms: O_5  and  C_6
REMARK    6  A    between atoms: N_11  and  C_12
REMARK    7  A    between atoms: C_12  and  S_14
REMARK    8  A    between atoms: S_14  and  C_15
REMARK    9  A    between atoms: C_15  and  C_16
REMARK   10  A    between atoms: N_18  and  C_19
REMARK   11  A    between atoms: C_19  and  C_20
REMARK   12  A    between atoms: C_20  and  C_21
REMARK                            x       y       z     vdW  Elec       q    Type
REMARK                         _______ _______ _______ _____ _____    ______ ____
ROOT
ATOM      1  S   UNL     1       2.231   6.066  21.093  0.00  0.00    +0.000 S 
ENDROOT
BRANCH   1   2
ATOM      2  C   UNL     1       2.149   4.864  19.803  0.00  0.00    +0.000 C 
ATOM      3  S   UNL     1       0.883   3.750  19.808  0.00  0.00    +0.000 S 
BRANCH   2   9
ATOM      4  C   UNL     1       6.747   4.235  16.700  0.00  0.00    +0.000 C 
ATOM      5  O   UNL     1       7.806   4.723  17.079  0.00  0.00    +0.000 OA
ATOM      6  N   UNL     1       5.626   4.192  17.499  0.00  0.00    +0.000 N 
ATOM      7  C   UNL     1       5.682   4.777  18.836  0.00  0.00    +0.000 C 
ATOM      8  C   UNL     1       4.448   5.644  19.103  0.00  0.00    +0.000 C 
ATOM      9  N   UNL     1       3.199   4.881  18.872  0.00  0.00    +0.000 N 
ATOM     10  C   UNL     1       3.146   4.304  17.504  0.00  0.00    +0.000 C 
ATOM     11  C   UNL     1       4.396   3.464  17.185  0.00  0.00    +0.000 C 
BRANCH   4  12
ATOM     12  O   UNL     1       6.551   3.709  15.459  0.00  0.00    +0.000 OA
BRANCH  12  14
ATOM     13  C   UNL     1       7.539   4.997  13.615  0.00  0.00    +0.000 C 
ATOM     14  C   UNL     1       6.252   4.597  14.349  0.00  0.00    +0.000 C 
ATOM     15  C   UNL     1       5.433   5.815  14.804  0.00  0.00    +0.000 C 
ATOM     16  C   UNL     1       5.382   3.787  13.375  0.00  0.00    +0.000 C 
ENDBRANCH  12  14
ENDBRANCH   4  12
ENDBRANCH   2   9
ENDBRANCH   1   2
BRANCH   1  17
ATOM     17  C   UNL     1       1.439   7.494  20.279  0.00  0.00    +0.000 C 
BRANCH  17  18
ATOM     18  C   UNL     1       0.946   8.464  21.292  0.00  0.00    +0.000 A 
ATOM     19  C   UNL     1      -0.263   9.127  21.361  0.00  0.00    +0.000 A 
ATOM     20  N   UNL     1      -0.179   9.864  22.503  0.00  0.00    +0.000 N 
ATOM     21  N   UNL     1       1.027   9.720  23.080  0.00  0.00    +0.000 NA
ATOM     22  N   UNL     1       1.723   8.858  22.350  0.00  0.00    +0.000 NA
BRANCH  20  23
ATOM     23  C   UNL     1      -1.170  10.743  23.096  0.00  0.00    +0.000 C 
BRANCH  23  24
ATOM     24  C   UNL     1      -1.643  11.849  22.150  0.00  0.00    +0.000 C 
BRANCH  24  25
ATOM     25  C   UNL     1      -2.812  12.640  22.685  0.00  0.00    +0.000 A 
ATOM     26  C   UNL     1      -3.254  13.793  22.018  0.00  0.00    +0.000 A 
ATOM     27  C   UNL     1      -4.371  14.491  22.483  0.00  0.00    +0.000 A 
ATOM     28  C   UNL     1      -5.038  14.043  23.615  0.00  0.00    +0.000 A 
ATOM     29  F   UNL     1      -6.121  14.702  24.048  0.00  0.00    +0.000 F 
ATOM     30  C   UNL     1      -4.604  12.915  24.300  0.00  0.00    +0.000 A 
ATOM     31  C   UNL     1      -3.488  12.214  23.838  0.00  0.00    +0.000 A 
ENDBRANCH  24  25
ENDBRANCH  23  24
ENDBRANCH  20  23
ENDBRANCH  17  18
ENDBRANCH   1  17
TORSDOF 9
ENDMDL
MODEL 4
REMARK VINA RESULT:      -7.0      5.586     10.818
REMARK  Name = 
REMARK  12 active torsions:
REMARK  status: ('A' for Active; 'I' for Inactive)
REMARK    1  A    between atoms: C_1  and  C_2
REMARK    2  A    between atoms: C_2  and  C_3
REMARK    3  A    between atoms: C_2  and  C_4
REMARK    4  A    between atoms: C_2  and  O_5
REMARK    5  A    between atoms: O_5  and  C_6
REMARK    6  A    between atoms: N_11  and  C_12
REMARK    7  A    between atoms: C_12  and  S_14
REMARK    8  A    between atoms: S_14  and  C_15
REMARK    9  A    between atoms: C_15  and  C_16
REMARK   10  A    between atoms: N_18  and  C_19
REMARK   11  A    between atoms: C_19  and  C_20
REMARK   12  A    between atoms: C_20  and  C_21
REMARK                            x       y       z     vdW  Elec       q    Type
REMARK                         _______ _______ _______ _____ _____    ______ ____
ROOT
ATOM      1  S   UNL     1       1.846   8.251  19.097  0.00  0.00    +0.000 S 
ENDROOT
BRANCH   1   2
ATOM      2  C   UNL     1       1.222   9.449  20.234  0.00  0.00    +0.000 C 
ATOM      3  S   UNL     1       0.936   8.984  21.829  0.00  0.00    +0.000 S 
BRANCH   2   9
ATOM      4  C   UNL     1       0.367  14.838  19.054  0.00  0.00    +0.000 C 
ATOM      5  O   UNL     1      -0.638  15.398  19.475  0.00  0.00    +0.000 OA
ATOM      6  N   UNL     1       0.732  13.572  19.459  0.00  0.00    +0.000 N 
ATOM      7  C   UNL     1      -0.124  12.853  20.398  0.00  0.00    +0.000 C 
ATOM      8  C   UNL     1      -0.344  11.409  19.938  0.00  0.00    +0.000 C 
ATOM      9  N   UNL     1       0.946  10.719  19.705  0.00  0.00    +0.000 N 
ATOM     10  C   UNL     1       1.801  11.452  18.737  0.00  0.00    +0.000 C 
ATOM     11  C   UNL     1       2.005  12.923  19.147  0.00  0.00    +0.000 C 
BRANCH   4  12
ATOM     12  O   UNL     1       1.215  15.379  18.135  0.00  0.00    +0.000 OA
BRANCH  12  14
ATOM     13  C   UNL     1       2.373  16.594  19.930  0.00  0.00    +0.000 C 
ATOM     14  C   UNL     1       1.929  16.602  18.460  0.00  0.00    +0.000 C 
ATOM     15  C   UNL     1       1.107  17.849  18.101  0.00  0.00    +0.000 C 
ATOM     16  C   UNL     1       3.192  16.607  17.584  0.00  0.00    +0.000 C 
ENDBRANCH  12  14
ENDBRANCH   4  12
ENDBRANCH   2   9
ENDBRANCH   1   2
BRANCH   1  17
ATOM     17  C   UNL     1       1.707   6.729  20.095  0.00  0.00    +0.000 C 
BRANCH  17  18
ATOM     18  C   UNL     1       2.509   5.634  19.489  0.00  0.00    +0.000 A 
ATOM     19  C   UNL     1       2.713   5.324  18.160  0.00  0.00    +0.000 A 
ATOM     20  N   UNL     1       3.544   4.245  18.188  0.00  0.00    +0.000 N 
ATOM     21  N   UNL     1       3.796   3.866  19.453  0.00  0.00    +0.000 NA
ATOM     22  N   UNL     1       3.173   4.715  20.260  0.00  0.00    +0.000 NA
BRANCH  20  23
ATOM     23  C   UNL     1       4.115   3.504  17.078  0.00  0.00    +0.000 C 
BRANCH  23  24
ATOM     24  C   UNL     1       4.993   4.361  16.164  0.00  0.00    +0.000 C 
BRANCH  24  25
ATOM     25  C   UNL     1       5.957   5.248  16.914  0.00  0.00    +0.000 A 
ATOM     26  C   UNL     1       6.964   4.685  17.714  0.00  0.00    +0.000 A 
ATOM     27  C   UNL     1       7.890   5.505  18.361  0.00  0.00    +0.000 A 
ATOM     28  C   UNL     1       7.805   6.884  18.217  0.00  0.00    +0.000 A 
ATOM     29  F   UNL     1       8.706   7.668  18.822  0.00  0.00    +0.000 F 
ATOM     30  C   UNL     1       6.804   7.460  17.446  0.00  0.00    +0.000 A 
ATOM     31  C   UNL     1       5.876   6.643  16.796  0.00  0.00    +0.000 A 
ENDBRANCH  24  25
ENDBRANCH  23  24
ENDBRANCH  20  23
ENDBRANCH  17  18
ENDBRANCH   1  17
TORSDOF 9
ENDMDL
MODEL 5
REMARK VINA RESULT:      -6.9      6.339     12.053
REMARK  Name = 
REMARK  12 active torsions:
REMARK  status: ('A' for Active; 'I' for Inactive)
REMARK    1  A    between atoms: C_1  and  C_2
REMARK    2  A    between atoms: C_2  and  C_3
REMARK    3  A    between atoms: C_2  and  C_4
REMARK    4  A    between atoms: C_2  and  O_5
REMARK    5  A    between atoms: O_5  and  C_6
REMARK    6  A    between atoms: N_11  and  C_12
REMARK    7  A    between atoms: C_12  and  S_14
REMARK    8  A    between atoms: S_14  and  C_15
REMARK    9  A    between atoms: C_15  and  C_16
REMARK   10  A    between atoms: N_18  and  C_19
REMARK   11  A    between atoms: C_19  and  C_20
REMARK   12  A    between atoms: C_20  and  C_21
REMARK                            x       y       z     vdW  Elec       q    Type
REMARK                         _______ _______ _______ _____ _____    ______ ____
ROOT
ATOM      1  S   UNL     1      -1.190  11.651  18.216  0.00  0.00    +0.000 S 
ENDROOT
BRANCH   1   2
ATOM      2  C   UNL     1      -2.890  11.581  18.687  0.00  0.00    +0.000 C 
ATOM      3  S   UNL     1      -3.945  10.622  17.787  0.00  0.00    +0.000 S 
BRANCH   2   9
ATOM      4  C   UNL     1      -4.718  13.946  23.402  0.00  0.00    +0.000 C 
ATOM      5  O   UNL     1      -5.922  14.103  23.574  0.00  0.00    +0.000 OA
ATOM      6  N   UNL     1      -4.212  13.207  22.355  0.00  0.00    +0.000 N 
ATOM      7  C   UNL     1      -5.136  12.615  21.392  0.00  0.00    +0.000 C 
ATOM      8  C   UNL     1      -4.659  12.861  19.957  0.00  0.00    +0.000 C 
ATOM      9  N   UNL     1      -3.267  12.393  19.768  0.00  0.00    +0.000 N 
ATOM     10  C   UNL     1      -2.335  13.014  20.743  0.00  0.00    +0.000 C 
ATOM     11  C   UNL     1      -2.810  12.824  22.196  0.00  0.00    +0.000 C 
BRANCH   4  12
ATOM     12  O   UNL     1      -3.756  14.493  24.196  0.00  0.00    +0.000 OA
BRANCH  12  14
ATOM     13  C   UNL     1      -3.599  16.385  22.638  0.00  0.00    +0.000 C 
ATOM     14  C   UNL     1      -3.471  15.913  24.093  0.00  0.00    +0.000 C 
ATOM     15  C   UNL     1      -2.106  16.263  24.706  0.00  0.00    +0.000 C 
ATOM     16  C   UNL     1      -4.551  16.628  24.921  0.00  0.00    +0.000 C 
ENDBRANCH  12  14
ENDBRANCH   4  12
ENDBRANCH   2   9
ENDBRANCH   1   2
BRANCH   1  17
ATOM     17  C   UNL     1      -0.430  10.637  19.529  0.00  0.00    +0.000 C 
BRANCH  17  18
ATOM     18  C   UNL     1       0.674   9.810  18.976  0.00  0.00    +0.000 A 
ATOM     19  C   UNL     1       1.204   8.624  19.442  0.00  0.00    +0.000 A 
ATOM     20  N   UNL     1       2.171   8.306  18.536  0.00  0.00    +0.000 N 
ATOM     21  N   UNL     1       2.280   9.262  17.596  0.00  0.00    +0.000 NA
ATOM     22  N   UNL     1       1.362  10.186  17.851  0.00  0.00    +0.000 NA
BRANCH  20  23
ATOM     23  C   UNL     1       3.045   7.148  18.503  0.00  0.00    +0.000 C 
BRANCH  23  24
ATOM     24  C   UNL     1       2.347   5.876  18.017  0.00  0.00    +0.000 C 
BRANCH  24  25
ATOM     25  C   UNL     1       2.007   4.914  19.129  0.00  0.00    +0.000 A 
ATOM     26  C   UNL     1       1.174   3.811  18.885  0.00  0.00    +0.000 A 
ATOM     27  C   UNL     1       0.907   2.891  19.900  0.00  0.00    +0.000 A 
ATOM     28  C   UNL     1       1.464   3.077  21.159  0.00  0.00    +0.000 A 
ATOM     29  F   UNL     1       1.222   2.182  22.127  0.00  0.00    +0.000 F 
ATOM     30  C   UNL     1       2.275   4.172  21.426  0.00  0.00    +0.000 A 
ATOM     31  C   UNL     1       2.545   5.094  20.413  0.00  0.00    +0.000 A 
ENDBRANCH  24  25
ENDBRANCH  23  24
ENDBRANCH  20  23
ENDBRANCH  17  18
ENDBRANCH   1  17
TORSDOF 9
ENDMDL
MODEL 6
REMARK VINA RESULT:      -6.9      6.317     12.591
REMARK  Name = 
REMARK  12 active torsions:
REMARK  status: ('A' for Active; 'I' for Inactive)
REMARK    1  A    between atoms: C_1  and  C_2
REMARK    2  A    between atoms: C_2  and  C_3
REMARK    3  A    between atoms: C_2  and  C_4
REMARK    4  A    between atoms: C_2  and  O_5
REMARK    5  A    between atoms: O_5  and  C_6
REMARK    6  A    between atoms: N_11  and  C_12
REMARK    7  A    between atoms: C_12  and  S_14
REMARK    8  A    between atoms: S_14  and  C_15
REMARK    9  A    between atoms: C_15  and  C_16
REMARK   10  A    between atoms: N_18  and  C_19
REMARK   11  A    between atoms: C_19  and  C_20
REMARK   12  A    between atoms: C_20  and  C_21
REMARK                            x       y       z     vdW  Elec       q    Type
REMARK                         _______ _______ _______ _____ _____    ______ ____
ROOT
ATOM      1  S   UNL     1      -0.697  12.652  18.441  0.00  0.00    +0.000 S 
ENDROOT
BRANCH   1   2
ATOM      2  C   UNL     1      -0.880  13.783  19.784  0.00  0.00    +0.000 C 
ATOM      3  S   UNL     1       0.286  14.981  20.002  0.00  0.00    +0.000 S 
BRANCH   2   9
ATOM      4  C   UNL     1      -4.564  12.963  23.898  0.00  0.00    +0.000 C 
ATOM      5  O   UNL     1      -4.620  11.872  24.452  0.00  0.00    +0.000 OA
ATOM      6  N   UNL     1      -3.561  13.290  23.010  0.00  0.00    +0.000 N 
ATOM      7  C   UNL     1      -2.544  12.293  22.688  0.00  0.00    +0.000 C 
ATOM      8  C   UNL     1      -2.304  12.229  21.177  0.00  0.00    +0.000 C 
ATOM      9  N   UNL     1      -1.978  13.567  20.630  0.00  0.00    +0.000 N 
ATOM     10  C   UNL     1      -3.027  14.568  20.951  0.00  0.00    +0.000 C 
ATOM     11  C   UNL     1      -3.327  14.625  22.461  0.00  0.00    +0.000 C 
BRANCH   4  12
ATOM     12  O   UNL     1      -5.481  13.956  24.071  0.00  0.00    +0.000 OA
BRANCH  12  14
ATOM     13  C   UNL     1      -7.912  13.995  24.425  0.00  0.00    +0.000 C 
ATOM     14  C   UNL     1      -6.770  13.855  23.409  0.00  0.00    +0.000 C 
ATOM     15  C   UNL     1      -6.880  12.569  22.575  0.00  0.00    +0.000 C 
ATOM     16  C   UNL     1      -6.848  15.047  22.441  0.00  0.00    +0.000 C 
ENDBRANCH  12  14
ENDBRANCH   4  12
ENDBRANCH   2   9
ENDBRANCH   1   2
BRANCH   1  17
ATOM     17  C   UNL     1       1.055  12.180  18.629  0.00  0.00    +0.000 C 
BRANCH  17  18
ATOM     18  C   UNL     1       1.169  10.791  19.144  0.00  0.00    +0.000 A 
ATOM     19  C   UNL     1       1.788   9.692  18.584  0.00  0.00    +0.000 A 
ATOM     20  N   UNL     1       1.602   8.697  19.496  0.00  0.00    +0.000 N 
ATOM     21  N   UNL     1       0.862   9.129  20.532  0.00  0.00    +0.000 NA
ATOM     22  N   UNL     1       0.597  10.414  20.331  0.00  0.00    +0.000 NA
BRANCH  20  23
ATOM     23  C   UNL     1       2.059   7.320  19.450  0.00  0.00    +0.000 C 
BRANCH  23  24
ATOM     24  C   UNL     1       2.313   6.813  18.029  0.00  0.00    +0.000 C 
BRANCH  24  25
ATOM     25  C   UNL     1       2.699   5.355  17.970  0.00  0.00    +0.000 A 
ATOM     26  C   UNL     1       4.039   4.969  18.128  0.00  0.00    +0.000 A 
ATOM     27  C   UNL     1       4.387   3.616  18.130  0.00  0.00    +0.000 A 
ATOM     28  C   UNL     1       3.399   2.653  17.968  0.00  0.00    +0.000 A 
ATOM     29  F   UNL     1       3.731   1.356  17.991  0.00  0.00    +0.000 F 
ATOM     30  C   UNL     1       2.070   3.017  17.792  0.00  0.00    +0.000 A 
ATOM     31  C   UNL     1       1.719   4.368  17.789  0.00  0.00    +0.000 A 
ENDBRANCH  24  25
ENDBRANCH  23  24
ENDBRANCH  20  23
ENDBRANCH  17  18
ENDBRANCH   1  17
TORSDOF 9
ENDMDL
MODEL 7
REMARK VINA RESULT:      -6.9      6.322     10.417
REMARK  Name = 
REMARK  12 active torsions:
REMARK  status: ('A' for Active; 'I' for Inactive)
REMARK    1  A    between atoms: C_1  and  C_2
REMARK    2  A    between atoms: C_2  and  C_3
REMARK    3  A    between atoms: C_2  and  C_4
REMARK    4  A    between atoms: C_2  and  O_5
REMARK    5  A    between atoms: O_5  and  C_6
REMARK    6  A    between atoms: N_11  and  C_12
REMARK    7  A    between atoms: C_12  and  S_14
REMARK    8  A    between atoms: S_14  and  C_15
REMARK    9  A    between atoms: C_15  and  C_16
REMARK   10  A    between atoms: N_18  and  C_19
REMARK   11  A    between atoms: C_19  and  C_20
REMARK   12  A    between atoms: C_20  and  C_21
REMARK                            x       y       z     vdW  Elec       q    Type
REMARK                         _______ _______ _______ _____ _____    ______ ____
ROOT
ATOM      1  S   UNL     1      -0.612  12.996  22.257  0.00  0.00    +0.000 S 
ENDROOT
BRANCH   1   2
ATOM      2  C   UNL     1      -0.325  13.245  20.533  0.00  0.00    +0.000 C 
ATOM      3  S   UNL     1      -1.476  12.698  19.429  0.00  0.00    +0.000 S 
BRANCH   2   9
ATOM      4  C   UNL     1       4.115  15.745  18.252  0.00  0.00    +0.000 C 
ATOM      5  O   UNL     1       4.829  15.122  17.476  0.00  0.00    +0.000 OA
ATOM      6  N   UNL     1       2.909  15.254  18.703  0.00  0.00    +0.000 N 
ATOM      7  C   UNL     1       2.475  13.928  18.271  0.00  0.00    +0.000 C 
ATOM      8  C   UNL     1       1.957  13.111  19.458  0.00  0.00    +0.000 C 
ATOM      9  N   UNL     1       0.897  13.843  20.189  0.00  0.00    +0.000 N 
ATOM     10  C   UNL     1       1.355  15.184  20.637  0.00  0.00    +0.000 C 
ATOM     11  C   UNL     1       1.925  16.016  19.473  0.00  0.00    +0.000 C 
BRANCH   4  12
ATOM     12  O   UNL     1       4.433  16.965  18.770  0.00  0.00    +0.000 OA
BRANCH  12  14
ATOM     13  C   UNL     1       5.582  15.746  20.567  0.00  0.00    +0.000 C 
ATOM     14  C   UNL     1       5.473  17.059  19.779  0.00  0.00    +0.000 C 
ATOM     15  C   UNL     1       5.267  18.277  20.692  0.00  0.00    +0.000 C 
ATOM     16  C   UNL     1       6.792  17.265  19.016  0.00  0.00    +0.000 C 
ENDBRANCH  12  14
ENDBRANCH   4  12
ENDBRANCH   2   9
ENDBRANCH   1   2
BRANCH   1  17
ATOM     17  C   UNL     1      -1.325  11.316  22.245  0.00  0.00    +0.000 C 
BRANCH  17  18
ATOM     18  C   UNL     1      -0.266  10.302  22.000  0.00  0.00    +0.000 A 
ATOM     19  C   UNL     1      -0.100   9.442  20.933  0.00  0.00    +0.000 A 
ATOM     20  N   UNL     1       1.043   8.760  21.222  0.00  0.00    +0.000 N 
ATOM     21  N   UNL     1       1.530   9.126  22.421  0.00  0.00    +0.000 NA
ATOM     22  N   UNL     1       0.739  10.077  22.904  0.00  0.00    +0.000 NA
BRANCH  20  23
ATOM     23  C   UNL     1       1.717   7.739  20.443  0.00  0.00    +0.000 C 
BRANCH  23  24
ATOM     24  C   UNL     1       1.563   6.332  21.025  0.00  0.00    +0.000 C 
BRANCH  24  25
ATOM     25  C   UNL     1       1.701   5.237  19.995  0.00  0.00    +0.000 A 
ATOM     26  C   UNL     1       2.347   5.486  18.774  0.00  0.00    +0.000 A 
ATOM     27  C   UNL     1       2.524   4.457  17.848  0.00  0.00    +0.000 A 
ATOM     28  C   UNL     1       2.049   3.184  18.136  0.00  0.00    +0.000 A 
ATOM     29  F   UNL     1       2.237   2.193  17.255  0.00  0.00    +0.000 F 
ATOM     30  C   UNL     1       1.391   2.922  19.330  0.00  0.00    +0.000 A 
ATOM     31  C   UNL     1       1.212   3.949  20.260  0.00  0.00    +0.000 A 
ENDBRANCH  24  25
ENDBRANCH  23  24
ENDBRANCH  20  23
ENDBRANCH  17  18
ENDBRANCH   1  17
TORSDOF 9
ENDMDL
MODEL 8
REMARK VINA RESULT:      -6.8      7.499     11.697
REMARK  Name = 
REMARK  12 active torsions:
REMARK  status: ('A' for Active; 'I' for Inactive)
REMARK    1  A    between atoms: C_1  and  C_2
REMARK    2  A    between atoms: C_2  and  C_3
REMARK    3  A    between atoms: C_2  and  C_4
REMARK    4  A    between atoms: C_2  and  O_5
REMARK    5  A    between atoms: O_5  and  C_6
REMARK    6  A    between atoms: N_11  and  C_12
REMARK    7  A    between atoms: C_12  and  S_14
REMARK    8  A    between atoms: S_14  and  C_15
REMARK    9  A    between atoms: C_15  and  C_16
REMARK   10  A    between atoms: N_18  and  C_19
REMARK   11  A    between atoms: C_19  and  C_20
REMARK   12  A    between atoms: C_20  and  C_21
REMARK                            x       y       z     vdW  Elec       q    Type
REMARK                         _______ _______ _______ _____ _____    ______ ____
ROOT
ATOM      1  S   UNL     1       9.318  10.409  19.646  0.00  0.00    +0.000 S 
ENDROOT
BRANCH   1   2
ATOM      2  C   UNL     1      10.225  11.857  19.206  0.00  0.00    +0.000 C 
ATOM      3  S   UNL     1      11.819  11.691  18.683  0.00  0.00    +0.000 S 
BRANCH   2   9
ATOM      4  C   UNL     1       6.757  16.213  19.614  0.00  0.00    +0.000 C 
ATOM      5  O   UNL     1       6.363  16.771  18.596  0.00  0.00    +0.000 OA
ATOM      6  N   UNL     1       7.459  15.028  19.581  0.00  0.00    +0.000 N 
ATOM      7  C   UNL     1       7.778  14.426  18.289  0.00  0.00    +0.000 C 
ATOM      8  C   UNL     1       9.241  13.976  18.245  0.00  0.00    +0.000 C 
ATOM      9  N   UNL     1       9.561  13.081  19.381  0.00  0.00    +0.000 N 
ATOM     10  C   UNL     1       9.247  13.710  20.689  0.00  0.00    +0.000 C 
ATOM     11  C   UNL     1       7.793  14.216  20.751  0.00  0.00    +0.000 C 
BRANCH   4  12
ATOM     12  O   UNL     1       6.573  16.701  20.872  0.00  0.00    +0.000 OA
BRANCH  12  14
ATOM     13  C   UNL     1       4.335  15.689  20.860  0.00  0.00    +0.000 C 
ATOM     14  C   UNL     1       5.225  16.817  21.399  0.00  0.00    +0.000 C 
ATOM     15  C   UNL     1       4.632  18.210  21.135  0.00  0.00    +0.000 C 
ATOM     16  C   UNL     1       5.343  16.641  22.922  0.00  0.00    +0.000 C 
ENDBRANCH  12  14
ENDBRANCH   4  12
ENDBRANCH   2   9
ENDBRANCH   1   2
BRANCH   1  17
ATOM     17  C   UNL     1       8.579   9.966  18.038  0.00  0.00    +0.000 C 
BRANCH  17  18
ATOM     18  C   UNL     1       8.180   8.534  18.023  0.00  0.00    +0.000 A 
ATOM     19  C   UNL     1       7.411   7.844  17.108  0.00  0.00    +0.000 A 
ATOM     20  N   UNL     1       7.392   6.566  17.578  0.00  0.00    +0.000 N 
ATOM     21  N   UNL     1       8.055   6.474  18.745  0.00  0.00    +0.000 NA
ATOM     22  N   UNL     1       8.549   7.673  19.023  0.00  0.00    +0.000 NA
BRANCH  20  23
ATOM     23  C   UNL     1       6.752   5.394  17.009  0.00  0.00    +0.000 C 
BRANCH  23  24
ATOM     24  C   UNL     1       5.421   5.704  16.321  0.00  0.00    +0.000 C 
BRANCH  24  25
ATOM     25  C   UNL     1       4.228   5.098  17.019  0.00  0.00    +0.000 A 
ATOM     26  C   UNL     1       3.373   5.902  17.790  0.00  0.00    +0.000 A 
ATOM     27  C   UNL     1       2.238   5.350  18.388  0.00  0.00    +0.000 A 
ATOM     28  C   UNL     1       1.962   3.999  18.222  0.00  0.00    +0.000 A 
ATOM     29  F   UNL     1       0.863   3.477  18.780  0.00  0.00    +0.000 F 
ATOM     30  C   UNL     1       2.806   3.184  17.479  0.00  0.00    +0.000 A 
ATOM     31  C   UNL     1       3.942   3.732  16.880  0.00  0.00    +0.000 A 
ENDBRANCH  24  25
ENDBRANCH  23  24
ENDBRANCH  20  23
ENDBRANCH  17  18
ENDBRANCH   1  17
TORSDOF 9
ENDMDL
MODEL 9
REMARK VINA RESULT:      -6.8      5.574     10.624
REMARK  Name = 
REMARK  12 active torsions:
REMARK  status: ('A' for Active; 'I' for Inactive)
REMARK    1  A    between atoms: C_1  and  C_2
REMARK    2  A    between atoms: C_2  and  C_3
REMARK    3  A    between atoms: C_2  and  C_4
REMARK    4  A    between atoms: C_2  and  O_5
REMARK    5  A    between atoms: O_5  and  C_6
REMARK    6  A    between atoms: N_11  and  C_12
REMARK    7  A    between atoms: C_12  and  S_14
REMARK    8  A    between atoms: S_14  and  C_15
REMARK    9  A    between atoms: C_15  and  C_16
REMARK   10  A    between atoms: N_18  and  C_19
REMARK   11  A    between atoms: C_19  and  C_20
REMARK   12  A    between atoms: C_20  and  C_21
REMARK                            x       y       z     vdW  Elec       q    Type
REMARK                         _______ _______ _______ _____ _____    ______ ____
ROOT
ATOM      1  S   UNL     1       1.733   8.444  19.823  0.00  0.00    +0.000 S 
ENDROOT
BRANCH   1   2
ATOM      2  C   UNL     1       0.656   9.485  20.757  0.00  0.00    +0.000 C 
ATOM      3  S   UNL     1      -0.169   8.829  22.073  0.00  0.00    +0.000 S 
BRANCH   2   9
ATOM      4  C   UNL     1       0.765  14.953  19.637  0.00  0.00    +0.000 C 
ATOM      5  O   UNL     1       0.196  15.736  20.388  0.00  0.00    +0.000 OA
ATOM      6  N   UNL     1       0.936  13.622  19.951  0.00  0.00    +0.000 N 
ATOM      7  C   UNL     1       0.391  13.112  21.206  0.00  0.00    +0.000 C 
ATOM      8  C   UNL     1      -0.351  11.791  20.980  0.00  0.00    +0.000 C 
ATOM      9  N   UNL     1       0.514  10.802  20.295  0.00  0.00    +0.000 N 
ATOM     10  C   UNL     1       1.049  11.327  19.013  0.00  0.00    +0.000 C 
ATOM     11  C   UNL     1       1.762  12.679  19.197  0.00  0.00    +0.000 C 
BRANCH   4  12
ATOM     12  O   UNL     1       1.267  15.292  18.417  0.00  0.00    +0.000 OA
BRANCH  12  14
ATOM     13  C   UNL     1       3.579  15.452  17.602  0.00  0.00    +0.000 C 
ATOM     14  C   UNL     1       2.433  16.155  18.343  0.00  0.00    +0.000 C 
ATOM     15  C   UNL     1       2.853  16.660  19.732  0.00  0.00    +0.000 C 
ATOM     16  C   UNL     1       2.010  17.376  17.511  0.00  0.00    +0.000 C 
ENDBRANCH  12  14
ENDBRANCH   4  12
ENDBRANCH   2   9
ENDBRANCH   1   2
BRANCH   1  17
ATOM     17  C   UNL     1       1.331   6.812  20.533  0.00  0.00    +0.000 C 
BRANCH  17  18
ATOM     18  C   UNL     1       2.147   5.748  19.891  0.00  0.00    +0.000 A 
ATOM     19  C   UNL     1       2.256   5.406  18.558  0.00  0.00    +0.000 A 
ATOM     20  N   UNL     1       3.156   4.383  18.544  0.00  0.00    +0.000 N 
ATOM     21  N   UNL     1       3.540   4.065  19.793  0.00  0.00    +0.000 NA
ATOM     22  N   UNL     1       2.933   4.900  20.627  0.00  0.00    +0.000 NA
BRANCH  20  23
ATOM     23  C   UNL     1       3.676   3.641  17.410  0.00  0.00    +0.000 C 
BRANCH  23  24
ATOM     24  C   UNL     1       4.435   4.516  16.411  0.00  0.00    +0.000 C 
BRANCH  24  25
ATOM     25  C   UNL     1       5.591   5.266  17.025  0.00  0.00    +0.000 A 
ATOM     26  C   UNL     1       5.767   6.635  16.767  0.00  0.00    +0.000 A 
ATOM     27  C   UNL     1       6.804   7.340  17.381  0.00  0.00    +0.000 A 
ATOM     28  C   UNL     1       7.668   6.678  18.245  0.00  0.00    +0.000 A 
ATOM     29  F   UNL     1       8.650   7.360  18.848  0.00  0.00    +0.000 F 
ATOM     30  C   UNL     1       7.522   5.320  18.497  0.00  0.00    +0.000 A 
ATOM     31  C   UNL     1       6.486   4.612  17.885  0.00  0.00    +0.000 A 
ENDBRANCH  24  25
ENDBRANCH  23  24
ENDBRANCH  20  23
ENDBRANCH  17  18
ENDBRANCH   1  17
TORSDOF 9
ENDMDL
