MODEL 1
REMARK VINA RESULT:      -7.1      0.000      0.000
REMARK  Name = 
REMARK  6 active torsions:
REMARK  status: ('A' for Active; 'I' for Inactive)
REMARK    1  A    between atoms: C_1  and  O_2
REMARK    2  A    between atoms: O_2  and  C_3
REMARK    3  A    between atoms: C_8  and  C_9
REMARK    4  A    between atoms: C_12  and  S_13
REMARK    5  A    between atoms: N_14  and  C_15
REMARK    6  A    between atoms: C_15  and  C_16
REMARK                            x       y       z     vdW  Elec       q    Type
REMARK                         _______ _______ _______ _____ _____    ______ ____
ROOT
ATOM      1  C   UNL     1       4.987   4.892  18.774  0.00  0.00    +0.000 A 
ATOM      2  N   UNL     1       5.777   4.691  19.827  0.00  0.00    +0.000 NA
ATOM      3  N   UNL     1       6.896   5.464  19.726  0.00  0.00    +0.000 NA
ATOM      4  C   UNL     1       6.789   6.145  18.612  0.00  0.00    +0.000 A 
ATOM      5  N   UNL     1       5.600   5.853  17.986  0.00  0.00    +0.000 N 
ENDROOT
BRANCH   1  11
ATOM      6  C   UNL     1       2.427   4.482  18.766  0.00  0.00    +0.000 A 
ATOM      7  C   UNL     1       1.387   3.552  18.611  0.00  0.00    +0.000 A 
ATOM      8  C   UNL     1       1.643   2.228  18.257  0.00  0.00    +0.000 A 
ATOM      9  C   UNL     1       2.946   1.818  18.041  0.00  0.00    +0.000 A 
ATOM     10  C   UNL     1       3.988   2.734  18.188  0.00  0.00    +0.000 A 
ATOM     11  C   UNL     1       3.765   4.084  18.561  0.00  0.00    +0.000 A 
BRANCH   6  13
ATOM     12  C   UNL     1       1.820   5.907  20.573  0.00  0.00    +0.000 C 
ATOM     13  O   UNL     1       2.185   5.756  19.201  0.00  0.00    +0.000 OA
ENDBRANCH   6  13
ENDBRANCH   1  11
BRANCH   4  14
ATOM     14  S   UNL     1       8.003   7.207  18.012  0.00  0.00    +0.000 S 
ATOM     15  H   UNL     1       7.955   6.794  16.739  0.00  0.00    +0.000 HD
ENDBRANCH   4  14
BRANCH   5  16
ATOM     16  C   UNL     1       5.192   6.378  16.697  0.00  0.00    +0.000 C 
BRANCH  16  17
ATOM     17  C   UNL     1       5.596   5.498  15.564  0.00  0.00    +0.000 A 
ATOM     18  C   UNL     1       5.087   4.347  14.991  0.00  0.00    +0.000 A 
ATOM     19  C   UNL     1       6.052   3.902  14.054  0.00  0.00    +0.000 A 
ATOM     20  C   UNL     1       7.063   4.834  14.074  0.00  0.00    +0.000 A 
ATOM     21  O   UNL     1       6.793   5.807  14.980  0.00  0.00    +0.000 OA
ENDBRANCH  16  17
ENDBRANCH   5  16
TORSDOF 5
ENDMDL
MODEL 2
REMARK VINA RESULT:      -7.0      2.968      5.274
REMARK  Name = 
REMARK  6 active torsions:
REMARK  status: ('A' for Active; 'I' for Inactive)
REMARK    1  A    between atoms: C_1  and  O_2
REMARK    2  A    between atoms: O_2  and  C_3
REMARK    3  A    between atoms: C_8  and  C_9
REMARK    4  A    between atoms: C_12  and  S_13
REMARK    5  A    between atoms: N_14  and  C_15
REMARK    6  A    between atoms: C_15  and  C_16
REMARK                            x       y       z     vdW  Elec       q    Type
REMARK                         _______ _______ _______ _____ _____    ______ ____
ROOT
ATOM      1  C   UNL     1       3.981   3.597  17.978  0.00  0.00    +0.000 A 
ATOM      2  N   UNL     1       3.431   2.394  17.821  0.00  0.00    +0.000 NA
ATOM      3  N   UNL     1       2.528   2.160  18.818  0.00  0.00    +0.000 NA
ATOM      4  C   UNL     1       2.521   3.224  19.582  0.00  0.00    +0.000 A 
ATOM      5  N   UNL     1       3.388   4.171  19.091  0.00  0.00    +0.000 N 
ENDROOT
BRANCH   1  11
ATOM      6  C   UNL     1       6.376   4.472  17.516  0.00  0.00    +0.000 A 
ATOM      7  C   UNL     1       7.280   4.977  16.566  0.00  0.00    +0.000 A 
ATOM      8  C   UNL     1       6.935   5.082  15.220  0.00  0.00    +0.000 A 
ATOM      9  C   UNL     1       5.683   4.672  14.800  0.00  0.00    +0.000 A 
ATOM     10  C   UNL     1       4.778   4.165  15.733  0.00  0.00    +0.000 A 
ATOM     11  C   UNL     1       5.090   4.056  17.112  0.00  0.00    +0.000 A 
BRANCH   6  13
ATOM     12  C   UNL     1       7.362   5.595  19.368  0.00  0.00    +0.000 C 
ATOM     13  O   UNL     1       6.680   4.453  18.848  0.00  0.00    +0.000 OA
ENDBRANCH   6  13
ENDBRANCH   1  11
BRANCH   4  14
ATOM     14  S   UNL     1       1.590   3.367  21.023  0.00  0.00    +0.000 S 
ATOM     15  H   UNL     1       0.949   2.197  20.911  0.00  0.00    +0.000 HD
ENDBRANCH   4  14
BRANCH   5  16
ATOM     16  C   UNL     1       3.676   5.441  19.731  0.00  0.00    +0.000 C 
BRANCH  16  17
ATOM     17  C   UNL     1       3.057   6.596  19.021  0.00  0.00    +0.000 A 
ATOM     18  C   UNL     1       3.225   7.185  17.782  0.00  0.00    +0.000 A 
ATOM     19  C   UNL     1       2.451   8.372  17.792  0.00  0.00    +0.000 A 
ATOM     20  C   UNL     1       1.819   8.407  19.012  0.00  0.00    +0.000 A 
ATOM     21  O   UNL     1       2.174   7.333  19.761  0.00  0.00    +0.000 OA
ENDBRANCH  16  17
ENDBRANCH   5  16
TORSDOF 5
ENDMDL
MODEL 3
REMARK VINA RESULT:      -6.7      2.805      5.673
REMARK  Name = 
REMARK  6 active torsions:
REMARK  status: ('A' for Active; 'I' for Inactive)
REMARK    1  A    between atoms: C_1  and  O_2
REMARK    2  A    between atoms: O_2  and  C_3
REMARK    3  A    between atoms: C_8  and  C_9
REMARK    4  A    between atoms: C_12  and  S_13
REMARK    5  A    between atoms: N_14  and  C_15
REMARK    6  A    between atoms: C_15  and  C_16
REMARK                            x       y       z     vdW  Elec       q    Type
REMARK                         _______ _______ _______ _____ _____    ______ ____
ROOT
ATOM      1  C   UNL     1       4.359   4.448  18.220  0.00  0.00    +0.000 A 
ATOM      2  N   UNL     1       4.316   3.311  17.529  0.00  0.00    +0.000 NA
ATOM      3  N   UNL     1       3.167   2.632  17.817  0.00  0.00    +0.000 NA
ATOM      4  C   UNL     1       2.504   3.358  18.682  0.00  0.00    +0.000 A 
ATOM      5  N   UNL     1       3.184   4.521  18.951  0.00  0.00    +0.000 N 
ENDROOT
BRANCH   1  11
ATOM      6  C   UNL     1       5.983   6.163  17.153  0.00  0.00    +0.000 A 
ATOM      7  C   UNL     1       7.204   6.848  17.259  0.00  0.00    +0.000 A 
ATOM      8  C   UNL     1       8.018   6.712  18.383  0.00  0.00    +0.000 A 
ATOM      9  C   UNL     1       7.615   5.897  19.424  0.00  0.00    +0.000 A 
ATOM     10  C   UNL     1       6.401   5.214  19.333  0.00  0.00    +0.000 A 
ATOM     11  C   UNL     1       5.556   5.318  18.199  0.00  0.00    +0.000 A 
BRANCH   6  13
ATOM     12  C   UNL     1       5.668   5.433  14.910  0.00  0.00    +0.000 C 
ATOM     13  O   UNL     1       5.228   6.225  16.014  0.00  0.00    +0.000 OA
ENDBRANCH   6  13
ENDBRANCH   1  11
BRANCH   4  14
ATOM     14  S   UNL     1       1.018   2.874  19.406  0.00  0.00    +0.000 S 
ATOM     15  H   UNL     1       0.979   3.837  20.336  0.00  0.00    +0.000 HD
ENDBRANCH   4  14
BRANCH   5  16
ATOM     16  C   UNL     1       2.766   5.521  19.917  0.00  0.00    +0.000 C 
BRANCH  16  17
ATOM     17  C   UNL     1       2.347   6.799  19.276  0.00  0.00    +0.000 A 
ATOM     18  C   UNL     1       2.470   7.344  18.010  0.00  0.00    +0.000 A 
ATOM     19  C   UNL     1       2.016   8.683  18.102  0.00  0.00    +0.000 A 
ATOM     20  C   UNL     1       1.595   8.857  19.400  0.00  0.00    +0.000 A 
ATOM     21  O   UNL     1       1.786   7.720  20.116  0.00  0.00    +0.000 OA
ENDBRANCH  16  17
ENDBRANCH   5  16
TORSDOF 5
ENDMDL
MODEL 4
REMARK VINA RESULT:      -6.6      2.753      5.180
REMARK  Name = 
REMARK  6 active torsions:
REMARK  status: ('A' for Active; 'I' for Inactive)
REMARK    1  A    between atoms: C_1  and  O_2
REMARK    2  A    between atoms: O_2  and  C_3
REMARK    3  A    between atoms: C_8  and  C_9
REMARK    4  A    between atoms: C_12  and  S_13
REMARK    5  A    between atoms: N_14  and  C_15
REMARK    6  A    between atoms: C_15  and  C_16
REMARK                            x       y       z     vdW  Elec       q    Type
REMARK                         _______ _______ _______ _____ _____    ______ ____
ROOT
ATOM      1  C   UNL     1       4.410   3.434  18.883  0.00  0.00    +0.000 A 
ATOM      2  N   UNL     1       5.041   2.730  19.821  0.00  0.00    +0.000 NA
ATOM      3  N   UNL     1       4.159   2.343  20.788  0.00  0.00    +0.000 NA
ATOM      4  C   UNL     1       2.985   2.808  20.439  0.00  0.00    +0.000 A 
ATOM      5  N   UNL     1       3.071   3.474  19.240  0.00  0.00    +0.000 N 
ENDROOT
BRANCH   1  11
ATOM      6  C   UNL     1       6.140   5.089  17.890  0.00  0.00    +0.000 A 
ATOM      7  C   UNL     1       6.672   5.677  16.730  0.00  0.00    +0.000 A 
ATOM      8  C   UNL     1       6.241   5.297  15.460  0.00  0.00    +0.000 A 
ATOM      9  C   UNL     1       5.279   4.313  15.330  0.00  0.00    +0.000 A 
ATOM     10  C   UNL     1       4.745   3.718  16.474  0.00  0.00    +0.000 A 
ATOM     11  C   UNL     1       5.150   4.089  17.782  0.00  0.00    +0.000 A 
BRANCH   6  13
ATOM     12  C   UNL     1       7.874   5.840  19.336  0.00  0.00    +0.000 C 
ATOM     13  O   UNL     1       6.496   5.523  19.136  0.00  0.00    +0.000 OA
ENDBRANCH   6  13
ENDBRANCH   1  11
BRANCH   4  14
ATOM     14  S   UNL     1       1.561   2.641  21.393  0.00  0.00    +0.000 S 
ATOM     15  H   UNL     1       1.091   3.878  21.186  0.00  0.00    +0.000 HD
ENDBRANCH   4  14
BRANCH   5  16
ATOM     16  C   UNL     1       1.972   4.170  18.598  0.00  0.00    +0.000 C 
BRANCH  16  17
ATOM     17  C   UNL     1       2.097   5.652  18.694  0.00  0.00    +0.000 A 
ATOM     18  C   UNL     1       2.479   6.660  17.827  0.00  0.00    +0.000 A 
ATOM     19  C   UNL     1       2.557   7.846  18.597  0.00  0.00    +0.000 A 
ATOM     20  C   UNL     1       2.167   7.504  19.870  0.00  0.00    +0.000 A 
ATOM     21  O   UNL     1       1.881   6.179  19.937  0.00  0.00    +0.000 OA
ENDBRANCH  16  17
ENDBRANCH   5  16
TORSDOF 5
ENDMDL
MODEL 5
REMARK VINA RESULT:      -6.5      1.307      1.888
REMARK  Name = 
REMARK  6 active torsions:
REMARK  status: ('A' for Active; 'I' for Inactive)
REMARK    1  A    between atoms: C_1  and  O_2
REMARK    2  A    between atoms: O_2  and  C_3
REMARK    3  A    between atoms: C_8  and  C_9
REMARK    4  A    between atoms: C_12  and  S_13
REMARK    5  A    between atoms: N_14  and  C_15
REMARK    6  A    between atoms: C_15  and  C_16
REMARK                            x       y       z     vdW  Elec       q    Type
REMARK                         _______ _______ _______ _____ _____    ______ ____
ROOT
ATOM      1  C   UNL     1       5.086   4.904  18.895  0.00  0.00    +0.000 A 
ATOM      2  N   UNL     1       5.944   4.779  19.906  0.00  0.00    +0.000 NA
ATOM      3  N   UNL     1       7.024   5.589  19.705  0.00  0.00    +0.000 NA
ATOM      4  C   UNL     1       6.823   6.215  18.573  0.00  0.00    +0.000 A 
ATOM      5  N   UNL     1       5.613   5.852  18.033  0.00  0.00    +0.000 N 
ENDROOT
BRANCH   1  11
ATOM      6  C   UNL     1       3.787   2.671  19.104  0.00  0.00    +0.000 A 
ATOM      7  C   UNL     1       2.592   1.978  18.847  0.00  0.00    +0.000 A 
ATOM      8  C   UNL     1       1.490   2.617  18.281  0.00  0.00    +0.000 A 
ATOM      9  C   UNL     1       1.561   3.963  17.974  0.00  0.00    +0.000 A 
ATOM     10  C   UNL     1       2.742   4.663  18.228  0.00  0.00    +0.000 A 
ATOM     11  C   UNL     1       3.887   4.043  18.790  0.00  0.00    +0.000 A 
BRANCH   6  13
ATOM     12  C   UNL     1       4.829   1.521  20.908  0.00  0.00    +0.000 C 
ATOM     13  O   UNL     1       4.897   2.027  19.574  0.00  0.00    +0.000 OA
ENDBRANCH   6  13
ENDBRANCH   1  11
BRANCH   4  14
ATOM     14  S   UNL     1       7.957   7.295  17.857  0.00  0.00    +0.000 S 
ATOM     15  H   UNL     1       7.372   7.359  16.653  0.00  0.00    +0.000 HD
ENDBRANCH   4  14
BRANCH   5  16
ATOM     16  C   UNL     1       5.109   6.305  16.749  0.00  0.00    +0.000 C 
BRANCH  16  17
ATOM     17  C   UNL     1       5.533   5.425  15.623  0.00  0.00    +0.000 A 
ATOM     18  C   UNL     1       5.118   4.202  15.129  0.00  0.00    +0.000 A 
ATOM     19  C   UNL     1       6.062   3.824  14.143  0.00  0.00    +0.000 A 
ATOM     20  C   UNL     1       6.963   4.860  14.058  0.00  0.00    +0.000 A 
ATOM     21  O   UNL     1       6.647   5.837  14.946  0.00  0.00    +0.000 OA
ENDBRANCH  16  17
ENDBRANCH   5  16
TORSDOF 5
ENDMDL
MODEL 6
REMARK VINA RESULT:      -6.4      2.416      3.879
REMARK  Name = 
REMARK  6 active torsions:
REMARK  status: ('A' for Active; 'I' for Inactive)
REMARK    1  A    between atoms: C_1  and  O_2
REMARK    2  A    between atoms: O_2  and  C_3
REMARK    3  A    between atoms: C_8  and  C_9
REMARK    4  A    between atoms: C_12  and  S_13
REMARK    5  A    between atoms: N_14  and  C_15
REMARK    6  A    between atoms: C_15  and  C_16
REMARK                            x       y       z     vdW  Elec       q    Type
REMARK                         _______ _______ _______ _____ _____    ______ ____
ROOT
ATOM      1  C   UNL     1       4.438   4.721  19.205  0.00  0.00    +0.000 A 
ATOM      2  N   UNL     1       5.564   4.372  19.824  0.00  0.00    +0.000 NA
ATOM      3  N   UNL     1       6.613   5.092  19.328  0.00  0.00    +0.000 NA
ATOM      4  C   UNL     1       6.126   5.886  18.408  0.00  0.00    +0.000 A 
ATOM      5  N   UNL     1       4.765   5.723  18.305  0.00  0.00    +0.000 N 
ENDROOT
BRANCH   1  11
ATOM      6  C   UNL     1       2.681   2.863  18.784  0.00  0.00    +0.000 A 
ATOM      7  C   UNL     1       1.400   2.369  19.080  0.00  0.00    +0.000 A 
ATOM      8  C   UNL     1       0.585   2.985  20.028  0.00  0.00    +0.000 A 
ATOM      9  C   UNL     1       1.044   4.099  20.705  0.00  0.00    +0.000 A 
ATOM     10  C   UNL     1       2.317   4.598  20.422  0.00  0.00    +0.000 A 
ATOM     11  C   UNL     1       3.167   4.005  19.455  0.00  0.00    +0.000 A 
BRANCH   6  13
ATOM     12  C   UNL     1       4.089   1.076  18.089  0.00  0.00    +0.000 C 
ATOM     13  O   UNL     1       3.444   2.314  17.792  0.00  0.00    +0.000 OA
ENDBRANCH   6  13
ENDBRANCH   1  11
BRANCH   4  14
ATOM     14  S   UNL     1       7.085   6.938  17.439  0.00  0.00    +0.000 S 
ATOM     15  H   UNL     1       8.274   6.431  17.791  0.00  0.00    +0.000 HD
ENDBRANCH   4  14
BRANCH   5  16
ATOM     16  C   UNL     1       3.920   6.397  17.338  0.00  0.00    +0.000 C 
BRANCH  16  17
ATOM     17  C   UNL     1       3.079   7.463  17.953  0.00  0.00    +0.000 A 
ATOM     18  C   UNL     1       2.386   7.595  19.143  0.00  0.00    +0.000 A 
ATOM     19  C   UNL     1       1.632   8.790  19.038  0.00  0.00    +0.000 A 
ATOM     20  C   UNL     1       1.949   9.339  17.818  0.00  0.00    +0.000 A 
ATOM     21  O   UNL     1       2.829   8.545  17.157  0.00  0.00    +0.000 OA
ENDBRANCH  16  17
ENDBRANCH   5  16
TORSDOF 5
ENDMDL
MODEL 7
REMARK VINA RESULT:      -6.3      2.533      5.190
REMARK  Name = 
REMARK  6 active torsions:
REMARK  status: ('A' for Active; 'I' for Inactive)
REMARK    1  A    between atoms: C_1  and  O_2
REMARK    2  A    between atoms: O_2  and  C_3
REMARK    3  A    between atoms: C_8  and  C_9
REMARK    4  A    between atoms: C_12  and  S_13
REMARK    5  A    between atoms: N_14  and  C_15
REMARK    6  A    between atoms: C_15  and  C_16
REMARK                            x       y       z     vdW  Elec       q    Type
REMARK                         _______ _______ _______ _____ _____    ______ ____
ROOT
ATOM      1  C   UNL     1       4.135   6.447  17.980  0.00  0.00    +0.000 A 
ATOM      2  N   UNL     1       3.711   7.642  17.575  0.00  0.00    +0.000 NA
ATOM      3  N   UNL     1       2.710   8.085  18.390  0.00  0.00    +0.000 NA
ATOM      4  C   UNL     1       2.525   7.160  19.299  0.00  0.00    +0.000 A 
ATOM      5  N   UNL     1       3.408   6.123  19.114  0.00  0.00    +0.000 N 
ENDROOT
BRANCH   1  11
ATOM      6  C   UNL     1       6.296   5.047  17.678  0.00  0.00    +0.000 A 
ATOM      7  C   UNL     1       7.185   4.438  16.778  0.00  0.00    +0.000 A 
ATOM      8  C   UNL     1       6.943   4.439  15.405  0.00  0.00    +0.000 A 
ATOM      9  C   UNL     1       5.799   5.040  14.913  0.00  0.00    +0.000 A 
ATOM     10  C   UNL     1       4.905   5.645  15.798  0.00  0.00    +0.000 A 
ATOM     11  C   UNL     1       5.127   5.675  17.198  0.00  0.00    +0.000 A 
BRANCH   6  13
ATOM     12  C   UNL     1       7.796   5.773  19.376  0.00  0.00    +0.000 C 
ATOM     13  O   UNL     1       6.577   5.125  19.014  0.00  0.00    +0.000 OA
ENDBRANCH   6  13
ENDBRANCH   1  11
BRANCH   4  14
ATOM     14  S   UNL     1       1.304   7.233  20.511  0.00  0.00    +0.000 S 
ATOM     15  H   UNL     1       0.741   8.376  20.095  0.00  0.00    +0.000 HD
ENDBRANCH   4  14
BRANCH   5  16
ATOM     16  C   UNL     1       3.432   4.905  19.901  0.00  0.00    +0.000 C 
BRANCH  16  17
ATOM     17  C   UNL     1       2.525   3.853  19.359  0.00  0.00    +0.000 A 
ATOM     18  C   UNL     1       1.246   3.419  19.655  0.00  0.00    +0.000 A 
ATOM     19  C   UNL     1       1.030   2.249  18.885  0.00  0.00    +0.000 A 
ATOM     20  C   UNL     1       2.165   2.071  18.130  0.00  0.00    +0.000 A 
ATOM     21  O   UNL     1       3.073   3.041  18.406  0.00  0.00    +0.000 OA
ENDBRANCH  16  17
ENDBRANCH   5  16
TORSDOF 5
ENDMDL
MODEL 8
REMARK VINA RESULT:      -6.3      2.600      5.478
REMARK  Name = 
REMARK  6 active torsions:
REMARK  status: ('A' for Active; 'I' for Inactive)
REMARK    1  A    between atoms: C_1  and  O_2
REMARK    2  A    between atoms: O_2  and  C_3
REMARK    3  A    between atoms: C_8  and  C_9
REMARK    4  A    between atoms: C_12  and  S_13
REMARK    5  A    between atoms: N_14  and  C_15
REMARK    6  A    between atoms: C_15  and  C_16
REMARK                            x       y       z     vdW  Elec       q    Type
REMARK                         _______ _______ _______ _____ _____    ______ ____
ROOT
ATOM      1  C   UNL     1       4.708   3.846  18.806  0.00  0.00    +0.000 A 
ATOM      2  N   UNL     1       5.102   2.958  19.717  0.00  0.00    +0.000 NA
ATOM      3  N   UNL     1       4.022   2.286  20.212  0.00  0.00    +0.000 NA
ATOM      4  C   UNL     1       2.966   2.760  19.599  0.00  0.00    +0.000 A 
ATOM      5  N   UNL     1       3.333   3.718  18.685  0.00  0.00    +0.000 N 
ENDROOT
BRANCH   1  11
ATOM      6  C   UNL     1       5.899   5.023  16.827  0.00  0.00    +0.000 A 
ATOM      7  C   UNL     1       6.916   5.904  16.424  0.00  0.00    +0.000 A 
ATOM      8  C   UNL     1       7.707   6.574  17.356  0.00  0.00    +0.000 A 
ATOM      9  C   UNL     1       7.485   6.382  18.707  0.00  0.00    +0.000 A 
ATOM     10  C   UNL     1       6.474   5.513  19.120  0.00  0.00    +0.000 A 
ATOM     11  C   UNL     1       5.660   4.804  18.201  0.00  0.00    +0.000 A 
BRANCH   6  13
ATOM     12  C   UNL     1       5.740   4.183  14.607  0.00  0.00    +0.000 C 
ATOM     13  O   UNL     1       5.183   4.297  15.917  0.00  0.00    +0.000 OA
ENDBRANCH   6  13
ENDBRANCH   1  11
BRANCH   4  14
ATOM     14  S   UNL     1       1.352   2.273  19.948  0.00  0.00    +0.000 S 
ATOM     15  H   UNL     1       1.542   2.028  21.251  0.00  0.00    +0.000 HD
ENDBRANCH   4  14
BRANCH   5  16
ATOM     16  C   UNL     1       2.408   4.495  17.882  0.00  0.00    +0.000 C 
BRANCH  16  17
ATOM     17  C   UNL     1       2.300   5.910  18.338  0.00  0.00    +0.000 A 
ATOM     18  C   UNL     1       2.504   7.145  17.750  0.00  0.00    +0.000 A 
ATOM     19  C   UNL     1       2.408   8.106  18.786  0.00  0.00    +0.000 A 
ATOM     20  C   UNL     1       2.100   7.407  19.930  0.00  0.00    +0.000 A 
ATOM     21  O   UNL     1       2.026   6.078  19.667  0.00  0.00    +0.000 OA
ENDBRANCH  16  17
ENDBRANCH   5  16
TORSDOF 5
ENDMDL
MODEL 9
REMARK VINA RESULT:      -6.2      2.291      5.135
REMARK  Name = 
REMARK  6 active torsions:
REMARK  status: ('A' for Active; 'I' for Inactive)
REMARK    1  A    between atoms: C_1  and  O_2
REMARK    2  A    between atoms: O_2  and  C_3
REMARK    3  A    between atoms: C_8  and  C_9
REMARK    4  A    between atoms: C_12  and  S_13
REMARK    5  A    between atoms: N_14  and  C_15
REMARK    6  A    between atoms: C_15  and  C_16
REMARK                            x       y       z     vdW  Elec       q    Type
REMARK                         _______ _______ _______ _____ _____    ______ ____
ROOT
ATOM      1  C   UNL     1       4.265   6.388  17.722  0.00  0.00    +0.000 A 
ATOM      2  N   UNL     1       3.675   7.528  17.367  0.00  0.00    +0.000 NA
ATOM      3  N   UNL     1       2.714   7.861  18.277  0.00  0.00    +0.000 NA
ATOM      4  C   UNL     1       2.720   6.926  19.195  0.00  0.00    +0.000 A 
ATOM      5  N   UNL     1       3.690   5.991  18.919  0.00  0.00    +0.000 N 
ENDROOT
BRANCH   1  11
ATOM      6  C   UNL     1       6.662   5.786  16.941  0.00  0.00    +0.000 A 
ATOM      7  C   UNL     1       7.459   5.177  15.959  0.00  0.00    +0.000 A 
ATOM      8  C   UNL     1       6.892   4.507  14.876  0.00  0.00    +0.000 A 
ATOM      9  C   UNL     1       5.516   4.426  14.766  0.00  0.00    +0.000 A 
ATOM     10  C   UNL     1       4.713   5.025  15.738  0.00  0.00    +0.000 A 
ATOM     11  C   UNL     1       5.256   5.726  16.845  0.00  0.00    +0.000 A 
BRANCH   6  13
ATOM     12  C   UNL     1       7.693   5.792  19.086  0.00  0.00    +0.000 C 
ATOM     13  O   UNL     1       7.216   6.520  17.954  0.00  0.00    +0.000 OA
ENDBRANCH   6  13
ENDBRANCH   1  11
BRANCH   4  14
ATOM     14  S   UNL     1       1.621   6.870  20.518  0.00  0.00    +0.000 S 
ATOM     15  H   UNL     1       2.285   7.724  21.308  0.00  0.00    +0.000 HD
ENDBRANCH   4  14
BRANCH   5  16
ATOM     16  C   UNL     1       3.923   4.786  19.693  0.00  0.00    +0.000 C 
BRANCH  16  17
ATOM     17  C   UNL     1       3.273   3.586  19.095  0.00  0.00    +0.000 A 
ATOM     18  C   UNL     1       3.656   2.620  18.182  0.00  0.00    +0.000 A 
ATOM     19  C   UNL     1       2.500   1.851  17.900  0.00  0.00    +0.000 A 
ATOM     20  C   UNL     1       1.499   2.358  18.694  0.00  0.00    +0.000 A 
ATOM     21  O   UNL     1       1.959   3.404  19.426  0.00  0.00    +0.000 OA
ENDBRANCH  16  17
ENDBRANCH   5  16
TORSDOF 5
ENDMDL
