MODEL 1
REMARK VINA RESULT:      -8.7      0.000      0.000
REMARK  Name = 
REMARK  5 active torsions:
REMARK  status: ('A' for Active; 'I' for Inactive)
REMARK    1  A    between atoms: C_1  and  C_2
REMARK    2  A    between atoms: C_2  and  C_3
REMARK    3  A    between atoms: C_12  and  C_13
REMARK    4  A    between atoms: N_15  and  C_16
REMARK    5  A    between atoms: C_19  and  C_20
REMARK                            x       y       z     vdW  Elec       q    Type
REMARK                         _______ _______ _______ _____ _____    ______ ____
ROOT
ATOM      1  C   UNL     1       2.597   6.050  19.425  0.00  0.00    +0.000 C 
ATOM      2  O   UNL     1       2.332   5.724  20.579  0.00  0.00    +0.000 OA
ATOM      3  N   UNL     1       2.351   7.307  18.893  0.00  0.00    +0.000 N 
ATOM      4  H   UNL     1       2.409   7.399  17.887  0.00  0.00    +0.000 HD
ENDROOT
BRANCH   1  14
ATOM      5  C   UNL     1       2.557   3.914  17.962  0.00  0.00    +0.000 A 
ATOM      6  N   UNL     1       3.410   3.343  17.043  0.00  0.00    +0.000 NA
ATOM      7  C   UNL     1       4.450   4.141  16.972  0.00  0.00    +0.000 A 
ATOM      8  C   UNL     1       5.612   4.089  16.150  0.00  0.00    +0.000 A 
ATOM      9  C   UNL     1       6.563   5.036  16.269  0.00  0.00    +0.000 A 
ATOM     10  C   UNL     1       6.432   6.113  17.234  0.00  0.00    +0.000 A 
ATOM     11 CL   UNL     1       7.683   7.282  17.353  0.00  0.00    +0.000 Cl
ATOM     12  C   UNL     1       5.335   6.177  18.004  0.00  0.00    +0.000 A 
ATOM     13  N   UNL     1       4.338   5.204  17.862  0.00  0.00    +0.000 N 
ATOM     14  C   UNL     1       3.114   5.068  18.503  0.00  0.00    +0.000 A 
BRANCH   5  16
ATOM     15  C   UNL     1       1.083   2.592  19.489  0.00  0.00    +0.000 C 
ATOM     16  C   UNL     1       1.209   3.302  18.149  0.00  0.00    +0.000 C 
ENDBRANCH   5  16
ENDBRANCH   1  14
BRANCH   3  17
ATOM     17  C   UNL     1       1.711   8.361  19.587  0.00  0.00    +0.000 A 
ATOM     18  C   UNL     1       1.389   8.286  20.940  0.00  0.00    +0.000 A 
ATOM     19  C   UNL     1       0.556   9.237  21.535  0.00  0.00    +0.000 A 
ATOM     20  C   UNL     1       0.050  10.325  20.813  0.00  0.00    +0.000 A 
ATOM     21  C   UNL     1       0.506  10.467  19.488  0.00  0.00    +0.000 A 
ATOM     22  C   UNL     1       1.323   9.499  18.879  0.00  0.00    +0.000 A 
BRANCH  20  23
ATOM     23  C   UNL     1      -0.976  11.218  21.407  0.00  0.00    +0.000 A 
ATOM     24  C   UNL     1      -1.275  11.194  22.783  0.00  0.00    +0.000 A 
ATOM     25  C   UNL     1      -2.316  11.956  23.322  0.00  0.00    +0.000 A 
ATOM     26  C   UNL     1      -3.073  12.782  22.499  0.00  0.00    +0.000 A 
ATOM     27  C   UNL     1      -2.789  12.844  21.139  0.00  0.00    +0.000 A 
ATOM     28  C   UNL     1      -1.758  12.067  20.602  0.00  0.00    +0.000 A 
ENDBRANCH  20  23
ENDBRANCH   3  17
TORSDOF 4
ENDMDL
MODEL 2
REMARK VINA RESULT:      -8.4      1.049      1.057
REMARK  Name = 
REMARK  5 active torsions:
REMARK  status: ('A' for Active; 'I' for Inactive)
REMARK    1  A    between atoms: C_1  and  C_2
REMARK    2  A    between atoms: C_2  and  C_3
REMARK    3  A    between atoms: C_12  and  C_13
REMARK    4  A    between atoms: N_15  and  C_16
REMARK    5  A    between atoms: C_19  and  C_20
REMARK                            x       y       z     vdW  Elec       q    Type
REMARK                         _______ _______ _______ _____ _____    ______ ____
ROOT
ATOM      1  C   UNL     1       2.484   7.051  18.306  0.00  0.00    +0.000 C 
ATOM      2  O   UNL     1       2.226   7.892  17.448  0.00  0.00    +0.000 OA
ATOM      3  N   UNL     1       2.150   7.177  19.646  0.00  0.00    +0.000 N 
ATOM      4  H   UNL     1       2.593   6.537  20.292  0.00  0.00    +0.000 HD
ENDROOT
BRANCH   1  14
ATOM      5  C   UNL     1       2.902   4.566  17.709  0.00  0.00    +0.000 A 
ATOM      6  N   UNL     1       3.996   3.827  17.320  0.00  0.00    +0.000 NA
ATOM      7  C   UNL     1       5.004   4.667  17.278  0.00  0.00    +0.000 A 
ATOM      8  C   UNL     1       6.360   4.480  16.886  0.00  0.00    +0.000 A 
ATOM      9  C   UNL     1       7.224   5.511  16.938  0.00  0.00    +0.000 A 
ATOM     10  C   UNL     1       6.801   6.821  17.400  0.00  0.00    +0.000 A 
ATOM     11 CL   UNL     1       7.950   8.096  17.462  0.00  0.00    +0.000 Cl
ATOM     12  C   UNL     1       5.522   7.010  17.760  0.00  0.00    +0.000 A 
ATOM     13  N   UNL     1       4.621   5.941  17.683  0.00  0.00    +0.000 N 
ATOM     14  C   UNL     1       3.261   5.887  17.959  0.00  0.00    +0.000 A 
BRANCH   5  16
ATOM     15  C   UNL     1       1.572   2.593  18.475  0.00  0.00    +0.000 C 
ATOM     16  C   UNL     1       1.565   3.905  17.706  0.00  0.00    +0.000 C 
ENDBRANCH   5  16
ENDBRANCH   1  14
BRANCH   3  17
ATOM     17  C   UNL     1       1.522   8.312  20.214  0.00  0.00    +0.000 A 
ATOM     18  C   UNL     1       1.163   8.380  21.558  0.00  0.00    +0.000 A 
ATOM     19  C   UNL     1       0.342   9.407  22.032  0.00  0.00    +0.000 A 
ATOM     20  C   UNL     1      -0.112  10.431  21.190  0.00  0.00    +0.000 A 
ATOM     21  C   UNL     1       0.383  10.429  19.872  0.00  0.00    +0.000 A 
ATOM     22  C   UNL     1       1.187   9.384  19.386  0.00  0.00    +0.000 A 
BRANCH  20  23
ATOM     23  C   UNL     1      -1.127  11.406  21.663  0.00  0.00    +0.000 A 
ATOM     24  C   UNL     1      -1.571  11.428  23.000  0.00  0.00    +0.000 A 
ATOM     25  C   UNL     1      -2.605  12.272  23.417  0.00  0.00    +0.000 A 
ATOM     26  C   UNL     1      -3.208  13.135  22.509  0.00  0.00    +0.000 A 
ATOM     27  C   UNL     1      -2.779  13.152  21.187  0.00  0.00    +0.000 A 
ATOM     28  C   UNL     1      -1.756  12.294  20.770  0.00  0.00    +0.000 A 
ENDBRANCH  20  23
ENDBRANCH   3  17
TORSDOF 4
ENDMDL
MODEL 3
REMARK VINA RESULT:      -8.4      2.121      3.332
REMARK  Name = 
REMARK  5 active torsions:
REMARK  status: ('A' for Active; 'I' for Inactive)
REMARK    1  A    between atoms: C_1  and  C_2
REMARK    2  A    between atoms: C_2  and  C_3
REMARK    3  A    between atoms: C_12  and  C_13
REMARK    4  A    between atoms: N_15  and  C_16
REMARK    5  A    between atoms: C_19  and  C_20
REMARK                            x       y       z     vdW  Elec       q    Type
REMARK                         _______ _______ _______ _____ _____    ______ ____
ROOT
ATOM      1  C   UNL     1       2.959   7.376  18.036  0.00  0.00    +0.000 C 
ATOM      2  O   UNL     1       2.896   8.331  17.265  0.00  0.00    +0.000 OA
ATOM      3  N   UNL     1       2.383   7.352  19.297  0.00  0.00    +0.000 N 
ATOM      4  H   UNL     1       2.675   6.611  19.921  0.00  0.00    +0.000 HD
ENDROOT
BRANCH   1  14
ATOM      5  C   UNL     1       5.072   6.085  17.278  0.00  0.00    +0.000 A 
ATOM      6  N   UNL     1       5.409   4.757  17.143  0.00  0.00    +0.000 NA
ATOM      7  C   UNL     1       4.345   4.076  17.501  0.00  0.00    +0.000 A 
ATOM      8  C   UNL     1       4.129   2.673  17.618  0.00  0.00    +0.000 A 
ATOM      9  C   UNL     1       2.926   2.207  18.004  0.00  0.00    +0.000 A 
ATOM     10  C   UNL     1       1.829   3.114  18.295  0.00  0.00    +0.000 A 
ATOM     11 CL   UNL     1       0.312   2.462  18.766  0.00  0.00    +0.000 Cl
ATOM     12  C   UNL     1       2.026   4.437  18.199  0.00  0.00    +0.000 A 
ATOM     13  N   UNL     1       3.285   4.919  17.821  0.00  0.00    +0.000 N 
ATOM     14  C   UNL     1       3.748   6.221  17.683  0.00  0.00    +0.000 A 
BRANCH   5  16
ATOM     15  C   UNL     1       7.403   6.777  17.859  0.00  0.00    +0.000 C 
ATOM     16  C   UNL     1       6.139   7.108  17.079  0.00  0.00    +0.000 C 
ENDBRANCH   5  16
ENDBRANCH   1  14
BRANCH   3  17
ATOM     17  C   UNL     1       1.699   8.441  19.888  0.00  0.00    +0.000 A 
ATOM     18  C   UNL     1       1.464   8.528  21.258  0.00  0.00    +0.000 A 
ATOM     19  C   UNL     1       0.590   9.488  21.778  0.00  0.00    +0.000 A 
ATOM     20  C   UNL     1      -0.045  10.425  20.954  0.00  0.00    +0.000 A 
ATOM     21  C   UNL     1       0.320  10.418  19.594  0.00  0.00    +0.000 A 
ATOM     22  C   UNL     1       1.178   9.439  19.064  0.00  0.00    +0.000 A 
BRANCH  20  23
ATOM     23  C   UNL     1      -1.106  11.314  21.493  0.00  0.00    +0.000 A 
ATOM     24  C   UNL     1      -1.477  11.287  22.852  0.00  0.00    +0.000 A 
ATOM     25  C   UNL     1      -2.550  12.043  23.335  0.00  0.00    +0.000 A 
ATOM     26  C   UNL     1      -3.266  12.866  22.473  0.00  0.00    +0.000 A 
ATOM     27  C   UNL     1      -2.911  12.930  21.131  0.00  0.00    +0.000 A 
ATOM     28  C   UNL     1      -1.848  12.159  20.648  0.00  0.00    +0.000 A 
ENDBRANCH  20  23
ENDBRANCH   3  17
TORSDOF 4
ENDMDL
MODEL 4
REMARK VINA RESULT:      -8.4      3.798      9.595
REMARK  Name = 
REMARK  5 active torsions:
REMARK  status: ('A' for Active; 'I' for Inactive)
REMARK    1  A    between atoms: C_1  and  C_2
REMARK    2  A    between atoms: C_2  and  C_3
REMARK    3  A    between atoms: C_12  and  C_13
REMARK    4  A    between atoms: N_15  and  C_16
REMARK    5  A    between atoms: C_19  and  C_20
REMARK                            x       y       z     vdW  Elec       q    Type
REMARK                         _______ _______ _______ _____ _____    ______ ____
ROOT
ATOM      1  C   UNL     1      -0.056  11.197  19.880  0.00  0.00    +0.000 C 
ATOM      2  O   UNL     1       0.784  11.934  19.369  0.00  0.00    +0.000 OA
ATOM      3  N   UNL     1       0.062   9.817  19.960  0.00  0.00    +0.000 N 
ATOM      4  H   UNL     1      -0.772   9.299  20.203  0.00  0.00    +0.000 HD
ENDROOT
BRANCH   1  14
ATOM      5  C   UNL     1      -1.636  12.415  21.530  0.00  0.00    +0.000 A 
ATOM      6  N   UNL     1      -2.945  12.842  21.494  0.00  0.00    +0.000 NA
ATOM      7  C   UNL     1      -3.404  12.501  20.313  0.00  0.00    +0.000 A 
ATOM      8  C   UNL     1      -4.667  12.736  19.698  0.00  0.00    +0.000 A 
ATOM      9  C   UNL     1      -4.908  12.270  18.457  0.00  0.00    +0.000 A 
ATOM     10  C   UNL     1      -3.902  11.517  17.730  0.00  0.00    +0.000 A 
ATOM     11 CL   UNL     1      -4.271  10.933  16.158  0.00  0.00    +0.000 Cl
ATOM     12  C   UNL     1      -2.705  11.301  18.297  0.00  0.00    +0.000 A 
ATOM     13  N   UNL     1      -2.450  11.806  19.577  0.00  0.00    +0.000 N 
ATOM     14  C   UNL     1      -1.301  11.750  20.356  0.00  0.00    +0.000 A 
BRANCH   5  16
ATOM     15  C   UNL     1      -1.394  13.966  23.476  0.00  0.00    +0.000 C 
ATOM     16  C   UNL     1      -0.802  12.795  22.707  0.00  0.00    +0.000 C 
ENDBRANCH   5  16
ENDBRANCH   1  14
BRANCH   3  17
ATOM     17  C   UNL     1       1.134   9.070  19.416  0.00  0.00    +0.000 A 
ATOM     18  C   UNL     1       1.665   9.326  18.154  0.00  0.00    +0.000 A 
ATOM     19  C   UNL     1       2.556   8.431  17.555  0.00  0.00    +0.000 A 
ATOM     20  C   UNL     1       2.985   7.272  18.212  0.00  0.00    +0.000 A 
ATOM     21  C   UNL     1       2.556   7.107  19.543  0.00  0.00    +0.000 A 
ATOM     22  C   UNL     1       1.641   7.990  20.139  0.00  0.00    +0.000 A 
BRANCH  20  23
ATOM     23  C   UNL     1       3.782   6.244  17.494  0.00  0.00    +0.000 A 
ATOM     24  C   UNL     1       4.786   6.594  16.570  0.00  0.00    +0.000 A 
ATOM     25  C   UNL     1       5.458   5.628  15.814  0.00  0.00    +0.000 A 
ATOM     26  C   UNL     1       5.158   4.281  15.981  0.00  0.00    +0.000 A 
ATOM     27  C   UNL     1       4.186   3.902  16.901  0.00  0.00    +0.000 A 
ATOM     28  C   UNL     1       3.505   4.872  17.642  0.00  0.00    +0.000 A 
ENDBRANCH  20  23
ENDBRANCH   3  17
TORSDOF 4
ENDMDL
MODEL 5
REMARK VINA RESULT:      -8.3      1.012      1.407
REMARK  Name = 
REMARK  5 active torsions:
REMARK  status: ('A' for Active; 'I' for Inactive)
REMARK    1  A    between atoms: C_1  and  C_2
REMARK    2  A    between atoms: C_2  and  C_3
REMARK    3  A    between atoms: C_12  and  C_13
REMARK    4  A    between atoms: N_15  and  C_16
REMARK    5  A    between atoms: C_19  and  C_20
REMARK                            x       y       z     vdW  Elec       q    Type
REMARK                         _______ _______ _______ _____ _____    ______ ____
ROOT
ATOM      1  C   UNL     1       2.748   5.883  19.291  0.00  0.00    +0.000 C 
ATOM      2  O   UNL     1       2.325   5.500  20.379  0.00  0.00    +0.000 OA
ATOM      3  N   UNL     1       2.527   7.149  18.770  0.00  0.00    +0.000 N 
ATOM      4  H   UNL     1       2.734   7.284  17.789  0.00  0.00    +0.000 HD
ENDROOT
BRANCH   1  14
ATOM      5  C   UNL     1       3.083   3.728  17.895  0.00  0.00    +0.000 A 
ATOM      6  N   UNL     1       4.056   3.261  17.039  0.00  0.00    +0.000 NA
ATOM      7  C   UNL     1       4.979   4.194  16.996  0.00  0.00    +0.000 A 
ATOM      8  C   UNL     1       6.180   4.285  16.237  0.00  0.00    +0.000 A 
ATOM      9  C   UNL     1       6.982   5.358  16.374  0.00  0.00    +0.000 A 
ATOM     10  C   UNL     1       6.652   6.429  17.298  0.00  0.00    +0.000 A 
ATOM     11 CL   UNL     1       7.721   7.764  17.444  0.00  0.00    +0.000 Cl
ATOM     12  C   UNL     1       5.516   6.357  18.008  0.00  0.00    +0.000 A 
ATOM     13  N   UNL     1       4.672   5.252  17.846  0.00  0.00    +0.000 N 
ATOM     14  C   UNL     1       3.445   4.961  18.428  0.00  0.00    +0.000 A 
BRANCH   5  16
ATOM     15  C   UNL     1       1.808   2.102  19.303  0.00  0.00    +0.000 C 
ATOM     16  C   UNL     1       1.825   2.939  18.032  0.00  0.00    +0.000 C 
ENDBRANCH   5  16
ENDBRANCH   1  14
BRANCH   3  17
ATOM     17  C   UNL     1       1.740   8.147  19.392  0.00  0.00    +0.000 A 
ATOM     18  C   UNL     1       1.239   9.250  18.703  0.00  0.00    +0.000 A 
ATOM     19  C   UNL     1       0.669  10.327  19.387  0.00  0.00    +0.000 A 
ATOM     20  C   UNL     1       0.535  10.323  20.781  0.00  0.00    +0.000 A 
ATOM     21  C   UNL     1       0.908   9.140  21.446  0.00  0.00    +0.000 A 
ATOM     22  C   UNL     1       1.505   8.066  20.765  0.00  0.00    +0.000 A 
BRANCH  20  23
ATOM     23  C   UNL     1       0.100  11.545  21.504  0.00  0.00    +0.000 A 
ATOM     24  C   UNL     1      -0.905  11.506  22.490  0.00  0.00    +0.000 A 
ATOM     25  C   UNL     1      -1.391  12.672  23.091  0.00  0.00    +0.000 A 
ATOM     26  C   UNL     1      -0.866  13.910  22.734  0.00  0.00    +0.000 A 
ATOM     27  C   UNL     1       0.141  13.979  21.778  0.00  0.00    +0.000 A 
ATOM     28  C   UNL     1       0.612  12.812  21.168  0.00  0.00    +0.000 A 
ENDBRANCH  20  23
ENDBRANCH   3  17
TORSDOF 4
ENDMDL
MODEL 6
REMARK VINA RESULT:      -8.3      1.694      2.010
REMARK  Name = 
REMARK  5 active torsions:
REMARK  status: ('A' for Active; 'I' for Inactive)
REMARK    1  A    between atoms: C_1  and  C_2
REMARK    2  A    between atoms: C_2  and  C_3
REMARK    3  A    between atoms: C_12  and  C_13
REMARK    4  A    between atoms: N_15  and  C_16
REMARK    5  A    between atoms: C_19  and  C_20
REMARK                            x       y       z     vdW  Elec       q    Type
REMARK                         _______ _______ _______ _____ _____    ______ ____
ROOT
ATOM      1  C   UNL     1       2.558   7.236  18.575  0.00  0.00    +0.000 C 
ATOM      2  O   UNL     1       2.168   7.265  19.740  0.00  0.00    +0.000 OA
ATOM      3  N   UNL     1       2.310   8.233  17.644  0.00  0.00    +0.000 N 
ATOM      4  H   UNL     1       2.489   8.010  16.674  0.00  0.00    +0.000 HD
ENDROOT
BRANCH   1  14
ATOM      5  C   UNL     1       2.793   4.794  17.747  0.00  0.00    +0.000 A 
ATOM      6  N   UNL     1       3.814   4.036  17.219  0.00  0.00    +0.000 NA
ATOM      7  C   UNL     1       4.863   4.825  17.171  0.00  0.00    +0.000 A 
ATOM      8  C   UNL     1       6.175   4.604  16.666  0.00  0.00    +0.000 A 
ATOM      9  C   UNL     1       7.098   5.582  16.739  0.00  0.00    +0.000 A 
ATOM     10  C   UNL     1       6.782   6.867  17.337  0.00  0.00    +0.000 A 
ATOM     11 CL   UNL     1       8.003   8.072  17.417  0.00  0.00    +0.000 Cl
ATOM     12  C   UNL     1       5.544   7.089  17.804  0.00  0.00    +0.000 A 
ATOM     13  N   UNL     1       4.581   6.077  17.706  0.00  0.00    +0.000 N 
ATOM     14  C   UNL     1       3.243   6.068  18.077  0.00  0.00    +0.000 A 
BRANCH   5  16
ATOM     15  C   UNL     1       1.146   3.489  19.102  0.00  0.00    +0.000 C 
ATOM     16  C   UNL     1       1.423   4.204  17.788  0.00  0.00    +0.000 C 
ENDBRANCH   5  16
ENDBRANCH   1  14
BRANCH   3  17
ATOM     17  C   UNL     1       1.527   9.386  17.892  0.00  0.00    +0.000 A 
ATOM     18  C   UNL     1       2.083  10.607  18.268  0.00  0.00    +0.000 A 
ATOM     19  C   UNL     1       1.278  11.652  18.730  0.00  0.00    +0.000 A 
ATOM     20  C   UNL     1      -0.116  11.533  18.787  0.00  0.00    +0.000 A 
ATOM     21  C   UNL     1      -0.670  10.350  18.262  0.00  0.00    +0.000 A 
ATOM     22  C   UNL     1       0.137   9.288  17.822  0.00  0.00    +0.000 A 
BRANCH  20  23
ATOM     23  C   UNL     1      -0.939  12.578  19.449  0.00  0.00    +0.000 A 
ATOM     24  C   UNL     1      -0.467  13.893  19.627  0.00  0.00    +0.000 A 
ATOM     25  C   UNL     1      -1.197  14.844  20.347  0.00  0.00    +0.000 A 
ATOM     26  C   UNL     1      -2.433  14.509  20.889  0.00  0.00    +0.000 A 
ATOM     27  C   UNL     1      -2.935  13.225  20.713  0.00  0.00    +0.000 A 
ATOM     28  C   UNL     1      -2.194  12.272  20.007  0.00  0.00    +0.000 A 
ENDBRANCH  20  23
ENDBRANCH   3  17
TORSDOF 4
ENDMDL
MODEL 7
REMARK VINA RESULT:      -8.3      0.633      1.132
REMARK  Name = 
REMARK  5 active torsions:
REMARK  status: ('A' for Active; 'I' for Inactive)
REMARK    1  A    between atoms: C_1  and  C_2
REMARK    2  A    between atoms: C_2  and  C_3
REMARK    3  A    between atoms: C_12  and  C_13
REMARK    4  A    between atoms: N_15  and  C_16
REMARK    5  A    between atoms: C_19  and  C_20
REMARK                            x       y       z     vdW  Elec       q    Type
REMARK                         _______ _______ _______ _____ _____    ______ ____
ROOT
ATOM      1  C   UNL     1       2.624   6.067  18.992  0.00  0.00    +0.000 C 
ATOM      2  O   UNL     1       2.004   5.702  19.988  0.00  0.00    +0.000 OA
ATOM      3  N   UNL     1       2.635   7.369  18.514  0.00  0.00    +0.000 N 
ATOM      4  H   UNL     1       2.997   7.512  17.580  0.00  0.00    +0.000 HD
ENDROOT
BRANCH   1  14
ATOM      5  C   UNL     1       2.936   3.868  17.662  0.00  0.00    +0.000 A 
ATOM      6  N   UNL     1       3.930   3.339  16.869  0.00  0.00    +0.000 NA
ATOM      7  C   UNL     1       4.894   4.230  16.854  0.00  0.00    +0.000 A 
ATOM      8  C   UNL     1       6.135   4.252  16.158  0.00  0.00    +0.000 A 
ATOM      9  C   UNL     1       6.976   5.292  16.313  0.00  0.00    +0.000 A 
ATOM     10  C   UNL     1       6.645   6.398  17.195  0.00  0.00    +0.000 A 
ATOM     11 CL   UNL     1       7.763   7.690  17.368  0.00  0.00    +0.000 Cl
ATOM     12  C   UNL     1       5.472   6.392  17.846  0.00  0.00    +0.000 A 
ATOM     13  N   UNL     1       4.590   5.320  17.664  0.00  0.00    +0.000 N 
ATOM     14  C   UNL     1       3.324   5.096  18.187  0.00  0.00    +0.000 A 
BRANCH   5  16
ATOM     15  C   UNL     1       1.554   2.266  18.995  0.00  0.00    +0.000 C 
ATOM     16  C   UNL     1       1.639   3.137  17.751  0.00  0.00    +0.000 C 
ENDBRANCH   5  16
ENDBRANCH   1  14
BRANCH   3  17
ATOM     17  C   UNL     1       1.891   8.436  19.072  0.00  0.00    +0.000 A 
ATOM     18  C   UNL     1       1.597   8.519  20.431  0.00  0.00    +0.000 A 
ATOM     19  C   UNL     1       0.671   9.449  20.911  0.00  0.00    +0.000 A 
ATOM     20  C   UNL     1       0.039  10.363  20.058  0.00  0.00    +0.000 A 
ATOM     21  C   UNL     1       0.460  10.365  18.714  0.00  0.00    +0.000 A 
ATOM     22  C   UNL     1       1.371   9.414  18.224  0.00  0.00    +0.000 A 
BRANCH  20  23
ATOM     23  C   UNL     1      -1.072  11.216  20.550  0.00  0.00    +0.000 A 
ATOM     24  C   UNL     1      -1.960  11.862  19.668  0.00  0.00    +0.000 A 
ATOM     25  C   UNL     1      -2.935  12.752  20.129  0.00  0.00    +0.000 A 
ATOM     26  C   UNL     1      -3.063  13.002  21.491  0.00  0.00    +0.000 A 
ATOM     27  C   UNL     1      -2.216  12.363  22.389  0.00  0.00    +0.000 A 
ATOM     28  C   UNL     1      -1.230  11.487  21.922  0.00  0.00    +0.000 A 
ENDBRANCH  20  23
ENDBRANCH   3  17
TORSDOF 4
ENDMDL
MODEL 8
REMARK VINA RESULT:      -8.3      3.955      9.698
REMARK  Name = 
REMARK  5 active torsions:
REMARK  status: ('A' for Active; 'I' for Inactive)
REMARK    1  A    between atoms: C_1  and  C_2
REMARK    2  A    between atoms: C_2  and  C_3
REMARK    3  A    between atoms: C_12  and  C_13
REMARK    4  A    between atoms: N_15  and  C_16
REMARK    5  A    between atoms: C_19  and  C_20
REMARK                            x       y       z     vdW  Elec       q    Type
REMARK                         _______ _______ _______ _____ _____    ______ ____
ROOT
ATOM      1  C   UNL     1      -0.396  11.453  20.202  0.00  0.00    +0.000 C 
ATOM      2  O   UNL     1       0.473  12.197  19.753  0.00  0.00    +0.000 OA
ATOM      3  N   UNL     1      -0.314  10.069  20.203  0.00  0.00    +0.000 N 
ATOM      4  H   UNL     1      -1.165   9.559  20.396  0.00  0.00    +0.000 HD
ENDROOT
BRANCH   1  14
ATOM      5  C   UNL     1      -1.964  12.674  21.862  0.00  0.00    +0.000 A 
ATOM      6  N   UNL     1      -3.271  13.106  21.832  0.00  0.00    +0.000 NA
ATOM      7  C   UNL     1      -3.738  12.767  20.652  0.00  0.00    +0.000 A 
ATOM      8  C   UNL     1      -5.002  13.007  20.044  0.00  0.00    +0.000 A 
ATOM      9  C   UNL     1      -5.251  12.544  18.804  0.00  0.00    +0.000 A 
ATOM     10  C   UNL     1      -4.250  11.788  18.071  0.00  0.00    +0.000 A 
ATOM     11 CL   UNL     1      -4.629  11.208  16.500  0.00  0.00    +0.000 Cl
ATOM     12  C   UNL     1      -3.051  11.568  18.632  0.00  0.00    +0.000 A 
ATOM     13  N   UNL     1      -2.788  12.071  19.911  0.00  0.00    +0.000 N 
ATOM     14  C   UNL     1      -1.636  12.010  20.684  0.00  0.00    +0.000 A 
BRANCH   5  16
ATOM     15  C   UNL     1      -0.743  14.523  23.021  0.00  0.00    +0.000 C 
ATOM     16  C   UNL     1      -1.123  13.050  23.035  0.00  0.00    +0.000 C 
ENDBRANCH   5  16
ENDBRANCH   1  14
BRANCH   3  17
ATOM     17  C   UNL     1       0.751   9.328  19.637  0.00  0.00    +0.000 A 
ATOM     18  C   UNL     1       1.188   9.517  18.328  0.00  0.00    +0.000 A 
ATOM     19  C   UNL     1       2.075   8.618  17.729  0.00  0.00    +0.000 A 
ATOM     20  C   UNL     1       2.594   7.522  18.429  0.00  0.00    +0.000 A 
ATOM     21  C   UNL     1       2.259   7.431  19.794  0.00  0.00    +0.000 A 
ATOM     22  C   UNL     1       1.348   8.318  20.392  0.00  0.00    +0.000 A 
BRANCH  20  23
ATOM     23  C   UNL     1       3.385   6.479  17.728  0.00  0.00    +0.000 A 
ATOM     24  C   UNL     1       3.057   5.113  17.817  0.00  0.00    +0.000 A 
ATOM     25  C   UNL     1       3.866   4.124  17.248  0.00  0.00    +0.000 A 
ATOM     26  C   UNL     1       5.015   4.481  16.552  0.00  0.00    +0.000 A 
ATOM     27  C   UNL     1       5.355   5.823  16.428  0.00  0.00    +0.000 A 
ATOM     28  C   UNL     1       4.552   6.807  17.014  0.00  0.00    +0.000 A 
ENDBRANCH  20  23
ENDBRANCH   3  17
TORSDOF 4
ENDMDL
MODEL 9
REMARK VINA RESULT:      -8.2      2.313      3.417
REMARK  Name = 
REMARK  5 active torsions:
REMARK  status: ('A' for Active; 'I' for Inactive)
REMARK    1  A    between atoms: C_1  and  C_2
REMARK    2  A    between atoms: C_2  and  C_3
REMARK    3  A    between atoms: C_12  and  C_13
REMARK    4  A    between atoms: N_15  and  C_16
REMARK    5  A    between atoms: C_19  and  C_20
REMARK                            x       y       z     vdW  Elec       q    Type
REMARK                         _______ _______ _______ _____ _____    ______ ____
ROOT
ATOM      1  C   UNL     1       2.528   7.137  18.831  0.00  0.00    +0.000 C 
ATOM      2  O   UNL     1       2.119   7.796  17.878  0.00  0.00    +0.000 OA
ATOM      3  N   UNL     1       2.257   7.434  20.159  0.00  0.00    +0.000 N 
ATOM      4  H   UNL     1       2.812   6.959  20.858  0.00  0.00    +0.000 HD
ENDROOT
BRANCH   1  14
ATOM      5  C   UNL     1       4.578   5.905  17.840  0.00  0.00    +0.000 A 
ATOM      6  N   UNL     1       5.150   4.664  18.014  0.00  0.00    +0.000 NA
ATOM      7  C   UNL     1       4.405   4.044  18.901  0.00  0.00    +0.000 A 
ATOM      8  C   UNL     1       4.547   2.764  19.508  0.00  0.00    +0.000 A 
ATOM      9  C   UNL     1       3.632   2.337  20.400  0.00  0.00    +0.000 A 
ATOM     10  C   UNL     1       2.487   3.159  20.750  0.00  0.00    +0.000 A 
ATOM     11 CL   UNL     1       1.344   2.556  21.881  0.00  0.00    +0.000 Cl
ATOM     12  C   UNL     1       2.352   4.372  20.193  0.00  0.00    +0.000 A 
ATOM     13  N   UNL     1       3.317   4.821  19.284  0.00  0.00    +0.000 N 
ATOM     14  C   UNL     1       3.423   6.029  18.606  0.00  0.00    +0.000 A 
BRANCH   5  16
ATOM     15  C   UNL     1       6.745   7.077  17.413  0.00  0.00    +0.000 C 
ATOM     16  C   UNL     1       5.294   6.899  16.990  0.00  0.00    +0.000 C 
ENDBRANCH   5  16
ENDBRANCH   1  14
BRANCH   3  17
ATOM     17  C   UNL     1       1.526   8.565  20.595  0.00  0.00    +0.000 A 
ATOM     18  C   UNL     1       1.249   8.810  21.938  0.00  0.00    +0.000 A 
ATOM     19  C   UNL     1       0.334   9.798  22.314  0.00  0.00    +0.000 A 
ATOM     20  C   UNL     1      -0.302  10.609  21.366  0.00  0.00    +0.000 A 
ATOM     21  C   UNL     1       0.103  10.449  20.027  0.00  0.00    +0.000 A 
ATOM     22  C   UNL     1       1.002   9.440  19.643  0.00  0.00    +0.000 A 
BRANCH  20  23
ATOM     23  C   UNL     1      -1.402  11.524  21.767  0.00  0.00    +0.000 A 
ATOM     24  C   UNL     1      -1.901  11.553  23.083  0.00  0.00    +0.000 A 
ATOM     25  C   UNL     1      -3.009  12.333  23.432  0.00  0.00    +0.000 A 
ATOM     26  C   UNL     1      -3.632  13.124  22.473  0.00  0.00    +0.000 A 
ATOM     27  C   UNL     1      -3.150  13.133  21.170  0.00  0.00    +0.000 A 
ATOM     28  C   UNL     1      -2.053  12.338  20.822  0.00  0.00    +0.000 A 
ENDBRANCH  20  23
ENDBRANCH   3  17
TORSDOF 4
ENDMDL
