MODEL 1
REMARK VINA RESULT:      -6.6      0.000      0.000
REMARK  Name = 
REMARK  6 active torsions:
REMARK  status: ('A' for Active; 'I' for Inactive)
REMARK    1  A    between atoms: C_1  and  C_2
REMARK    2  A    between atoms: C_2  and  C_3
REMARK    3  A    between atoms: C_3  and  C_4
REMARK    4  A    between atoms: C_3  and  N_7
REMARK    5  A    between atoms: C_9  and  C_10
REMARK    6  A    between atoms: C_10  and  C_11
REMARK                            x       y       z     vdW  Elec       q    Type
REMARK                         _______ _______ _______ _____ _____    ______ ____
ROOT
ATOM      1  N   UNL     1       4.686   4.580  17.353  0.00  0.00    +0.000 N 
ATOM      2  C   UNL     1       4.355   3.678  18.428  0.00  0.00    +0.000 C 
ATOM      3  C   UNL     1       2.987   4.183  18.878  0.00  0.00    +0.000 C 
ATOM      4  C   UNL     1       3.144   5.706  18.711  0.00  0.00    +0.000 C 
ATOM      5  C   UNL     1       4.144   5.835  17.581  0.00  0.00    +0.000 C 
ATOM      6  O   UNL     1       4.453   6.875  17.020  0.00  0.00    +0.000 OA
ENDROOT
BRANCH   1   7
ATOM      7  C   UNL     1       5.793   4.316  16.430  0.00  0.00    +0.000 C 
BRANCH   7   8
ATOM      8  C   UNL     1       7.093   4.937  16.982  0.00  0.00    +0.000 C 
ATOM      9  N   UNL     1       7.466   6.142  16.457  0.00  0.00    +0.000 N 
ATOM     10  O   UNL     1       7.720   4.443  17.920  0.00  0.00    +0.000 OA
ATOM     11  H   UNL     1       6.747   6.743  16.062  0.00  0.00    +0.000 HD
ATOM     12  H   UNL     1       8.245   6.607  16.903  0.00  0.00    +0.000 HD
ENDBRANCH   7   8
BRANCH   7  14
ATOM     13  C   UNL     1       6.199   3.865  13.937  0.00  0.00    +0.000 C 
ATOM     14  C   UNL     1       5.517   4.742  14.975  0.00  0.00    +0.000 C 
ENDBRANCH   7  14
ENDBRANCH   1   7
BRANCH   3  15
ATOM     15  C   UNL     1       1.828   3.642  18.014  0.00  0.00    +0.000 C 
BRANCH  15  16
ATOM     16  C   UNL     1       0.991   2.585  18.716  0.00  0.00    +0.000 C 
ATOM     17  F   UNL     1       1.796   1.598  19.176  0.00  0.00    +0.000 F 
ATOM     18  F   UNL     1       0.390   3.138  19.799  0.00  0.00    +0.000 F 
ENDBRANCH  15  16
ENDBRANCH   3  15
TORSDOF 5
ENDMDL
MODEL 2
REMARK VINA RESULT:      -6.6      2.978      5.080
REMARK  Name = 
REMARK  6 active torsions:
REMARK  status: ('A' for Active; 'I' for Inactive)
REMARK    1  A    between atoms: C_1  and  C_2
REMARK    2  A    between atoms: C_2  and  C_3
REMARK    3  A    between atoms: C_3  and  C_4
REMARK    4  A    between atoms: C_3  and  N_7
REMARK    5  A    between atoms: C_9  and  C_10
REMARK    6  A    between atoms: C_10  and  C_11
REMARK                            x       y       z     vdW  Elec       q    Type
REMARK                         _______ _______ _______ _____ _____    ______ ____
ROOT
ATOM      1  N   UNL     1       5.584   5.387  18.667  0.00  0.00    +0.000 N 
ATOM      2  C   UNL     1       5.234   6.238  17.557  0.00  0.00    +0.000 C 
ATOM      3  C   UNL     1       6.570   6.418  16.841  0.00  0.00    +0.000 C 
ATOM      4  C   UNL     1       7.554   6.479  18.024  0.00  0.00    +0.000 C 
ATOM      5  C   UNL     1       6.882   5.635  19.086  0.00  0.00    +0.000 C 
ATOM      6  O   UNL     1       7.384   5.292  20.145  0.00  0.00    +0.000 OA
ENDROOT
BRANCH   1   7
ATOM      7  C   UNL     1       4.568   4.719  19.485  0.00  0.00    +0.000 C 
BRANCH   7   8
ATOM      8  C   UNL     1       4.432   3.246  19.049  0.00  0.00    +0.000 C 
ATOM      9  N   UNL     1       5.006   2.311  19.863  0.00  0.00    +0.000 N 
ATOM     10  O   UNL     1       3.756   2.898  18.078  0.00  0.00    +0.000 OA
ATOM     11  H   UNL     1       5.134   2.537  20.847  0.00  0.00    +0.000 HD
ATOM     12  H   UNL     1       4.811   1.343  19.647  0.00  0.00    +0.000 HD
ENDBRANCH   7   8
BRANCH   7  14
ATOM     13  C   UNL     1       2.275   4.949  20.613  0.00  0.00    +0.000 C 
ATOM     14  C   UNL     1       3.209   5.443  19.519  0.00  0.00    +0.000 C 
ENDBRANCH   7  14
ENDBRANCH   1   7
BRANCH   3  15
ATOM     15  C   UNL     1       6.909   5.251  15.890  0.00  0.00    +0.000 C 
BRANCH  15  16
ATOM     16  C   UNL     1       5.690   4.469  15.432  0.00  0.00    +0.000 C 
ATOM     17  F   UNL     1       5.556   4.579  14.088  0.00  0.00    +0.000 F 
ATOM     18  F   UNL     1       5.877   3.153  15.701  0.00  0.00    +0.000 F 
ENDBRANCH  15  16
ENDBRANCH   3  15
TORSDOF 5
ENDMDL
MODEL 3
REMARK VINA RESULT:      -6.6      3.244      5.248
REMARK  Name = 
REMARK  6 active torsions:
REMARK  status: ('A' for Active; 'I' for Inactive)
REMARK    1  A    between atoms: C_1  and  C_2
REMARK    2  A    between atoms: C_2  and  C_3
REMARK    3  A    between atoms: C_3  and  C_4
REMARK    4  A    between atoms: C_3  and  N_7
REMARK    5  A    between atoms: C_9  and  C_10
REMARK    6  A    between atoms: C_10  and  C_11
REMARK                            x       y       z     vdW  Elec       q    Type
REMARK                         _______ _______ _______ _____ _____    ______ ____
ROOT
ATOM      1  N   UNL     1       4.931   4.665  18.408  0.00  0.00    +0.000 N 
ATOM      2  C   UNL     1       4.466   5.130  17.125  0.00  0.00    +0.000 C 
ATOM      3  C   UNL     1       5.767   5.340  16.355  0.00  0.00    +0.000 C 
ATOM      4  C   UNL     1       6.703   5.868  17.458  0.00  0.00    +0.000 C 
ATOM      5  C   UNL     1       6.160   5.227  18.717  0.00  0.00    +0.000 C 
ATOM      6  O   UNL     1       6.691   5.257  19.817  0.00  0.00    +0.000 OA
ENDROOT
BRANCH   1   7
ATOM      7  C   UNL     1       4.026   4.070  19.394  0.00  0.00    +0.000 C 
BRANCH   7   8
ATOM      8  C   UNL     1       4.307   2.559  19.518  0.00  0.00    +0.000 C 
ATOM      9  N   UNL     1       3.883   1.772  18.485  0.00  0.00    +0.000 N 
ATOM     10  O   UNL     1       4.970   2.078  20.438  0.00  0.00    +0.000 OA
ATOM     11  H   UNL     1       3.777   2.193  17.565  0.00  0.00    +0.000 HD
ATOM     12  H   UNL     1       4.175   0.804  18.505  0.00  0.00    +0.000 HD
ENDBRANCH   7   8
BRANCH   7  14
ATOM     13  C   UNL     1       1.689   4.393  20.405  0.00  0.00    +0.000 C 
ATOM     14  C   UNL     1       2.535   4.366  19.142  0.00  0.00    +0.000 C 
ENDBRANCH   7  14
ENDBRANCH   1   7
BRANCH   3  15
ATOM     15  C   UNL     1       6.316   4.041  15.729  0.00  0.00    +0.000 C 
BRANCH  15  16
ATOM     16  C   UNL     1       6.333   4.061  14.209  0.00  0.00    +0.000 C 
ATOM     17  F   UNL     1       5.075   4.242  13.741  0.00  0.00    +0.000 F 
ATOM     18  F   UNL     1       7.067   5.121  13.785  0.00  0.00    +0.000 F 
ENDBRANCH  15  16
ENDBRANCH   3  15
TORSDOF 5
ENDMDL
MODEL 4
REMARK VINA RESULT:      -6.6      2.268      2.864
REMARK  Name = 
REMARK  6 active torsions:
REMARK  status: ('A' for Active; 'I' for Inactive)
REMARK    1  A    between atoms: C_1  and  C_2
REMARK    2  A    between atoms: C_2  and  C_3
REMARK    3  A    between atoms: C_3  and  C_4
REMARK    4  A    between atoms: C_3  and  N_7
REMARK    5  A    between atoms: C_9  and  C_10
REMARK    6  A    between atoms: C_10  and  C_11
REMARK                            x       y       z     vdW  Elec       q    Type
REMARK                         _______ _______ _______ _____ _____    ______ ____
ROOT
ATOM      1  N   UNL     1       3.383   3.907  18.067  0.00  0.00    +0.000 N 
ATOM      2  C   UNL     1       2.209   4.735  18.194  0.00  0.00    +0.000 C 
ATOM      3  C   UNL     1       1.287   3.875  19.054  0.00  0.00    +0.000 C 
ATOM      4  C   UNL     1       1.600   2.461  18.534  0.00  0.00    +0.000 C 
ATOM      5  C   UNL     1       3.040   2.564  18.077  0.00  0.00    +0.000 C 
ATOM      6  O   UNL     1       3.743   1.631  17.724  0.00  0.00    +0.000 OA
ENDROOT
BRANCH   1   7
ATOM      7  C   UNL     1       4.651   4.430  17.551  0.00  0.00    +0.000 C 
BRANCH   7   8
ATOM      8  C   UNL     1       5.644   4.633  18.712  0.00  0.00    +0.000 C 
ATOM      9  N   UNL     1       6.933   4.235  18.492  0.00  0.00    +0.000 N 
ATOM     10  O   UNL     1       5.341   5.217  19.754  0.00  0.00    +0.000 OA
ATOM     11  H   UNL     1       7.274   4.204  17.534  0.00  0.00    +0.000 HD
ATOM     12  H   UNL     1       7.609   4.480  19.202  0.00  0.00    +0.000 HD
ENDBRANCH   7   8
BRANCH   7  14
ATOM     13  C   UNL     1       5.393   5.700  15.448  0.00  0.00    +0.000 C 
ATOM     14  C   UNL     1       4.505   5.694  16.682  0.00  0.00    +0.000 C 
ENDBRANCH   7  14
ENDBRANCH   1   7
BRANCH   3  15
ATOM     15  C   UNL     1       1.582   3.995  20.564  0.00  0.00    +0.000 C 
BRANCH  15  16
ATOM     16  C   UNL     1       1.716   2.653  21.265  0.00  0.00    +0.000 C 
ATOM     17  F   UNL     1       2.947   2.548  21.818  0.00  0.00    +0.000 F 
ATOM     18  F   UNL     1       0.821   2.591  22.283  0.00  0.00    +0.000 F 
ENDBRANCH  15  16
ENDBRANCH   3  15
TORSDOF 5
ENDMDL
MODEL 5
REMARK VINA RESULT:      -6.5      3.301      5.213
REMARK  Name = 
REMARK  6 active torsions:
REMARK  status: ('A' for Active; 'I' for Inactive)
REMARK    1  A    between atoms: C_1  and  C_2
REMARK    2  A    between atoms: C_2  and  C_3
REMARK    3  A    between atoms: C_3  and  C_4
REMARK    4  A    between atoms: C_3  and  N_7
REMARK    5  A    between atoms: C_9  and  C_10
REMARK    6  A    between atoms: C_10  and  C_11
REMARK                            x       y       z     vdW  Elec       q    Type
REMARK                         _______ _______ _______ _____ _____    ______ ____
ROOT
ATOM      1  N   UNL     1       4.485   4.864  18.637  0.00  0.00    +0.000 N 
ATOM      2  C   UNL     1       3.787   5.575  17.594  0.00  0.00    +0.000 C 
ATOM      3  C   UNL     1       4.921   5.999  16.664  0.00  0.00    +0.000 C 
ATOM      4  C   UNL     1       6.046   6.315  17.666  0.00  0.00    +0.000 C 
ATOM      5  C   UNL     1       5.750   5.396  18.832  0.00  0.00    +0.000 C 
ATOM      6  O   UNL     1       6.477   5.211  19.795  0.00  0.00    +0.000 OA
ENDROOT
BRANCH   1   7
ATOM      7  C   UNL     1       3.780   4.034  19.618  0.00  0.00    +0.000 C 
BRANCH   7   8
ATOM      8  C   UNL     1       4.249   2.571  19.498  0.00  0.00    +0.000 C 
ATOM      9  N   UNL     1       3.976   1.935  18.319  0.00  0.00    +0.000 N 
ATOM     10  O   UNL     1       4.929   2.016  20.363  0.00  0.00    +0.000 OA
ATOM     11  H   UNL     1       3.857   2.498  17.480  0.00  0.00    +0.000 HD
ATOM     12  H   UNL     1       4.391   1.022  18.192  0.00  0.00    +0.000 HD
ENDBRANCH   7   8
BRANCH   7  14
ATOM     13  C   UNL     1       1.541   3.652  20.813  0.00  0.00    +0.000 C 
ATOM     14  C   UNL     1       2.245   4.160  19.564  0.00  0.00    +0.000 C 
ENDBRANCH   7  14
ENDBRANCH   1   7
BRANCH   3  15
ATOM     15  C   UNL     1       5.342   4.889  15.679  0.00  0.00    +0.000 C 
BRANCH  15  16
ATOM     16  C   UNL     1       6.795   4.986  15.241  0.00  0.00    +0.000 C 
ATOM     17  F   UNL     1       7.552   4.142  15.982  0.00  0.00    +0.000 F 
ATOM     18  F   UNL     1       6.900   4.579  13.951  0.00  0.00    +0.000 F 
ENDBRANCH  15  16
ENDBRANCH   3  15
TORSDOF 5
ENDMDL
MODEL 6
REMARK VINA RESULT:      -6.5      1.622      2.375
REMARK  Name = 
REMARK  6 active torsions:
REMARK  status: ('A' for Active; 'I' for Inactive)
REMARK    1  A    between atoms: C_1  and  C_2
REMARK    2  A    between atoms: C_2  and  C_3
REMARK    3  A    between atoms: C_3  and  C_4
REMARK    4  A    between atoms: C_3  and  N_7
REMARK    5  A    between atoms: C_9  and  C_10
REMARK    6  A    between atoms: C_10  and  C_11
REMARK                            x       y       z     vdW  Elec       q    Type
REMARK                         _______ _______ _______ _____ _____    ______ ____
ROOT
ATOM      1  N   UNL     1       5.186   5.805  18.075  0.00  0.00    +0.000 N 
ATOM      2  C   UNL     1       5.078   5.090  19.323  0.00  0.00    +0.000 C 
ATOM      3  C   UNL     1       3.569   4.941  19.492  0.00  0.00    +0.000 C 
ATOM      4  C   UNL     1       3.055   6.277  18.927  0.00  0.00    +0.000 C 
ATOM      5  C   UNL     1       4.102   6.651  17.899  0.00  0.00    +0.000 C 
ATOM      6  O   UNL     1       4.020   7.573  17.103  0.00  0.00    +0.000 OA
ENDROOT
BRANCH   1   7
ATOM      7  C   UNL     1       6.459   5.937  17.362  0.00  0.00    +0.000 C 
BRANCH   7   8
ATOM      8  C   UNL     1       6.967   4.545  16.935  0.00  0.00    +0.000 C 
ATOM      9  N   UNL     1       6.102   3.775  16.211  0.00  0.00    +0.000 N 
ATOM     10  O   UNL     1       8.123   4.169  17.134  0.00  0.00    +0.000 OA
ATOM     11  H   UNL     1       5.379   4.238  15.665  0.00  0.00    +0.000 HD
ATOM     12  H   UNL     1       6.475   2.918  15.825  0.00  0.00    +0.000 HD
ENDBRANCH   7   8
BRANCH   7  14
ATOM     13  C   UNL     1       7.768   8.135  17.575  0.00  0.00    +0.000 C 
ATOM     14  C   UNL     1       7.530   6.738  18.127  0.00  0.00    +0.000 C 
ENDBRANCH   7  14
ENDBRANCH   1   7
BRANCH   3  15
ATOM     15  C   UNL     1       2.988   3.743  18.712  0.00  0.00    +0.000 C 
BRANCH  15  16
ATOM     16  C   UNL     1       1.484   3.821  18.511  0.00  0.00    +0.000 C 
ATOM     17  F   UNL     1       1.213   4.311  17.278  0.00  0.00    +0.000 F 
ATOM     18  F   UNL     1       0.961   2.570  18.560  0.00  0.00    +0.000 F 
ENDBRANCH  15  16
ENDBRANCH   3  15
TORSDOF 5
ENDMDL
MODEL 7
REMARK VINA RESULT:      -6.4      3.500      5.045
REMARK  Name = 
REMARK  6 active torsions:
REMARK  status: ('A' for Active; 'I' for Inactive)
REMARK    1  A    between atoms: C_1  and  C_2
REMARK    2  A    between atoms: C_2  and  C_3
REMARK    3  A    between atoms: C_3  and  C_4
REMARK    4  A    between atoms: C_3  and  N_7
REMARK    5  A    between atoms: C_9  and  C_10
REMARK    6  A    between atoms: C_10  and  C_11
REMARK                            x       y       z     vdW  Elec       q    Type
REMARK                         _______ _______ _______ _____ _____    ______ ____
ROOT
ATOM      1  N   UNL     1       3.661   4.814  18.286  0.00  0.00    +0.000 N 
ATOM      2  C   UNL     1       4.134   4.627  16.937  0.00  0.00    +0.000 C 
ATOM      3  C   UNL     1       4.955   5.891  16.694  0.00  0.00    +0.000 C 
ATOM      4  C   UNL     1       4.132   6.950  17.449  0.00  0.00    +0.000 C 
ATOM      5  C   UNL     1       3.472   6.160  18.558  0.00  0.00    +0.000 C 
ATOM      6  O   UNL     1       2.837   6.632  19.489  0.00  0.00    +0.000 OA
ENDROOT
BRANCH   1   7
ATOM      7  C   UNL     1       3.052   3.724  19.054  0.00  0.00    +0.000 C 
BRANCH   7   8
ATOM      8  C   UNL     1       3.939   2.466  18.969  0.00  0.00    +0.000 C 
ATOM      9  N   UNL     1       5.108   2.493  19.676  0.00  0.00    +0.000 N 
ATOM     10  O   UNL     1       3.583   1.438  18.388  0.00  0.00    +0.000 OA
ATOM     11  H   UNL     1       5.170   3.101  20.489  0.00  0.00    +0.000 HD
ATOM     12  H   UNL     1       5.628   1.626  19.722  0.00  0.00    +0.000 HD
ENDBRANCH   7   8
BRANCH   7  14
ATOM     13  C   UNL     1       0.699   3.102  19.869  0.00  0.00    +0.000 C 
ATOM     14  C   UNL     1       1.587   3.430  18.679  0.00  0.00    +0.000 C 
ENDBRANCH   7  14
ENDBRANCH   1   7
BRANCH   3  15
ATOM     15  C   UNL     1       6.391   5.795  17.252  0.00  0.00    +0.000 C 
BRANCH  15  16
ATOM     16  C   UNL     1       7.069   4.468  16.957  0.00  0.00    +0.000 C 
ATOM     17  F   UNL     1       7.479   4.442  15.666  0.00  0.00    +0.000 F 
ATOM     18  F   UNL     1       8.182   4.355  17.725  0.00  0.00    +0.000 F 
ENDBRANCH  15  16
ENDBRANCH   3  15
TORSDOF 5
ENDMDL
MODEL 8
REMARK VINA RESULT:      -6.4      1.640      2.434
REMARK  Name = 
REMARK  6 active torsions:
REMARK  status: ('A' for Active; 'I' for Inactive)
REMARK    1  A    between atoms: C_1  and  C_2
REMARK    2  A    between atoms: C_2  and  C_3
REMARK    3  A    between atoms: C_3  and  C_4
REMARK    4  A    between atoms: C_3  and  N_7
REMARK    5  A    between atoms: C_9  and  C_10
REMARK    6  A    between atoms: C_10  and  C_11
REMARK                            x       y       z     vdW  Elec       q    Type
REMARK                         _______ _______ _______ _____ _____    ______ ____
ROOT
ATOM      1  N   UNL     1       4.415   4.306  17.586  0.00  0.00    +0.000 N 
ATOM      2  C   UNL     1       3.329   3.372  17.421  0.00  0.00    +0.000 C 
ATOM      3  C   UNL     1       2.989   3.000  18.862  0.00  0.00    +0.000 C 
ATOM      4  C   UNL     1       4.380   2.984  19.520  0.00  0.00    +0.000 C 
ATOM      5  C   UNL     1       5.165   3.994  18.709  0.00  0.00    +0.000 C 
ATOM      6  O   UNL     1       6.283   4.406  18.976  0.00  0.00    +0.000 OA
ENDROOT
BRANCH   1   7
ATOM      7  C   UNL     1       4.893   5.145  16.484  0.00  0.00    +0.000 C 
BRANCH   7   8
ATOM      8  C   UNL     1       6.191   4.551  15.899  0.00  0.00    +0.000 C 
ATOM      9  N   UNL     1       7.346   5.234  16.156  0.00  0.00    +0.000 N 
ATOM     10  O   UNL     1       6.223   3.464  15.320  0.00  0.00    +0.000 OA
ATOM     11  H   UNL     1       7.388   5.823  16.984  0.00  0.00    +0.000 HD
ATOM     12  H   UNL     1       8.208   4.782  15.882  0.00  0.00    +0.000 HD
ENDBRANCH   7   8
BRANCH   7  14
ATOM     13  C   UNL     1       3.836   7.226  17.552  0.00  0.00    +0.000 C 
ATOM     14  C   UNL     1       5.046   6.635  16.845  0.00  0.00    +0.000 C 
ENDBRANCH   7  14
ENDBRANCH   1   7
BRANCH   3  15
ATOM     15  C   UNL     1       2.057   4.023  19.547  0.00  0.00    +0.000 C 
BRANCH  15  16
ATOM     16  C   UNL     1       0.765   3.414  20.065  0.00  0.00    +0.000 C 
ATOM     17  F   UNL     1       0.306   2.497  19.181  0.00  0.00    +0.000 F 
ATOM     18  F   UNL     1       1.017   2.751  21.222  0.00  0.00    +0.000 F 
ENDBRANCH  15  16
ENDBRANCH   3  15
TORSDOF 5
ENDMDL
MODEL 9
REMARK VINA RESULT:      -6.4      3.582      5.532
REMARK  Name = 
REMARK  6 active torsions:
REMARK  status: ('A' for Active; 'I' for Inactive)
REMARK    1  A    between atoms: C_1  and  C_2
REMARK    2  A    between atoms: C_2  and  C_3
REMARK    3  A    between atoms: C_3  and  C_4
REMARK    4  A    between atoms: C_3  and  N_7
REMARK    5  A    between atoms: C_9  and  C_10
REMARK    6  A    between atoms: C_10  and  C_11
REMARK                            x       y       z     vdW  Elec       q    Type
REMARK                         _______ _______ _______ _____ _____    ______ ____
ROOT
ATOM      1  N   UNL     1       4.522   4.082  18.450  0.00  0.00    +0.000 N 
ATOM      2  C   UNL     1       3.857   4.583  17.273  0.00  0.00    +0.000 C 
ATOM      3  C   UNL     1       5.016   5.125  16.441  0.00  0.00    +0.000 C 
ATOM      4  C   UNL     1       5.940   5.703  17.529  0.00  0.00    +0.000 C 
ATOM      5  C   UNL     1       5.649   4.836  18.735  0.00  0.00    +0.000 C 
ATOM      6  O   UNL     1       6.269   4.850  19.788  0.00  0.00    +0.000 OA
ENDROOT
BRANCH   1   7
ATOM      7  C   UNL     1       3.841   3.219  19.419  0.00  0.00    +0.000 C 
BRANCH   7   8
ATOM      8  C   UNL     1       3.294   1.965  18.708  0.00  0.00    +0.000 C 
ATOM      9  N   UNL     1       4.181   0.949  18.491  0.00  0.00    +0.000 N 
ATOM     10  O   UNL     1       2.100   1.821  18.437  0.00  0.00    +0.000 OA
ATOM     11  H   UNL     1       4.989   0.870  19.105  0.00  0.00    +0.000 HD
ATOM     12  H   UNL     1       3.798   0.081  18.140  0.00  0.00    +0.000 HD
ENDBRANCH   7   8
BRANCH   7  14
ATOM     13  C   UNL     1       2.381   3.203  21.530  0.00  0.00    +0.000 C 
ATOM     14  C   UNL     1       2.759   3.934  20.251  0.00  0.00    +0.000 C 
ENDBRANCH   7  14
ENDBRANCH   1   7
BRANCH   3  15
ATOM     15  C   UNL     1       5.733   4.033  15.619  0.00  0.00    +0.000 C 
BRANCH  15  16
ATOM     16  C   UNL     1       6.300   4.539  14.303  0.00  0.00    +0.000 C 
ATOM     17  F   UNL     1       7.543   5.038  14.503  0.00  0.00    +0.000 F 
ATOM     18  F   UNL     1       6.429   3.497  13.443  0.00  0.00    +0.000 F 
ENDBRANCH  15  16
ENDBRANCH   3  15
TORSDOF 5
ENDMDL
