MODEL 1
REMARK VINA RESULT:      -6.3      0.000      0.000
REMARK  Name = 
REMARK  11 active torsions:
REMARK  status: ('A' for Active; 'I' for Inactive)
REMARK    1  A    between atoms: C_1  and  C_2
REMARK    2  A    between atoms: C_2  and  C_3
REMARK    3  A    between atoms: C_3  and  C_4
REMARK    4  A    between atoms: C_4  and  C_5
REMARK    5  A    between atoms: C_5  and  C_6
REMARK    6  A    between atoms: C_6  and  C_7
REMARK    7  A    between atoms: C_7  and  O_8
REMARK    8  A    between atoms: O_8  and  C_9
REMARK    9  A    between atoms: C_14  and  O_15
REMARK   10  A    between atoms: O_15  and  C_16
REMARK   11  A    between atoms: C_16  and  C_17
REMARK                            x       y       z     vdW  Elec       q    Type
REMARK                         _______ _______ _______ _____ _____    ______ ____
ROOT
ATOM      1  C   UNL     1       4.604   4.635  18.753  0.00  0.00    +0.000 A 
ATOM      2  C   UNL     1       3.715   5.431  19.495  0.00  0.00    +0.000 A 
ATOM      3  C   UNL     1       3.199   6.624  18.981  0.00  0.00    +0.000 A 
ATOM      4  C   UNL     1       3.567   7.054  17.714  0.00  0.00    +0.000 A 
ATOM      5  C   UNL     1       4.420   6.271  16.946  0.00  0.00    +0.000 A 
ATOM      6  C   UNL     1       4.896   5.041  17.438  0.00  0.00    +0.000 A 
ENDROOT
BRANCH   1   7
ATOM      7  O   UNL     1       5.182   3.489  19.257  0.00  0.00    +0.000 OA
BRANCH   7   8
ATOM      8  C   UNL     1       4.259   2.422  19.539  0.00  0.00    +0.000 C 
BRANCH   8   9
ATOM      9  C   UNL     1       3.750   1.757  18.260  0.00  0.00    +0.000 C 
BRANCH   9  10
ATOM     10  C   UNL     1       2.325   2.196  17.869  0.00  0.00    +0.000 C 
BRANCH  10  11
ATOM     11  C   UNL     1       1.277   2.061  18.986  0.00  0.00    +0.000 C 
BRANCH  11  12
ATOM     12  C   UNL     1       0.686   3.424  19.371  0.00  0.00    +0.000 C 
BRANCH  12  14
ATOM     13  C   UNL     1       1.460   2.622  21.636  0.00  0.00    +0.000 C 
ATOM     14  C   UNL     1       1.063   3.830  20.799  0.00  0.00    +0.000 C 
ENDBRANCH  12  14
ENDBRANCH  11  12
ENDBRANCH  10  11
ENDBRANCH   9  10
ENDBRANCH   8   9
ENDBRANCH   7   8
ENDBRANCH   1   7
BRANCH   6  15
ATOM     15  O   UNL     1       5.749   4.281  16.608  0.00  0.00    +0.000 OA
BRANCH  15  16
ATOM     16  C   UNL     1       7.029   4.811  16.423  0.00  0.00    +0.000 C 
ATOM     17  C   UNL     1       7.857   4.594  17.657  0.00  0.00    +0.000 C 
ATOM     18  O   UNL     1       7.436   5.435  15.449  0.00  0.00    +0.000 OA
ENDBRANCH  15  16
ENDBRANCH   6  15
TORSDOF 9
ENDMDL
MODEL 2
REMARK VINA RESULT:      -6.1      1.627      2.402
REMARK  Name = 
REMARK  11 active torsions:
REMARK  status: ('A' for Active; 'I' for Inactive)
REMARK    1  A    between atoms: C_1  and  C_2
REMARK    2  A    between atoms: C_2  and  C_3
REMARK    3  A    between atoms: C_3  and  C_4
REMARK    4  A    between atoms: C_4  and  C_5
REMARK    5  A    between atoms: C_5  and  C_6
REMARK    6  A    between atoms: C_6  and  C_7
REMARK    7  A    between atoms: C_7  and  O_8
REMARK    8  A    between atoms: O_8  and  C_9
REMARK    9  A    between atoms: C_14  and  O_15
REMARK   10  A    between atoms: O_15  and  C_16
REMARK   11  A    between atoms: C_16  and  C_17
REMARK                            x       y       z     vdW  Elec       q    Type
REMARK                         _______ _______ _______ _____ _____    ______ ____
ROOT
ATOM      1  C   UNL     1       5.903   4.974  17.973  0.00  0.00    +0.000 A 
ATOM      2  C   UNL     1       6.447   5.033  19.268  0.00  0.00    +0.000 A 
ATOM      3  C   UNL     1       7.488   5.912  19.584  0.00  0.00    +0.000 A 
ATOM      4  C   UNL     1       8.014   6.747  18.610  0.00  0.00    +0.000 A 
ATOM      5  C   UNL     1       7.473   6.733  17.331  0.00  0.00    +0.000 A 
ATOM      6  C   UNL     1       6.388   5.891  17.024  0.00  0.00    +0.000 A 
ENDROOT
BRANCH   1   7
ATOM      7  O   UNL     1       4.924   4.073  17.614  0.00  0.00    +0.000 OA
BRANCH   7   8
ATOM      8  C   UNL     1       4.625   3.077  18.608  0.00  0.00    +0.000 C 
BRANCH   8   9
ATOM      9  C   UNL     1       3.420   2.223  18.213  0.00  0.00    +0.000 C 
BRANCH   9  10
ATOM     10  C   UNL     1       2.375   2.990  17.378  0.00  0.00    +0.000 C 
BRANCH  10  11
ATOM     11  C   UNL     1       1.395   3.847  18.196  0.00  0.00    +0.000 C 
BRANCH  11  12
ATOM     12  C   UNL     1       0.842   3.075  19.403  0.00  0.00    +0.000 C 
BRANCH  12  14
ATOM     13  C   UNL     1       1.739   5.155  20.517  0.00  0.00    +0.000 C 
ATOM     14  C   UNL     1       1.214   3.743  20.730  0.00  0.00    +0.000 C 
ENDBRANCH  12  14
ENDBRANCH  11  12
ENDBRANCH  10  11
ENDBRANCH   9  10
ENDBRANCH   8   9
ENDBRANCH   7   8
ENDBRANCH   1   7
BRANCH   6  15
ATOM     15  O   UNL     1       5.871   5.928  15.710  0.00  0.00    +0.000 OA
BRANCH  15  16
ATOM     16  C   UNL     1       6.590   5.192  14.764  0.00  0.00    +0.000 C 
ATOM     17  C   UNL     1       5.792   3.994  14.334  0.00  0.00    +0.000 C 
ATOM     18  O   UNL     1       7.731   5.407  14.372  0.00  0.00    +0.000 OA
ENDBRANCH  15  16
ENDBRANCH   6  15
TORSDOF 9
ENDMDL
MODEL 3
REMARK VINA RESULT:      -6.1      1.577      2.480
REMARK  Name = 
REMARK  11 active torsions:
REMARK  status: ('A' for Active; 'I' for Inactive)
REMARK    1  A    between atoms: C_1  and  C_2
REMARK    2  A    between atoms: C_2  and  C_3
REMARK    3  A    between atoms: C_3  and  C_4
REMARK    4  A    between atoms: C_4  and  C_5
REMARK    5  A    between atoms: C_5  and  C_6
REMARK    6  A    between atoms: C_6  and  C_7
REMARK    7  A    between atoms: C_7  and  O_8
REMARK    8  A    between atoms: O_8  and  C_9
REMARK    9  A    between atoms: C_14  and  O_15
REMARK   10  A    between atoms: O_15  and  C_16
REMARK   11  A    between atoms: C_16  and  C_17
REMARK                            x       y       z     vdW  Elec       q    Type
REMARK                         _______ _______ _______ _____ _____    ______ ____
ROOT
ATOM      1  C   UNL     1       5.058   5.569  17.611  0.00  0.00    +0.000 A 
ATOM      2  C   UNL     1       5.279   5.391  18.987  0.00  0.00    +0.000 A 
ATOM      3  C   UNL     1       6.567   5.419  19.530  0.00  0.00    +0.000 A 
ATOM      4  C   UNL     1       7.666   5.617  18.707  0.00  0.00    +0.000 A 
ATOM      5  C   UNL     1       7.474   5.828  17.348  0.00  0.00    +0.000 A 
ATOM      6  C   UNL     1       6.175   5.858  16.807  0.00  0.00    +0.000 A 
ENDROOT
BRANCH   1   7
ATOM      7  O   UNL     1       3.808   5.481  17.036  0.00  0.00    +0.000 OA
BRANCH   7   8
ATOM      8  C   UNL     1       2.886   4.619  17.726  0.00  0.00    +0.000 C 
BRANCH   8   9
ATOM      9  C   UNL     1       2.819   3.231  17.087  0.00  0.00    +0.000 C 
BRANCH   9  10
ATOM     10  C   UNL     1       3.231   2.097  18.046  0.00  0.00    +0.000 C 
BRANCH  10  11
ATOM     11  C   UNL     1       3.084   2.427  19.540  0.00  0.00    +0.000 C 
BRANCH  11  12
ATOM     12  C   UNL     1       1.641   2.223  20.024  0.00  0.00    +0.000 C 
BRANCH  12  14
ATOM     13  C   UNL     1       2.222   4.335  21.280  0.00  0.00    +0.000 C 
ATOM     14  C   UNL     1       1.097   3.461  20.742  0.00  0.00    +0.000 C 
ENDBRANCH  12  14
ENDBRANCH  11  12
ENDBRANCH  10  11
ENDBRANCH   9  10
ENDBRANCH   8   9
ENDBRANCH   7   8
ENDBRANCH   1   7
BRANCH   6  15
ATOM     15  O   UNL     1       6.040   6.089  15.420  0.00  0.00    +0.000 OA
BRANCH  15  16
ATOM     16  C   UNL     1       6.753   5.213  14.596  0.00  0.00    +0.000 C 
ATOM     17  C   UNL     1       6.056   3.884  14.538  0.00  0.00    +0.000 C 
ATOM     18  O   UNL     1       7.827   5.426  14.046  0.00  0.00    +0.000 OA
ENDBRANCH  15  16
ENDBRANCH   6  15
TORSDOF 9
ENDMDL
MODEL 4
REMARK VINA RESULT:      -6.1      3.764      6.348
REMARK  Name = 
REMARK  11 active torsions:
REMARK  status: ('A' for Active; 'I' for Inactive)
REMARK    1  A    between atoms: C_1  and  C_2
REMARK    2  A    between atoms: C_2  and  C_3
REMARK    3  A    between atoms: C_3  and  C_4
REMARK    4  A    between atoms: C_4  and  C_5
REMARK    5  A    between atoms: C_5  and  C_6
REMARK    6  A    between atoms: C_6  and  C_7
REMARK    7  A    between atoms: C_7  and  O_8
REMARK    8  A    between atoms: O_8  and  C_9
REMARK    9  A    between atoms: C_14  and  O_15
REMARK   10  A    between atoms: O_15  and  C_16
REMARK   11  A    between atoms: C_16  and  C_17
REMARK                            x       y       z     vdW  Elec       q    Type
REMARK                         _______ _______ _______ _____ _____    ______ ____
ROOT
ATOM      1  C   UNL     1       5.813   4.908  16.473  0.00  0.00    +0.000 A 
ATOM      2  C   UNL     1       7.060   5.308  16.983  0.00  0.00    +0.000 A 
ATOM      3  C   UNL     1       7.269   5.475  18.356  0.00  0.00    +0.000 A 
ATOM      4  C   UNL     1       6.232   5.254  19.250  0.00  0.00    +0.000 A 
ATOM      5  C   UNL     1       4.998   4.827  18.776  0.00  0.00    +0.000 A 
ATOM      6  C   UNL     1       4.800   4.602  17.400  0.00  0.00    +0.000 A 
ENDROOT
BRANCH   1   7
ATOM      7  O   UNL     1       5.557   4.799  15.123  0.00  0.00    +0.000 OA
BRANCH   7   8
ATOM      8  C   UNL     1       6.466   3.948  14.403  0.00  0.00    +0.000 C 
BRANCH   8   9
ATOM      9  C   UNL     1       6.408   4.200  12.896  0.00  0.00    +0.000 C 
BRANCH   9  10
ATOM     10  C   UNL     1       6.505   2.911  12.056  0.00  0.00    +0.000 C 
BRANCH  10  11
ATOM     11  C   UNL     1       5.163   2.385  11.521  0.00  0.00    +0.000 C 
BRANCH  11  12
ATOM     12  C   UNL     1       4.163   3.526  11.285  0.00  0.00    +0.000 C 
BRANCH  12  14
ATOM     13  C   UNL     1       2.702   4.488   9.465  0.00  0.00    +0.000 C 
ATOM     14  C   UNL     1       3.198   3.216  10.138  0.00  0.00    +0.000 C 
ENDBRANCH  12  14
ENDBRANCH  11  12
ENDBRANCH  10  11
ENDBRANCH   9  10
ENDBRANCH   8   9
ENDBRANCH   7   8
ENDBRANCH   1   7
BRANCH   6  15
ATOM     15  O   UNL     1       3.529   4.157  16.977  0.00  0.00    +0.000 OA
BRANCH  15  16
ATOM     16  C   UNL     1       3.023   3.052  17.668  0.00  0.00    +0.000 C 
ATOM     17  C   UNL     1       1.720   3.411  18.324  0.00  0.00    +0.000 C 
ATOM     18  O   UNL     1       3.561   1.960  17.810  0.00  0.00    +0.000 OA
ENDBRANCH  15  16
ENDBRANCH   6  15
TORSDOF 9
ENDMDL
MODEL 5
REMARK VINA RESULT:      -6.1      1.596      2.551
REMARK  Name = 
REMARK  11 active torsions:
REMARK  status: ('A' for Active; 'I' for Inactive)
REMARK    1  A    between atoms: C_1  and  C_2
REMARK    2  A    between atoms: C_2  and  C_3
REMARK    3  A    between atoms: C_3  and  C_4
REMARK    4  A    between atoms: C_4  and  C_5
REMARK    5  A    between atoms: C_5  and  C_6
REMARK    6  A    between atoms: C_6  and  C_7
REMARK    7  A    between atoms: C_7  and  O_8
REMARK    8  A    between atoms: O_8  and  C_9
REMARK    9  A    between atoms: C_14  and  O_15
REMARK   10  A    between atoms: O_15  and  C_16
REMARK   11  A    between atoms: C_16  and  C_17
REMARK                            x       y       z     vdW  Elec       q    Type
REMARK                         _______ _______ _______ _____ _____    ______ ____
ROOT
ATOM      1  C   UNL     1       5.564   4.609  17.186  0.00  0.00    +0.000 A 
ATOM      2  C   UNL     1       5.851   4.571  18.562  0.00  0.00    +0.000 A 
ATOM      3  C   UNL     1       6.790   5.434  19.136  0.00  0.00    +0.000 A 
ATOM      4  C   UNL     1       7.469   6.350  18.346  0.00  0.00    +0.000 A 
ATOM      5  C   UNL     1       7.181   6.431  16.989  0.00  0.00    +0.000 A 
ATOM      6  C   UNL     1       6.196   5.603  16.418  0.00  0.00    +0.000 A 
ENDROOT
BRANCH   1   7
ATOM      7  O   UNL     1       4.694   3.728  16.580  0.00  0.00    +0.000 OA
BRANCH   7   8
ATOM      8  C   UNL     1       3.404   3.624  17.207  0.00  0.00    +0.000 C 
BRANCH   8   9
ATOM      9  C   UNL     1       3.179   2.242  17.820  0.00  0.00    +0.000 C 
BRANCH   9  10
ATOM     10  C   UNL     1       1.882   2.143  18.646  0.00  0.00    +0.000 C 
BRANCH  10  11
ATOM     11  C   UNL     1       1.946   2.805  20.033  0.00  0.00    +0.000 C 
BRANCH  11  12
ATOM     12  C   UNL     1       0.898   3.918  20.176  0.00  0.00    +0.000 C 
BRANCH  12  14
ATOM     13  C   UNL     1       2.763   5.615  20.052  0.00  0.00    +0.000 C 
ATOM     14  C   UNL     1       1.495   5.192  20.780  0.00  0.00    +0.000 C 
ENDBRANCH  12  14
ENDBRANCH  11  12
ENDBRANCH  10  11
ENDBRANCH   9  10
ENDBRANCH   8   9
ENDBRANCH   7   8
ENDBRANCH   1   7
BRANCH   6  15
ATOM     15  O   UNL     1       5.937   5.737  15.037  0.00  0.00    +0.000 OA
BRANCH  15  16
ATOM     16  C   UNL     1       6.858   5.112  14.192  0.00  0.00    +0.000 C 
ATOM     17  C   UNL     1       6.260   3.857  13.622  0.00  0.00    +0.000 C 
ATOM     18  O   UNL     1       8.016   5.454  13.979  0.00  0.00    +0.000 OA
ENDBRANCH  15  16
ENDBRANCH   6  15
TORSDOF 9
ENDMDL
MODEL 6
REMARK VINA RESULT:      -6.0      1.697      3.361
REMARK  Name = 
REMARK  11 active torsions:
REMARK  status: ('A' for Active; 'I' for Inactive)
REMARK    1  A    between atoms: C_1  and  C_2
REMARK    2  A    between atoms: C_2  and  C_3
REMARK    3  A    between atoms: C_3  and  C_4
REMARK    4  A    between atoms: C_4  and  C_5
REMARK    5  A    between atoms: C_5  and  C_6
REMARK    6  A    between atoms: C_6  and  C_7
REMARK    7  A    between atoms: C_7  and  O_8
REMARK    8  A    between atoms: O_8  and  C_9
REMARK    9  A    between atoms: C_14  and  O_15
REMARK   10  A    between atoms: O_15  and  C_16
REMARK   11  A    between atoms: C_16  and  C_17
REMARK                            x       y       z     vdW  Elec       q    Type
REMARK                         _______ _______ _______ _____ _____    ______ ____
ROOT
ATOM      1  C   UNL     1       5.616   4.215  17.357  0.00  0.00    +0.000 A 
ATOM      2  C   UNL     1       4.765   4.151  16.240  0.00  0.00    +0.000 A 
ATOM      3  C   UNL     1       5.232   4.422  14.950  0.00  0.00    +0.000 A 
ATOM      4  C   UNL     1       6.559   4.772  14.749  0.00  0.00    +0.000 A 
ATOM      5  C   UNL     1       7.429   4.812  15.831  0.00  0.00    +0.000 A 
ATOM      6  C   UNL     1       6.976   4.484  17.123  0.00  0.00    +0.000 A 
ENDROOT
BRANCH   1   7
ATOM      7  O   UNL     1       5.171   4.019  18.647  0.00  0.00    +0.000 OA
BRANCH   7   8
ATOM      8  C   UNL     1       4.333   2.864  18.828  0.00  0.00    +0.000 C 
BRANCH   8   9
ATOM      9  C   UNL     1       3.521   2.948  20.121  0.00  0.00    +0.000 C 
BRANCH   9  10
ATOM     10  C   UNL     1       2.390   3.994  20.066  0.00  0.00    +0.000 C 
BRANCH  10  11
ATOM     11  C   UNL     1       1.560   3.981  18.772  0.00  0.00    +0.000 C 
BRANCH  11  12
ATOM     12  C   UNL     1       1.805   5.243  17.932  0.00  0.00    +0.000 C 
BRANCH  12  14
ATOM     13  C   UNL     1       3.395   7.200  17.812  0.00  0.00    +0.000 C 
ATOM     14  C   UNL     1       2.548   6.323  18.723  0.00  0.00    +0.000 C 
ENDBRANCH  12  14
ENDBRANCH  11  12
ENDBRANCH  10  11
ENDBRANCH   9  10
ENDBRANCH   8   9
ENDBRANCH   7   8
ENDBRANCH   1   7
BRANCH   6  15
ATOM     15  O   UNL     1       7.908   4.530  18.183  0.00  0.00    +0.000 OA
BRANCH  15  16
ATOM     16  C   UNL     1       7.739   5.587  19.082  0.00  0.00    +0.000 C 
ATOM     17  C   UNL     1       7.903   6.898  18.367  0.00  0.00    +0.000 C 
ATOM     18  O   UNL     1       7.561   5.506  20.292  0.00  0.00    +0.000 OA
ENDBRANCH  15  16
ENDBRANCH   6  15
TORSDOF 9
ENDMDL
MODEL 7
REMARK VINA RESULT:      -6.0      2.814      5.626
REMARK  Name = 
REMARK  11 active torsions:
REMARK  status: ('A' for Active; 'I' for Inactive)
REMARK    1  A    between atoms: C_1  and  C_2
REMARK    2  A    between atoms: C_2  and  C_3
REMARK    3  A    between atoms: C_3  and  C_4
REMARK    4  A    between atoms: C_4  and  C_5
REMARK    5  A    between atoms: C_5  and  C_6
REMARK    6  A    between atoms: C_6  and  C_7
REMARK    7  A    between atoms: C_7  and  O_8
REMARK    8  A    between atoms: O_8  and  C_9
REMARK    9  A    between atoms: C_14  and  O_15
REMARK   10  A    between atoms: O_15  and  C_16
REMARK   11  A    between atoms: C_16  and  C_17
REMARK                            x       y       z     vdW  Elec       q    Type
REMARK                         _______ _______ _______ _____ _____    ______ ____
ROOT
ATOM      1  C   UNL     1       4.395   3.859  18.884  0.00  0.00    +0.000 A 
ATOM      2  C   UNL     1       3.303   3.912  19.768  0.00  0.00    +0.000 A 
ATOM      3  C   UNL     1       1.985   3.842  19.305  0.00  0.00    +0.000 A 
ATOM      4  C   UNL     1       1.729   3.725  17.947  0.00  0.00    +0.000 A 
ATOM      5  C   UNL     1       2.790   3.638  17.055  0.00  0.00    +0.000 A 
ATOM      6  C   UNL     1       4.118   3.651  17.521  0.00  0.00    +0.000 A 
ENDROOT
BRANCH   1   7
ATOM      7  O   UNL     1       5.702   3.993  19.302  0.00  0.00    +0.000 OA
BRANCH   7   8
ATOM      8  C   UNL     1       6.201   5.342  19.301  0.00  0.00    +0.000 C 
BRANCH   8   9
ATOM      9  C   UNL     1       7.581   5.437  18.649  0.00  0.00    +0.000 C 
BRANCH   9  10
ATOM     10  C   UNL     1       8.171   6.860  18.672  0.00  0.00    +0.000 C 
BRANCH  10  11
ATOM     11  C   UNL     1       7.499   7.856  17.712  0.00  0.00    +0.000 C 
BRANCH  11  12
ATOM     12  C   UNL     1       8.252   9.193  17.669  0.00  0.00    +0.000 C 
BRANCH  12  14
ATOM     13  C   UNL     1       9.671  10.841  18.951  0.00  0.00    +0.000 C 
ATOM     14  C   UNL     1       8.888   9.537  19.019  0.00  0.00    +0.000 C 
ENDBRANCH  12  14
ENDBRANCH  11  12
ENDBRANCH  10  11
ENDBRANCH   9  10
ENDBRANCH   8   9
ENDBRANCH   7   8
ENDBRANCH   1   7
BRANCH   6  15
ATOM     15  O   UNL     1       5.156   3.548  16.569  0.00  0.00    +0.000 OA
BRANCH  15  16
ATOM     16  C   UNL     1       5.267   4.626  15.687  0.00  0.00    +0.000 C 
ATOM     17  C   UNL     1       5.716   4.140  14.338  0.00  0.00    +0.000 C 
ATOM     18  O   UNL     1       5.110   5.813  15.948  0.00  0.00    +0.000 OA
ENDBRANCH  15  16
ENDBRANCH   6  15
TORSDOF 9
ENDMDL
MODEL 8
REMARK VINA RESULT:      -6.0      1.675      2.993
REMARK  Name = 
REMARK  11 active torsions:
REMARK  status: ('A' for Active; 'I' for Inactive)
REMARK    1  A    between atoms: C_1  and  C_2
REMARK    2  A    between atoms: C_2  and  C_3
REMARK    3  A    between atoms: C_3  and  C_4
REMARK    4  A    between atoms: C_4  and  C_5
REMARK    5  A    between atoms: C_5  and  C_6
REMARK    6  A    between atoms: C_6  and  C_7
REMARK    7  A    between atoms: C_7  and  O_8
REMARK    8  A    between atoms: O_8  and  C_9
REMARK    9  A    between atoms: C_14  and  O_15
REMARK   10  A    between atoms: O_15  and  C_16
REMARK   11  A    between atoms: C_16  and  C_17
REMARK                            x       y       z     vdW  Elec       q    Type
REMARK                         _______ _______ _______ _____ _____    ______ ____
ROOT
ATOM      1  C   UNL     1       5.782   4.000  17.552  0.00  0.00    +0.000 A 
ATOM      2  C   UNL     1       4.784   3.860  16.572  0.00  0.00    +0.000 A 
ATOM      3  C   UNL     1       4.961   4.349  15.274  0.00  0.00    +0.000 A 
ATOM      4  C   UNL     1       6.137   4.997  14.928  0.00  0.00    +0.000 A 
ATOM      5  C   UNL     1       7.153   5.121  15.868  0.00  0.00    +0.000 A 
ATOM      6  C   UNL     1       7.001   4.580  17.158  0.00  0.00    +0.000 A 
ENDROOT
BRANCH   1   7
ATOM      7  O   UNL     1       5.612   3.589  18.857  0.00  0.00    +0.000 OA
BRANCH   7   8
ATOM      8  C   UNL     1       4.346   3.943  19.441  0.00  0.00    +0.000 C 
BRANCH   8   9
ATOM      9  C   UNL     1       4.163   5.459  19.527  0.00  0.00    +0.000 C 
BRANCH   9  10
ATOM     10  C   UNL     1       2.787   5.937  19.026  0.00  0.00    +0.000 C 
BRANCH  10  11
ATOM     11  C   UNL     1       1.753   4.820  18.806  0.00  0.00    +0.000 C 
BRANCH  11  12
ATOM     12  C   UNL     1       1.013   4.474  20.105  0.00  0.00    +0.000 C 
BRANCH  12  14
ATOM     13  C   UNL     1       1.680   2.628  21.693  0.00  0.00    +0.000 C 
ATOM     14  C   UNL     1       1.001   2.966  20.373  0.00  0.00    +0.000 C 
ENDBRANCH  12  14
ENDBRANCH  11  12
ENDBRANCH  10  11
ENDBRANCH   9  10
ENDBRANCH   8   9
ENDBRANCH   7   8
ENDBRANCH   1   7
BRANCH   6  15
ATOM     15  O   UNL     1       8.072   4.725  18.067  0.00  0.00    +0.000 OA
BRANCH  15  16
ATOM     16  C   UNL     1       7.881   5.683  19.067  0.00  0.00    +0.000 C 
ATOM     17  C   UNL     1       8.018   7.062  18.488  0.00  0.00    +0.000 C 
ATOM     18  O   UNL     1       7.704   5.477  20.262  0.00  0.00    +0.000 OA
ENDBRANCH  15  16
ENDBRANCH   6  15
TORSDOF 9
ENDMDL
MODEL 9
REMARK VINA RESULT:      -6.0      1.595      2.693
REMARK  Name = 
REMARK  11 active torsions:
REMARK  status: ('A' for Active; 'I' for Inactive)
REMARK    1  A    between atoms: C_1  and  C_2
REMARK    2  A    between atoms: C_2  and  C_3
REMARK    3  A    between atoms: C_3  and  C_4
REMARK    4  A    between atoms: C_4  and  C_5
REMARK    5  A    between atoms: C_5  and  C_6
REMARK    6  A    between atoms: C_6  and  C_7
REMARK    7  A    between atoms: C_7  and  O_8
REMARK    8  A    between atoms: O_8  and  C_9
REMARK    9  A    between atoms: C_14  and  O_15
REMARK   10  A    between atoms: O_15  and  C_16
REMARK   11  A    between atoms: C_16  and  C_17
REMARK                            x       y       z     vdW  Elec       q    Type
REMARK                         _______ _______ _______ _____ _____    ______ ____
ROOT
ATOM      1  C   UNL     1       5.049   4.385  17.202  0.00  0.00    +0.000 A 
ATOM      2  C   UNL     1       4.997   5.082  18.422  0.00  0.00    +0.000 A 
ATOM      3  C   UNL     1       6.160   5.504  19.073  0.00  0.00    +0.000 A 
ATOM      4  C   UNL     1       7.404   5.232  18.522  0.00  0.00    +0.000 A 
ATOM      5  C   UNL     1       7.483   4.573  17.301  0.00  0.00    +0.000 A 
ATOM      6  C   UNL     1       6.313   4.197  16.616  0.00  0.00    +0.000 A 
ENDROOT
BRANCH   1   7
ATOM      7  O   UNL     1       3.925   3.898  16.571  0.00  0.00    +0.000 OA
BRANCH   7   8
ATOM      8  C   UNL     1       2.730   3.905  17.373  0.00  0.00    +0.000 C 
BRANCH   8   9
ATOM      9  C   UNL     1       2.367   2.504  17.865  0.00  0.00    +0.000 C 
BRANCH   9  10
ATOM     10  C   UNL     1       1.210   2.494  18.883  0.00  0.00    +0.000 C 
BRANCH  10  11
ATOM     11  C   UNL     1       1.643   2.391  20.354  0.00  0.00    +0.000 C 
BRANCH  11  12
ATOM     12  C   UNL     1       2.198   3.725  20.874  0.00  0.00    +0.000 C 
BRANCH  12  14
ATOM     13  C   UNL     1       2.035   6.191  20.360  0.00  0.00    +0.000 C 
ATOM     14  C   UNL     1       1.261   4.896  20.562  0.00  0.00    +0.000 C 
ENDBRANCH  12  14
ENDBRANCH  11  12
ENDBRANCH  10  11
ENDBRANCH   9  10
ENDBRANCH   8   9
ENDBRANCH   7   8
ENDBRANCH   1   7
BRANCH   6  15
ATOM     15  O   UNL     1       6.455   3.542  15.373  0.00  0.00    +0.000 OA
BRANCH  15  16
ATOM     16  C   UNL     1       6.554   4.383  14.262  0.00  0.00    +0.000 C 
ATOM     17  C   UNL     1       6.211   3.623  13.012  0.00  0.00    +0.000 C 
ATOM     18  O   UNL     1       6.933   5.548  14.248  0.00  0.00    +0.000 OA
ENDBRANCH  15  16
ENDBRANCH   6  15
TORSDOF 9
ENDMDL
