MODEL 1
REMARK VINA RESULT:      -8.5      0.000      0.000
REMARK  Name = 
REMARK  6 active torsions:
REMARK  status: ('A' for Active; 'I' for Inactive)
REMARK    1  A    between atoms: S_2  and  S_4
REMARK    2  A    between atoms: S_2  and  C_12
REMARK    3  A    between atoms: S_4  and  C_5
REMARK    4  A    between atoms: C_5  and  C_6
REMARK    5  A    between atoms: C_12  and  C_13
REMARK    6  A    between atoms: C_12  and  C_19
REMARK                            x       y       z     vdW  Elec       q    Type
REMARK                         _______ _______ _______ _____ _____    ______ ____
ROOT
ATOM      1  C   UNL     1       2.616   6.008  18.089  0.00  0.00    +0.000 C 
ENDROOT
BRANCH   1   2
ATOM      2  C   UNL     1       2.000   4.793  18.781  0.00  0.00    +0.000 A 
ATOM      3  C   UNL     1       1.763   4.744  20.166  0.00  0.00    +0.000 A 
ATOM      4  C   UNL     1       1.256   3.590  20.772  0.00  0.00    +0.000 A 
ATOM      5  C   UNL     1       0.963   2.469  20.004  0.00  0.00    +0.000 A 
ATOM      6  C   UNL     1       1.155   2.507  18.627  0.00  0.00    +0.000 A 
ATOM      7  C   UNL     1       1.662   3.659  18.019  0.00  0.00    +0.000 A 
ENDBRANCH   1   2
BRANCH   1   8
ATOM      8  C   UNL     1       2.168   7.368  18.605  0.00  0.00    +0.000 A 
ATOM      9  C   UNL     1       1.962   8.413  17.682  0.00  0.00    +0.000 A 
ATOM     10  C   UNL     1       1.530   9.674  18.101  0.00  0.00    +0.000 A 
ATOM     11  C   UNL     1       1.289   9.917  19.449  0.00  0.00    +0.000 A 
ATOM     12  C   UNL     1       1.480   8.897  20.377  0.00  0.00    +0.000 A 
ATOM     13  C   UNL     1       1.914   7.636  19.960  0.00  0.00    +0.000 A 
ENDBRANCH   1   8
BRANCH   1  15
ATOM     14  O   UNL     1       4.868   5.431  19.373  0.00  0.00    +0.000 OA
ATOM     15  S   UNL     1       4.423   5.843  18.051  0.00  0.00    +0.000 S 
ATOM     16  O   UNL     1       5.036   7.002  17.424  0.00  0.00    +0.000 OA
BRANCH  15  17
ATOM     17  S   UNL     1       4.909   4.217  16.812  0.00  0.00    +0.000 S 
BRANCH  17  18
ATOM     18  C   UNL     1       6.526   4.780  16.213  0.00  0.00    +0.000 C 
BRANCH  18  19
ATOM     19  C   UNL     1       6.689   4.584  14.726  0.00  0.00    +0.000 A 
ATOM     20  C   UNL     1       7.653   5.309  14.011  0.00  0.00    +0.000 A 
ATOM     21  C   UNL     1       7.809   5.121  12.634  0.00  0.00    +0.000 A 
ATOM     22  C   UNL     1       7.000   4.211  11.957  0.00  0.00    +0.000 A 
ATOM     23  C   UNL     1       6.034   3.488  12.655  0.00  0.00    +0.000 A 
ATOM     24  C   UNL     1       5.878   3.674  14.032  0.00  0.00    +0.000 A 
ENDBRANCH  18  19
ENDBRANCH  17  18
ENDBRANCH  15  17
ENDBRANCH   1  15
TORSDOF 6
ENDMDL
MODEL 2
REMARK VINA RESULT:      -8.4      0.291      1.027
REMARK  Name = 
REMARK  6 active torsions:
REMARK  status: ('A' for Active; 'I' for Inactive)
REMARK    1  A    between atoms: S_2  and  S_4
REMARK    2  A    between atoms: S_2  and  C_12
REMARK    3  A    between atoms: S_4  and  C_5
REMARK    4  A    between atoms: C_5  and  C_6
REMARK    5  A    between atoms: C_12  and  C_13
REMARK    6  A    between atoms: C_12  and  C_19
REMARK                            x       y       z     vdW  Elec       q    Type
REMARK                         _______ _______ _______ _____ _____    ______ ____
ROOT
ATOM      1  C   UNL     1       2.596   6.017  18.212  0.00  0.00    +0.000 C 
ENDROOT
BRANCH   1   2
ATOM      2  C   UNL     1       2.092   4.843  19.050  0.00  0.00    +0.000 A 
ATOM      3  C   UNL     1       2.284   4.762  20.440  0.00  0.00    +0.000 A 
ATOM      4  C   UNL     1       1.865   3.641  21.163  0.00  0.00    +0.000 A 
ATOM      5  C   UNL     1       1.232   2.588  20.513  0.00  0.00    +0.000 A 
ATOM      6  C   UNL     1       0.998   2.662  19.144  0.00  0.00    +0.000 A 
ATOM      7  C   UNL     1       1.418   3.781  18.419  0.00  0.00    +0.000 A 
ENDBRANCH   1   2
BRANCH   1   8
ATOM      8  C   UNL     1       2.133   7.399  18.652  0.00  0.00    +0.000 A 
ATOM      9  C   UNL     1       1.963   8.404  17.679  0.00  0.00    +0.000 A 
ATOM     10  C   UNL     1       1.520   9.682  18.027  0.00  0.00    +0.000 A 
ATOM     11  C   UNL     1       1.230   9.982  19.354  0.00  0.00    +0.000 A 
ATOM     12  C   UNL     1       1.385   9.003  20.331  0.00  0.00    +0.000 A 
ATOM     13  C   UNL     1       1.830   7.725  19.984  0.00  0.00    +0.000 A 
ENDBRANCH   1   8
BRANCH   1  15
ATOM     14  O   UNL     1       4.959   5.516  19.314  0.00  0.00    +0.000 OA
ATOM     15  S   UNL     1       4.399   5.916  18.032  0.00  0.00    +0.000 S 
ATOM     16  O   UNL     1       4.921   7.098  17.367  0.00  0.00    +0.000 OA
BRANCH  15  17
ATOM     17  S   UNL     1       4.843   4.312  16.750  0.00  0.00    +0.000 S 
BRANCH  17  18
ATOM     18  C   UNL     1       6.469   4.856  16.157  0.00  0.00    +0.000 C 
BRANCH  18  19
ATOM     19  C   UNL     1       6.649   4.619  14.677  0.00  0.00    +0.000 A 
ATOM     20  C   UNL     1       5.839   3.699  13.996  0.00  0.00    +0.000 A 
ATOM     21  C   UNL     1       6.002   3.486  12.624  0.00  0.00    +0.000 A 
ATOM     22  C   UNL     1       6.978   4.185  11.919  0.00  0.00    +0.000 A 
ATOM     23  C   UNL     1       7.794   5.099  12.584  0.00  0.00    +0.000 A 
ATOM     24  C   UNL     1       7.632   5.314  13.956  0.00  0.00    +0.000 A 
ENDBRANCH  18  19
ENDBRANCH  17  18
ENDBRANCH  15  17
ENDBRANCH   1  15
TORSDOF 6
ENDMDL
MODEL 3
REMARK VINA RESULT:      -8.4      0.271      1.010
REMARK  Name = 
REMARK  6 active torsions:
REMARK  status: ('A' for Active; 'I' for Inactive)
REMARK    1  A    between atoms: S_2  and  S_4
REMARK    2  A    between atoms: S_2  and  C_12
REMARK    3  A    between atoms: S_4  and  C_5
REMARK    4  A    between atoms: C_5  and  C_6
REMARK    5  A    between atoms: C_12  and  C_13
REMARK    6  A    between atoms: C_12  and  C_19
REMARK                            x       y       z     vdW  Elec       q    Type
REMARK                         _______ _______ _______ _____ _____    ______ ____
ROOT
ATOM      1  C   UNL     1       2.835   5.964  18.072  0.00  0.00    +0.000 C 
ENDROOT
BRANCH   1   2
ATOM      2  C   UNL     1       2.253   4.721  18.743  0.00  0.00    +0.000 A 
ATOM      3  C   UNL     1       1.688   3.657  18.019  0.00  0.00    +0.000 A 
ATOM      4  C   UNL     1       1.107   2.566  18.672  0.00  0.00    +0.000 A 
ATOM      5  C   UNL     1       1.093   2.510  20.061  0.00  0.00    +0.000 A 
ATOM      6  C   UNL     1       1.677   3.534  20.799  0.00  0.00    +0.000 A 
ATOM      7  C   UNL     1       2.258   4.626  20.148  0.00  0.00    +0.000 A 
ENDBRANCH   1   2
BRANCH   1   8
ATOM      8  C   UNL     1       2.278   7.300  18.544  0.00  0.00    +0.000 A 
ATOM      9  C   UNL     1       2.033   8.310  17.593  0.00  0.00    +0.000 A 
ATOM     10  C   UNL     1       1.503   9.546  17.971  0.00  0.00    +0.000 A 
ATOM     11  C   UNL     1       1.200   9.797  19.305  0.00  0.00    +0.000 A 
ATOM     12  C   UNL     1       1.428   8.811  20.260  0.00  0.00    +0.000 A 
ATOM     13  C   UNL     1       1.961   7.574  19.884  0.00  0.00    +0.000 A 
ENDBRANCH   1   8
BRANCH   1  15
ATOM     14  O   UNL     1       5.038   5.488  19.475  0.00  0.00    +0.000 OA
ATOM     15  S   UNL     1       4.648   5.907  18.138  0.00  0.00    +0.000 S 
ATOM     16  O   UNL     1       5.225   7.115  17.575  0.00  0.00    +0.000 OA
BRANCH  15  17
ATOM     17  S   UNL     1       5.303   4.344  16.895  0.00  0.00    +0.000 S 
BRANCH  17  18
ATOM     18  C   UNL     1       6.610   5.220  15.992  0.00  0.00    +0.000 C 
BRANCH  18  19
ATOM     19  C   UNL     1       6.701   4.787  14.549  0.00  0.00    +0.000 A 
ATOM     20  C   UNL     1       7.671   5.337  13.698  0.00  0.00    +0.000 A 
ATOM     21  C   UNL     1       7.760   4.930  12.364  0.00  0.00    +0.000 A 
ATOM     22  C   UNL     1       6.879   3.973  11.865  0.00  0.00    +0.000 A 
ATOM     23  C   UNL     1       5.907   3.422  12.698  0.00  0.00    +0.000 A 
ATOM     24  C   UNL     1       5.817   3.828  14.033  0.00  0.00    +0.000 A 
ENDBRANCH  18  19
ENDBRANCH  17  18
ENDBRANCH  15  17
ENDBRANCH   1  15
TORSDOF 6
ENDMDL
MODEL 4
REMARK VINA RESULT:      -8.4      0.238      1.009
REMARK  Name = 
REMARK  6 active torsions:
REMARK  status: ('A' for Active; 'I' for Inactive)
REMARK    1  A    between atoms: S_2  and  S_4
REMARK    2  A    between atoms: S_2  and  C_12
REMARK    3  A    between atoms: S_4  and  C_5
REMARK    4  A    between atoms: C_5  and  C_6
REMARK    5  A    between atoms: C_12  and  C_13
REMARK    6  A    between atoms: C_12  and  C_19
REMARK                            x       y       z     vdW  Elec       q    Type
REMARK                         _______ _______ _______ _____ _____    ______ ____
ROOT
ATOM      1  C   UNL     1       2.769   5.935  18.098  0.00  0.00    +0.000 C 
ENDROOT
BRANCH   1   2
ATOM      2  C   UNL     1       2.191   4.732  18.843  0.00  0.00    +0.000 A 
ATOM      3  C   UNL     1       2.322   4.562  20.232  0.00  0.00    +0.000 A 
ATOM      4  C   UNL     1       1.835   3.416  20.869  0.00  0.00    +0.000 A 
ATOM      5  C   UNL     1       1.196   2.426  20.132  0.00  0.00    +0.000 A 
ATOM      6  C   UNL     1       1.023   2.589  18.762  0.00  0.00    +0.000 A 
ATOM      7  C   UNL     1       1.509   3.734  18.123  0.00  0.00    +0.000 A 
ENDBRANCH   1   2
BRANCH   1   8
ATOM      8  C   UNL     1       2.245   7.299  18.526  0.00  0.00    +0.000 A 
ATOM      9  C   UNL     1       1.912   7.507  19.879  0.00  0.00    +0.000 A 
ATOM     10  C   UNL     1       1.447   8.746  20.327  0.00  0.00    +0.000 A 
ATOM     11  C   UNL     1       1.312   9.805  19.435  0.00  0.00    +0.000 A 
ATOM     12  C   UNL     1       1.641   9.623  18.096  0.00  0.00    +0.000 A 
ATOM     13  C   UNL     1       2.104   8.384  17.645  0.00  0.00    +0.000 A 
ENDBRANCH   1   8
BRANCH   1  15
ATOM     14  O   UNL     1       5.009   5.494  19.454  0.00  0.00    +0.000 OA
ATOM     15  S   UNL     1       4.582   5.854  18.111  0.00  0.00    +0.000 S 
ATOM     16  O   UNL     1       5.157   7.026  17.472  0.00  0.00    +0.000 OA
BRANCH  15  17
ATOM     17  S   UNL     1       5.176   4.224  16.925  0.00  0.00    +0.000 S 
BRANCH  17  18
ATOM     18  C   UNL     1       6.660   4.941  16.169  0.00  0.00    +0.000 C 
BRANCH  18  19
ATOM     19  C   UNL     1       6.744   4.660  14.688  0.00  0.00    +0.000 A 
ATOM     20  C   UNL     1       7.674   5.335  13.884  0.00  0.00    +0.000 A 
ATOM     21  C   UNL     1       7.756   5.069  12.514  0.00  0.00    +0.000 A 
ATOM     22  C   UNL     1       6.908   4.130  11.933  0.00  0.00    +0.000 A 
ATOM     23  C   UNL     1       5.976   3.455  12.719  0.00  0.00    +0.000 A 
ATOM     24  C   UNL     1       5.893   3.720  14.089  0.00  0.00    +0.000 A 
ENDBRANCH  18  19
ENDBRANCH  17  18
ENDBRANCH  15  17
ENDBRANCH   1  15
TORSDOF 6
ENDMDL
MODEL 5
REMARK VINA RESULT:      -8.3      0.649      1.528
REMARK  Name = 
REMARK  6 active torsions:
REMARK  status: ('A' for Active; 'I' for Inactive)
REMARK    1  A    between atoms: S_2  and  S_4
REMARK    2  A    between atoms: S_2  and  C_12
REMARK    3  A    between atoms: S_4  and  C_5
REMARK    4  A    between atoms: C_5  and  C_6
REMARK    5  A    between atoms: C_12  and  C_13
REMARK    6  A    between atoms: C_12  and  C_19
REMARK                            x       y       z     vdW  Elec       q    Type
REMARK                         _______ _______ _______ _____ _____    ______ ____
ROOT
ATOM      1  C   UNL     1       3.029   5.856  18.000  0.00  0.00    +0.000 C 
ENDROOT
BRANCH   1   2
ATOM      2  C   UNL     1       2.541   4.550  18.625  0.00  0.00    +0.000 A 
ATOM      3  C   UNL     1       3.144   3.974  19.756  0.00  0.00    +0.000 A 
ATOM      4  C   UNL     1       2.709   2.745  20.260  0.00  0.00    +0.000 A 
ATOM      5  C   UNL     1       1.654   2.074  19.651  0.00  0.00    +0.000 A 
ATOM      6  C   UNL     1       1.019   2.641  18.552  0.00  0.00    +0.000 A 
ATOM      7  C   UNL     1       1.452   3.871  18.046  0.00  0.00    +0.000 A 
ENDBRANCH   1   2
BRANCH   1   8
ATOM      8  C   UNL     1       2.396   7.131  18.541  0.00  0.00    +0.000 A 
ATOM      9  C   UNL     1       2.094   7.212  19.915  0.00  0.00    +0.000 A 
ATOM     10  C   UNL     1       1.531   8.366  20.465  0.00  0.00    +0.000 A 
ATOM     11  C   UNL     1       1.265   9.467  19.657  0.00  0.00    +0.000 A 
ATOM     12  C   UNL     1       1.562   9.411  18.299  0.00  0.00    +0.000 A 
ATOM     13  C   UNL     1       2.122   8.256  17.746  0.00  0.00    +0.000 A 
ENDBRANCH   1   8
BRANCH   1  15
ATOM     14  O   UNL     1       5.277   5.644  19.396  0.00  0.00    +0.000 OA
ATOM     15  S   UNL     1       4.843   5.916  18.035  0.00  0.00    +0.000 S 
ATOM     16  O   UNL     1       5.335   7.102  17.355  0.00  0.00    +0.000 OA
BRANCH  15  17
ATOM     17  S   UNL     1       5.575   4.290  16.923  0.00  0.00    +0.000 S 
BRANCH  17  18
ATOM     18  C   UNL     1       6.854   5.148  15.964  0.00  0.00    +0.000 C 
BRANCH  18  19
ATOM     19  C   UNL     1       6.845   4.748  14.508  0.00  0.00    +0.000 A 
ATOM     20  C   UNL     1       5.949   3.777  14.039  0.00  0.00    +0.000 A 
ATOM     21  C   UNL     1       5.937   3.413  12.690  0.00  0.00    +0.000 A 
ATOM     22  C   UNL     1       6.823   4.010  11.797  0.00  0.00    +0.000 A 
ATOM     23  C   UNL     1       7.723   4.972  12.250  0.00  0.00    +0.000 A 
ATOM     24  C   UNL     1       7.736   5.339  13.600  0.00  0.00    +0.000 A 
ENDBRANCH  18  19
ENDBRANCH  17  18
ENDBRANCH  15  17
ENDBRANCH   1  15
TORSDOF 6
ENDMDL
MODEL 6
REMARK VINA RESULT:      -8.3      0.839      1.637
REMARK  Name = 
REMARK  6 active torsions:
REMARK  status: ('A' for Active; 'I' for Inactive)
REMARK    1  A    between atoms: S_2  and  S_4
REMARK    2  A    between atoms: S_2  and  C_12
REMARK    3  A    between atoms: S_4  and  C_5
REMARK    4  A    between atoms: C_5  and  C_6
REMARK    5  A    between atoms: C_12  and  C_13
REMARK    6  A    between atoms: C_12  and  C_19
REMARK                            x       y       z     vdW  Elec       q    Type
REMARK                         _______ _______ _______ _____ _____    ______ ____
ROOT
ATOM      1  C   UNL     1       2.980   5.532  18.079  0.00  0.00    +0.000 C 
ENDROOT
BRANCH   1   2
ATOM      2  C   UNL     1       2.339   4.347  18.799  0.00  0.00    +0.000 A 
ATOM      3  C   UNL     1       1.353   3.538  18.208  0.00  0.00    +0.000 A 
ATOM      4  C   UNL     1       0.745   2.501  18.922  0.00  0.00    +0.000 A 
ATOM      5  C   UNL     1       1.119   2.245  20.236  0.00  0.00    +0.000 A 
ATOM      6  C   UNL     1       2.118   3.009  20.830  0.00  0.00    +0.000 A 
ATOM      7  C   UNL     1       2.727   4.046  20.118  0.00  0.00    +0.000 A 
ENDBRANCH   1   2
BRANCH   1   8
ATOM      8  C   UNL     1       2.494   6.912  18.502  0.00  0.00    +0.000 A 
ATOM      9  C   UNL     1       2.412   7.932  17.534  0.00  0.00    +0.000 A 
ATOM     10  C   UNL     1       1.952   9.209  17.865  0.00  0.00    +0.000 A 
ATOM     11  C   UNL     1       1.558   9.492  19.169  0.00  0.00    +0.000 A 
ATOM     12  C   UNL     1       1.624   8.498  20.139  0.00  0.00    +0.000 A 
ATOM     13  C   UNL     1       2.086   7.220  19.810  0.00  0.00    +0.000 A 
ENDBRANCH   1   8
BRANCH   1  15
ATOM     14  O   UNL     1       5.141   4.011  17.826  0.00  0.00    +0.000 OA
ATOM     15  S   UNL     1       4.788   5.386  18.142  0.00  0.00    +0.000 S 
ATOM     16  O   UNL     1       5.315   5.996  19.351  0.00  0.00    +0.000 OA
BRANCH  15  17
ATOM     17  S   UNL     1       5.593   6.505  16.556  0.00  0.00    +0.000 S 
BRANCH  17  18
ATOM     18  C   UNL     1       6.966   5.412  16.097  0.00  0.00    +0.000 C 
BRANCH  18  19
ATOM     19  C   UNL     1       6.834   4.883  14.689  0.00  0.00    +0.000 A 
ATOM     20  C   UNL     1       5.822   3.970  14.361  0.00  0.00    +0.000 A 
ATOM     21  C   UNL     1       5.696   3.486  13.056  0.00  0.00    +0.000 A 
ATOM     22  C   UNL     1       6.582   3.906  12.066  0.00  0.00    +0.000 A 
ATOM     23  C   UNL     1       7.595   4.810  12.380  0.00  0.00    +0.000 A 
ATOM     24  C   UNL     1       7.723   5.295  13.685  0.00  0.00    +0.000 A 
ENDBRANCH  18  19
ENDBRANCH  17  18
ENDBRANCH  15  17
ENDBRANCH   1  15
TORSDOF 6
ENDMDL
MODEL 7
REMARK VINA RESULT:      -8.2      1.552      4.198
REMARK  Name = 
REMARK  6 active torsions:
REMARK  status: ('A' for Active; 'I' for Inactive)
REMARK    1  A    between atoms: S_2  and  S_4
REMARK    2  A    between atoms: S_2  and  C_12
REMARK    3  A    between atoms: S_4  and  C_5
REMARK    4  A    between atoms: C_5  and  C_6
REMARK    5  A    between atoms: C_12  and  C_13
REMARK    6  A    between atoms: C_12  and  C_19
REMARK                            x       y       z     vdW  Elec       q    Type
REMARK                         _______ _______ _______ _____ _____    ______ ____
ROOT
ATOM      1  C   UNL     1       4.338   5.921  18.551  0.00  0.00    +0.000 C 
ENDROOT
BRANCH   1   2
ATOM      2  C   UNL     1       3.264   7.001  18.669  0.00  0.00    +0.000 A 
ATOM      3  C   UNL     1       3.029   7.956  17.665  0.00  0.00    +0.000 A 
ATOM      4  C   UNL     1       2.080   8.968  17.837  0.00  0.00    +0.000 A 
ATOM      5  C   UNL     1       1.338   9.037  19.011  0.00  0.00    +0.000 A 
ATOM      6  C   UNL     1       1.528   8.082  20.004  0.00  0.00    +0.000 A 
ATOM      7  C   UNL     1       2.476   7.069  19.834  0.00  0.00    +0.000 A 
ENDBRANCH   1   2
BRANCH   1   8
ATOM      8  C   UNL     1       3.835   4.486  18.469  0.00  0.00    +0.000 A 
ATOM      9  C   UNL     1       4.375   3.523  19.345  0.00  0.00    +0.000 A 
ATOM     10  C   UNL     1       3.933   2.198  19.325  0.00  0.00    +0.000 A 
ATOM     11  C   UNL     1       2.937   1.808  18.435  0.00  0.00    +0.000 A 
ATOM     12  C   UNL     1       2.385   2.744  17.566  0.00  0.00    +0.000 A 
ATOM     13  C   UNL     1       2.828   4.070  17.583  0.00  0.00    +0.000 A 
ENDBRANCH   1   8
BRANCH   1  15
ATOM     14  O   UNL     1       6.332   7.422  17.647  0.00  0.00    +0.000 OA
ATOM     15  S   UNL     1       5.479   6.332  17.201  0.00  0.00    +0.000 S 
ATOM     16  O   UNL     1       4.766   6.457  15.941  0.00  0.00    +0.000 OA
BRANCH  15  17
ATOM     17  S   UNL     1       6.797   4.717  16.939  0.00  0.00    +0.000 S 
BRANCH  17  18
ATOM     18  C   UNL     1       5.873   3.790  15.682  0.00  0.00    +0.000 C 
BRANCH  18  19
ATOM     19  C   UNL     1       6.386   4.047  14.286  0.00  0.00    +0.000 A 
ATOM     20  C   UNL     1       7.379   5.009  14.055  0.00  0.00    +0.000 A 
ATOM     21  C   UNL     1       7.858   5.242  12.762  0.00  0.00    +0.000 A 
ATOM     22  C   UNL     1       7.347   4.519  11.687  0.00  0.00    +0.000 A 
ATOM     23  C   UNL     1       6.356   3.563  11.902  0.00  0.00    +0.000 A 
ATOM     24  C   UNL     1       5.876   3.329  13.194  0.00  0.00    +0.000 A 
ENDBRANCH  18  19
ENDBRANCH  17  18
ENDBRANCH  15  17
ENDBRANCH   1  15
TORSDOF 6
ENDMDL
MODEL 8
REMARK VINA RESULT:      -8.2      0.743      1.502
REMARK  Name = 
REMARK  6 active torsions:
REMARK  status: ('A' for Active; 'I' for Inactive)
REMARK    1  A    between atoms: S_2  and  S_4
REMARK    2  A    between atoms: S_2  and  C_12
REMARK    3  A    between atoms: S_4  and  C_5
REMARK    4  A    between atoms: C_5  and  C_6
REMARK    5  A    between atoms: C_12  and  C_13
REMARK    6  A    between atoms: C_12  and  C_19
REMARK                            x       y       z     vdW  Elec       q    Type
REMARK                         _______ _______ _______ _____ _____    ______ ____
ROOT
ATOM      1  C   UNL     1       3.104   5.860  18.052  0.00  0.00    +0.000 C 
ENDROOT
BRANCH   1   2
ATOM      2  C   UNL     1       2.561   4.565  18.655  0.00  0.00    +0.000 A 
ATOM      3  C   UNL     1       1.639   3.741  17.986  0.00  0.00    +0.000 A 
ATOM      4  C   UNL     1       1.117   2.597  18.597  0.00  0.00    +0.000 A 
ATOM      5  C   UNL     1       1.516   2.247  19.881  0.00  0.00    +0.000 A 
ATOM      6  C   UNL     1       2.455   3.027  20.549  0.00  0.00    +0.000 A 
ATOM      7  C   UNL     1       2.978   4.172  19.940  0.00  0.00    +0.000 A 
ENDBRANCH   1   2
BRANCH   1   8
ATOM      8  C   UNL     1       2.476   7.149  18.565  0.00  0.00    +0.000 A 
ATOM      9  C   UNL     1       2.232   8.197  17.656  0.00  0.00    +0.000 A 
ATOM     10  C   UNL     1       1.639   9.392  18.071  0.00  0.00    +0.000 A 
ATOM     11  C   UNL     1       1.271   9.563  19.402  0.00  0.00    +0.000 A 
ATOM     12  C   UNL     1       1.497   8.538  20.316  0.00  0.00    +0.000 A 
ATOM     13  C   UNL     1       2.093   7.343  19.902  0.00  0.00    +0.000 A 
ENDBRANCH   1   8
BRANCH   1  15
ATOM     14  O   UNL     1       5.284   5.670  19.556  0.00  0.00    +0.000 OA
ATOM     15  S   UNL     1       4.915   5.879  18.165  0.00  0.00    +0.000 S 
ATOM     16  O   UNL     1       5.467   7.015  17.446  0.00  0.00    +0.000 OA
BRANCH  15  17
ATOM     17  S   UNL     1       5.654   4.180  17.174  0.00  0.00    +0.000 S 
BRANCH  17  18
ATOM     18  C   UNL     1       4.743   4.336  15.613  0.00  0.00    +0.000 C 
BRANCH  18  19
ATOM     19  C   UNL     1       5.654   4.306  14.410  0.00  0.00    +0.000 A 
ATOM     20  C   UNL     1       5.321   3.544  13.280  0.00  0.00    +0.000 A 
ATOM     21  C   UNL     1       6.162   3.522  12.163  0.00  0.00    +0.000 A 
ATOM     22  C   UNL     1       7.346   4.256  12.166  0.00  0.00    +0.000 A 
ATOM     23  C   UNL     1       7.692   5.013  13.284  0.00  0.00    +0.000 A 
ATOM     24  C   UNL     1       6.852   5.037  14.401  0.00  0.00    +0.000 A 
ENDBRANCH  18  19
ENDBRANCH  17  18
ENDBRANCH  15  17
ENDBRANCH   1  15
TORSDOF 6
ENDMDL
MODEL 9
REMARK VINA RESULT:      -8.1      1.345      1.726
REMARK  Name = 
REMARK  6 active torsions:
REMARK  status: ('A' for Active; 'I' for Inactive)
REMARK    1  A    between atoms: S_2  and  S_4
REMARK    2  A    between atoms: S_2  and  C_12
REMARK    3  A    between atoms: S_4  and  C_5
REMARK    4  A    between atoms: C_5  and  C_6
REMARK    5  A    between atoms: C_12  and  C_13
REMARK    6  A    between atoms: C_12  and  C_19
REMARK                            x       y       z     vdW  Elec       q    Type
REMARK                         _______ _______ _______ _____ _____    ______ ____
ROOT
ATOM      1  C   UNL     1       3.972   5.735  17.765  0.00  0.00    +0.000 C 
ENDROOT
BRANCH   1   2
ATOM      2  C   UNL     1       3.572   4.301  18.110  0.00  0.00    +0.000 A 
ATOM      3  C   UNL     1       2.847   3.479  17.230  0.00  0.00    +0.000 A 
ATOM      4  C   UNL     1       2.444   2.195  17.607  0.00  0.00    +0.000 A 
ATOM      5  C   UNL     1       2.770   1.702  18.866  0.00  0.00    +0.000 A 
ATOM      6  C   UNL     1       3.517   2.483  19.740  0.00  0.00    +0.000 A 
ATOM      7  C   UNL     1       3.921   3.768  19.366  0.00  0.00    +0.000 A 
ENDBRANCH   1   2
BRANCH   1   8
ATOM      8  C   UNL     1       3.109   6.833  18.372  0.00  0.00    +0.000 A 
ATOM      9  C   UNL     1       2.790   7.960  17.588  0.00  0.00    +0.000 A 
ATOM     10  C   UNL     1       1.984   8.985  18.090  0.00  0.00    +0.000 A 
ATOM     11  C   UNL     1       1.474   8.903  19.381  0.00  0.00    +0.000 A 
ATOM     12  C   UNL     1       1.771   7.796  20.170  0.00  0.00    +0.000 A 
ATOM     13  C   UNL     1       2.579   6.770  19.671  0.00  0.00    +0.000 A 
ENDBRANCH   1   8
BRANCH   1  15
ATOM     14  O   UNL     1       5.975   5.689  19.507  0.00  0.00    +0.000 OA
ATOM     15  S   UNL     1       5.739   5.978  18.102  0.00  0.00    +0.000 S 
ATOM     16  O   UNL     1       6.203   7.239  17.547  0.00  0.00    +0.000 OA
BRANCH  15  17
ATOM     17  S   UNL     1       6.814   4.490  17.079  0.00  0.00    +0.000 S 
BRANCH  17  18
ATOM     18  C   UNL     1       7.247   5.420  15.583  0.00  0.00    +0.000 C 
BRANCH  18  19
ATOM     19  C   UNL     1       6.764   4.742  14.324  0.00  0.00    +0.000 A 
ATOM     20  C   UNL     1       7.560   4.727  13.170  0.00  0.00    +0.000 A 
ATOM     21  C   UNL     1       7.115   4.092  12.007  0.00  0.00    +0.000 A 
ATOM     22  C   UNL     1       5.869   3.471  11.983  0.00  0.00    +0.000 A 
ATOM     23  C   UNL     1       5.065   3.482  13.121  0.00  0.00    +0.000 A 
ATOM     24  C   UNL     1       5.509   4.116  14.286  0.00  0.00    +0.000 A 
ENDBRANCH  18  19
ENDBRANCH  17  18
ENDBRANCH  15  17
ENDBRANCH   1  15
TORSDOF 6
ENDMDL
