MODEL 1
REMARK VINA RESULT:      -6.5      0.000      0.000
REMARK  Name = 
REMARK  4 active torsions:
REMARK  status: ('A' for Active; 'I' for Inactive)
REMARK    1  A    between atoms: C_2  and  O_3
REMARK    2  A    between atoms: C_2  and  C_4
REMARK    3  A    between atoms: C_12  and  C_13
REMARK    4  A    between atoms: C_13  and  S_14
REMARK                            x       y       z     vdW  Elec       q    Type
REMARK                         _______ _______ _______ _____ _____    ______ ____
ROOT
ATOM      1  C   UNL     1       3.821   3.537  19.897  0.00  0.00    +0.000 C 
ATOM      2  C   UNL     1       2.448   3.485  20.578  0.00  0.00    +0.000 C 
ATOM      3  C   UNL     1       1.970   4.875  20.916  0.00  0.00    +0.000 C 
ATOM      4  C   UNL     1       1.895   5.669  19.630  0.00  0.00    +0.000 C 
ATOM      5  N   UNL     1       3.169   5.734  18.929  0.00  0.00    +0.000 N 
ATOM      6  C   UNL     1       3.349   6.789  18.031  0.00  0.00    +0.000 C 
ATOM      7  O   UNL     1       2.524   7.685  17.868  0.00  0.00    +0.000 OA
ATOM      8  C   UNL     1       4.687   6.848  17.348  0.00  0.00    +0.000 C 
ATOM      9  C   UNL     1       5.131   5.474  16.893  0.00  0.00    +0.000 C 
ATOM     10  C   UNL     1       5.133   4.577  18.114  0.00  0.00    +0.000 C 
ATOM     11  O   UNL     1       6.123   3.949  18.491  0.00  0.00    +0.000 OA
ATOM     12  N   UNL     1       3.887   4.473  18.749  0.00  0.00    +0.000 N 
ENDROOT
BRANCH   1  14
ATOM     13  O   UNL     1       3.460   1.467  18.615  0.00  0.00    +0.000 OA
ATOM     14  C   UNL     1       4.119   2.089  19.439  0.00  0.00    +0.000 C 
BRANCH  14  15
ATOM     15  O   UNL     1       5.221   1.539  20.008  0.00  0.00    +0.000 OA
ATOM     16  H   UNL     1       6.009   1.585  19.413  0.00  0.00    +0.000 HD
ENDBRANCH  14  15
ENDBRANCH   1  14
BRANCH   9  17
ATOM     17  C   UNL     1       6.521   5.469  16.246  0.00  0.00    +0.000 C 
BRANCH  17  18
ATOM     18  S   UNL     1       6.580   4.587  14.654  0.00  0.00    +0.000 S 
ATOM     19  H   UNL     1       7.902   4.697  14.450  0.00  0.00    +0.000 HD
ENDBRANCH  17  18
ENDBRANCH   9  17
TORSDOF 4
ENDMDL
MODEL 2
REMARK VINA RESULT:      -6.5      1.011      1.011
REMARK  Name = 
REMARK  4 active torsions:
REMARK  status: ('A' for Active; 'I' for Inactive)
REMARK    1  A    between atoms: C_2  and  O_3
REMARK    2  A    between atoms: C_2  and  C_4
REMARK    3  A    between atoms: C_12  and  C_13
REMARK    4  A    between atoms: C_13  and  S_14
REMARK                            x       y       z     vdW  Elec       q    Type
REMARK                         _______ _______ _______ _____ _____    ______ ____
ROOT
ATOM      1  C   UNL     1       3.659   3.314  19.930  0.00  0.00    +0.000 C 
ATOM      2  C   UNL     1       2.234   3.083  20.451  0.00  0.00    +0.000 C 
ATOM      3  C   UNL     1       1.577   4.396  20.797  0.00  0.00    +0.000 C 
ATOM      4  C   UNL     1       1.554   5.251  19.548  0.00  0.00    +0.000 C 
ATOM      5  N   UNL     1       2.881   5.486  18.998  0.00  0.00    +0.000 N 
ATOM      6  C   UNL     1       3.042   6.603  18.176  0.00  0.00    +0.000 C 
ATOM      7  O   UNL     1       2.147   7.419  17.964  0.00  0.00    +0.000 OA
ATOM      8  C   UNL     1       4.430   6.837  17.650  0.00  0.00    +0.000 C 
ATOM      9  C   UNL     1       5.066   5.544  17.185  0.00  0.00    +0.000 C 
ATOM     10  C   UNL     1       5.034   4.583  18.356  0.00  0.00    +0.000 C 
ATOM     11  O   UNL     1       6.040   4.038  18.811  0.00  0.00    +0.000 OA
ATOM     12  N   UNL     1       3.745   4.316  18.842  0.00  0.00    +0.000 N 
ENDROOT
BRANCH   1  14
ATOM     13  O   UNL     1       3.656   1.293  18.525  0.00  0.00    +0.000 OA
ATOM     14  C   UNL     1       4.157   1.932  19.442  0.00  0.00    +0.000 C 
BRANCH  14  15
ATOM     15  O   UNL     1       5.249   1.469  20.099  0.00  0.00    +0.000 OA
ATOM     16  H   UNL     1       5.853   0.961  19.505  0.00  0.00    +0.000 HD
ENDBRANCH  14  15
ENDBRANCH   1  14
BRANCH   9  17
ATOM     17  C   UNL     1       6.509   5.717  16.697  0.00  0.00    +0.000 C 
BRANCH  17  18
ATOM     18  S   UNL     1       7.377   7.118  17.474  0.00  0.00    +0.000 S 
ATOM     19  H   UNL     1       7.023   6.852  18.740  0.00  0.00    +0.000 HD
ENDBRANCH  17  18
ENDBRANCH   9  17
TORSDOF 4
ENDMDL
MODEL 3
REMARK VINA RESULT:      -6.1      1.467      1.614
REMARK  Name = 
REMARK  4 active torsions:
REMARK  status: ('A' for Active; 'I' for Inactive)
REMARK    1  A    between atoms: C_2  and  O_3
REMARK    2  A    between atoms: C_2  and  C_4
REMARK    3  A    between atoms: C_12  and  C_13
REMARK    4  A    between atoms: C_13  and  S_14
REMARK                            x       y       z     vdW  Elec       q    Type
REMARK                         _______ _______ _______ _____ _____    ______ ____
ROOT
ATOM      1  C   UNL     1       3.147   2.895  19.386  0.00  0.00    +0.000 C 
ATOM      2  C   UNL     1       1.978   2.563  20.324  0.00  0.00    +0.000 C 
ATOM      3  C   UNL     1       1.802   3.650  21.355  0.00  0.00    +0.000 C 
ATOM      4  C   UNL     1       1.544   4.951  20.624  0.00  0.00    +0.000 C 
ATOM      5  N   UNL     1       2.615   5.304  19.703  0.00  0.00    +0.000 N 
ATOM      6  C   UNL     1       2.732   6.650  19.349  0.00  0.00    +0.000 C 
ATOM      7  O   UNL     1       2.032   7.538  19.830  0.00  0.00    +0.000 OA
ATOM      8  C   UNL     1       3.867   6.988  18.423  0.00  0.00    +0.000 C 
ATOM      9  C   UNL     1       3.987   5.971  17.308  0.00  0.00    +0.000 C 
ATOM     10  C   UNL     1       4.143   4.611  17.958  0.00  0.00    +0.000 C 
ATOM     11  O   UNL     1       5.091   3.858  17.732  0.00  0.00    +0.000 OA
ATOM     12  N   UNL     1       3.078   4.253  18.798  0.00  0.00    +0.000 N 
ENDROOT
BRANCH   1  14
ATOM     13  O   UNL     1       2.298   1.777  17.364  0.00  0.00    +0.000 OA
ATOM     14  C   UNL     1       3.114   1.816  18.277  0.00  0.00    +0.000 C 
BRANCH  14  15
ATOM     15  O   UNL     1       4.106   0.896  18.364  0.00  0.00    +0.000 OA
ATOM     16  H   UNL     1       4.292   0.636  19.299  0.00  0.00    +0.000 HD
ENDBRANCH  14  15
ENDBRANCH   1  14
BRANCH   9  17
ATOM     17  C   UNL     1       5.171   6.234  16.370  0.00  0.00    +0.000 C 
BRANCH  17  18
ATOM     18  S   UNL     1       6.615   6.962  17.207  0.00  0.00    +0.000 S 
ATOM     19  H   UNL     1       6.482   8.205  16.718  0.00  0.00    +0.000 HD
ENDBRANCH  17  18
ENDBRANCH   9  17
TORSDOF 4
ENDMDL
MODEL 4
REMARK VINA RESULT:      -6.0      2.878      4.053
REMARK  Name = 
REMARK  4 active torsions:
REMARK  status: ('A' for Active; 'I' for Inactive)
REMARK    1  A    between atoms: C_2  and  O_3
REMARK    2  A    between atoms: C_2  and  C_4
REMARK    3  A    between atoms: C_12  and  C_13
REMARK    4  A    between atoms: C_13  and  S_14
REMARK                            x       y       z     vdW  Elec       q    Type
REMARK                         _______ _______ _______ _____ _____    ______ ____
ROOT
ATOM      1  C   UNL     1       2.183   2.960  19.666  0.00  0.00    +0.000 C 
ATOM      2  C   UNL     1       3.024   1.816  19.083  0.00  0.00    +0.000 C 
ATOM      3  C   UNL     1       3.329   2.071  17.628  0.00  0.00    +0.000 C 
ATOM      4  C   UNL     1       4.077   3.383  17.529  0.00  0.00    +0.000 C 
ATOM      5  N   UNL     1       3.332   4.502  18.088  0.00  0.00    +0.000 N 
ATOM      6  C   UNL     1       3.676   5.781  17.644  0.00  0.00    +0.000 C 
ATOM      7  O   UNL     1       4.511   5.989  16.765  0.00  0.00    +0.000 OA
ATOM      8  C   UNL     1       2.867   6.913  18.213  0.00  0.00    +0.000 C 
ATOM      9  C   UNL     1       2.650   6.737  19.701  0.00  0.00    +0.000 C 
ATOM     10  C   UNL     1       1.994   5.386  19.901  0.00  0.00    +0.000 C 
ATOM     11  O   UNL     1       0.922   5.235  20.487  0.00  0.00    +0.000 OA
ATOM     12  N   UNL     1       2.746   4.307  19.414  0.00  0.00    +0.000 N 
ENDROOT
BRANCH   1  14
ATOM     13  O   UNL     1       3.053   2.494  21.921  0.00  0.00    +0.000 OA
ATOM     14  C   UNL     1       2.091   2.681  21.185  0.00  0.00    +0.000 C 
BRANCH  14  15
ATOM     15  O   UNL     1       0.828   2.690  21.679  0.00  0.00    +0.000 OA
ATOM     16  H   UNL     1       0.153   2.832  20.971  0.00  0.00    +0.000 HD
ENDBRANCH  14  15
ENDBRANCH   1  14
BRANCH   9  17
ATOM     17  C   UNL     1       1.776   7.833  20.321  0.00  0.00    +0.000 C 
BRANCH  17  18
ATOM     18  S   UNL     1       1.346   9.167  19.158  0.00  0.00    +0.000 S 
ATOM     19  H   UNL     1       0.530   8.448  18.373  0.00  0.00    +0.000 HD
ENDBRANCH  17  18
ENDBRANCH   9  17
TORSDOF 4
ENDMDL
MODEL 5
REMARK VINA RESULT:      -6.0      1.524      1.804
REMARK  Name = 
REMARK  4 active torsions:
REMARK  status: ('A' for Active; 'I' for Inactive)
REMARK    1  A    between atoms: C_2  and  O_3
REMARK    2  A    between atoms: C_2  and  C_4
REMARK    3  A    between atoms: C_12  and  C_13
REMARK    4  A    between atoms: C_13  and  S_14
REMARK                            x       y       z     vdW  Elec       q    Type
REMARK                         _______ _______ _______ _____ _____    ______ ____
ROOT
ATOM      1  C   UNL     1       3.846   2.798  20.709  0.00  0.00    +0.000 C 
ATOM      2  C   UNL     1       2.557   2.228  21.316  0.00  0.00    +0.000 C 
ATOM      3  C   UNL     1       1.432   3.226  21.201  0.00  0.00    +0.000 C 
ATOM      4  C   UNL     1       1.233   3.541  19.734  0.00  0.00    +0.000 C 
ATOM      5  N   UNL     1       2.434   4.066  19.101  0.00  0.00    +0.000 N 
ATOM      6  C   UNL     1       2.263   4.819  17.936  0.00  0.00    +0.000 C 
ATOM      7  O   UNL     1       1.161   5.112  17.478  0.00  0.00    +0.000 OA
ATOM      8  C   UNL     1       3.519   5.375  17.325  0.00  0.00    +0.000 C 
ATOM      9  C   UNL     1       4.630   4.347  17.322  0.00  0.00    +0.000 C 
ATOM     10  C   UNL     1       4.824   3.894  18.755  0.00  0.00    +0.000 C 
ATOM     11  O   UNL     1       5.903   3.958  19.344  0.00  0.00    +0.000 OA
ATOM     12  N   UNL     1       3.678   3.334  19.338  0.00  0.00    +0.000 N 
ENDROOT
BRANCH   1  14
ATOM     13  O   UNL     1       5.561   1.323  21.679  0.00  0.00    +0.000 OA
ATOM     14  C   UNL     1       4.865   1.633  20.720  0.00  0.00    +0.000 C 
BRANCH  14  15
ATOM     15  O   UNL     1       4.919   0.928  19.562  0.00  0.00    +0.000 OA
ATOM     16  H   UNL     1       4.026   0.818  19.152  0.00  0.00    +0.000 HD
ENDBRANCH  14  15
ENDBRANCH   1  14
BRANCH   9  17
ATOM     17  C   UNL     1       5.954   4.884  16.766  0.00  0.00    +0.000 C 
BRANCH  17  18
ATOM     18  S   UNL     1       6.363   4.242  15.111  0.00  0.00    +0.000 S 
ATOM     19  H   UNL     1       7.432   3.517  15.473  0.00  0.00    +0.000 HD
ENDBRANCH  17  18
ENDBRANCH   9  17
TORSDOF 4
ENDMDL
MODEL 6
REMARK VINA RESULT:      -5.9      1.434      1.728
REMARK  Name = 
REMARK  4 active torsions:
REMARK  status: ('A' for Active; 'I' for Inactive)
REMARK    1  A    between atoms: C_2  and  O_3
REMARK    2  A    between atoms: C_2  and  C_4
REMARK    3  A    between atoms: C_12  and  C_13
REMARK    4  A    between atoms: C_13  and  S_14
REMARK                            x       y       z     vdW  Elec       q    Type
REMARK                         _______ _______ _______ _____ _____    ______ ____
ROOT
ATOM      1  C   UNL     1       2.331   3.593  19.408  0.00  0.00    +0.000 C 
ATOM      2  C   UNL     1       1.262   4.355  20.203  0.00  0.00    +0.000 C 
ATOM      3  C   UNL     1       1.794   5.689  20.662  0.00  0.00    +0.000 C 
ATOM      4  C   UNL     1       2.205   6.476  19.436  0.00  0.00    +0.000 C 
ATOM      5  N   UNL     1       3.206   5.789  18.633  0.00  0.00    +0.000 N 
ATOM      6  C   UNL     1       3.992   6.574  17.786  0.00  0.00    +0.000 C 
ATOM      7  O   UNL     1       3.926   7.801  17.749  0.00  0.00    +0.000 OA
ATOM      8  C   UNL     1       5.037   5.840  16.994  0.00  0.00    +0.000 C 
ATOM      9  C   UNL     1       4.487   4.551  16.421  0.00  0.00    +0.000 C 
ATOM     10  C   UNL     1       3.951   3.739  17.583  0.00  0.00    +0.000 C 
ATOM     11  O   UNL     1       4.322   2.592  17.834  0.00  0.00    +0.000 OA
ATOM     12  N   UNL     1       2.945   4.385  18.317  0.00  0.00    +0.000 N 
ENDROOT
BRANCH   1  14
ATOM     13  O   UNL     1       0.534   2.350  18.275  0.00  0.00    +0.000 OA
ATOM     14  C   UNL     1       1.620   2.340  18.842  0.00  0.00    +0.000 C 
BRANCH  14  15
ATOM     15  O   UNL     1       2.319   1.188  18.989  0.00  0.00    +0.000 OA
ATOM     16  H   UNL     1       2.104   0.529  18.285  0.00  0.00    +0.000 HD
ENDBRANCH  14  15
ENDBRANCH   1  14
BRANCH   9  17
ATOM     17  C   UNL     1       5.533   3.731  15.656  0.00  0.00    +0.000 C 
BRANCH  17  18
ATOM     18  S   UNL     1       6.755   4.752  14.773  0.00  0.00    +0.000 S 
ATOM     19  H   UNL     1       7.426   3.745  14.193  0.00  0.00    +0.000 HD
ENDBRANCH  17  18
ENDBRANCH   9  17
TORSDOF 4
ENDMDL
MODEL 7
REMARK VINA RESULT:      -5.7      2.541      4.421
REMARK  Name = 
REMARK  4 active torsions:
REMARK  status: ('A' for Active; 'I' for Inactive)
REMARK    1  A    between atoms: C_2  and  O_3
REMARK    2  A    between atoms: C_2  and  C_4
REMARK    3  A    between atoms: C_12  and  C_13
REMARK    4  A    between atoms: C_13  and  S_14
REMARK                            x       y       z     vdW  Elec       q    Type
REMARK                         _______ _______ _______ _____ _____    ______ ____
ROOT
ATOM      1  C   UNL     1       6.200   5.113  17.490  0.00  0.00    +0.000 C 
ATOM      2  C   UNL     1       6.496   6.392  16.696  0.00  0.00    +0.000 C 
ATOM      3  C   UNL     1       5.272   6.840  15.939  0.00  0.00    +0.000 C 
ATOM      4  C   UNL     1       4.164   7.083  16.942  0.00  0.00    +0.000 C 
ATOM      5  N   UNL     1       3.855   5.905  17.739  0.00  0.00    +0.000 N 
ATOM      6  C   UNL     1       2.591   5.849  18.330  0.00  0.00    +0.000 C 
ATOM      7  O   UNL     1       1.721   6.698  18.145  0.00  0.00    +0.000 OA
ATOM      8  C   UNL     1       2.290   4.606  19.119  0.00  0.00    +0.000 C 
ATOM      9  C   UNL     1       3.469   4.204  19.981  0.00  0.00    +0.000 C 
ATOM     10  C   UNL     1       4.661   4.042  19.059  0.00  0.00    +0.000 C 
ATOM     11  O   UNL     1       5.322   3.006  18.985  0.00  0.00    +0.000 OA
ATOM     12  N   UNL     1       4.988   5.200  18.338  0.00  0.00    +0.000 N 
ENDROOT
BRANCH   1  14
ATOM     13  O   UNL     1       7.669   5.371  19.449  0.00  0.00    +0.000 OA
ATOM     14  C   UNL     1       7.457   4.857  18.357  0.00  0.00    +0.000 C 
BRANCH  14  15
ATOM     15  O   UNL     1       8.330   3.966  17.825  0.00  0.00    +0.000 OA
ATOM     16  H   UNL     1       8.311   3.099  18.299  0.00  0.00    +0.000 HD
ENDBRANCH  14  15
ENDBRANCH   1  14
BRANCH   9  17
ATOM     17  C   UNL     1       3.237   2.904  20.760  0.00  0.00    +0.000 C 
BRANCH  17  18
ATOM     18  S   UNL     1       1.557   2.756  21.446  0.00  0.00    +0.000 S 
ATOM     19  H   UNL     1       0.889   3.005  20.309  0.00  0.00    +0.000 HD
ENDBRANCH  17  18
ENDBRANCH   9  17
TORSDOF 4
ENDMDL
MODEL 8
REMARK VINA RESULT:      -5.4      2.971      5.082
REMARK  Name = 
REMARK  4 active torsions:
REMARK  status: ('A' for Active; 'I' for Inactive)
REMARK    1  A    between atoms: C_2  and  O_3
REMARK    2  A    between atoms: C_2  and  C_4
REMARK    3  A    between atoms: C_12  and  C_13
REMARK    4  A    between atoms: C_13  and  S_14
REMARK                            x       y       z     vdW  Elec       q    Type
REMARK                         _______ _______ _______ _____ _____    ______ ____
ROOT
ATOM      1  C   UNL     1       6.662   5.248  17.253  0.00  0.00    +0.000 C 
ATOM      2  C   UNL     1       7.063   5.083  15.782  0.00  0.00    +0.000 C 
ATOM      3  C   UNL     1       6.471   3.820  15.210  0.00  0.00    +0.000 C 
ATOM      4  C   UNL     1       4.965   3.907  15.342  0.00  0.00    +0.000 C 
ATOM      5  N   UNL     1       4.529   4.085  16.720  0.00  0.00    +0.000 N 
ATOM      6  C   UNL     1       3.219   3.709  17.026  0.00  0.00    +0.000 C 
ATOM      7  O   UNL     1       2.463   3.175  16.217  0.00  0.00    +0.000 OA
ATOM      8  C   UNL     1       2.808   3.874  18.463  0.00  0.00    +0.000 C 
ATOM      9  C   UNL     1       3.292   5.195  19.023  0.00  0.00    +0.000 C 
ATOM     10  C   UNL     1       4.795   5.237  18.832  0.00  0.00    +0.000 C 
ATOM     11  O   UNL     1       5.590   5.410  19.757  0.00  0.00    +0.000 OA
ATOM     12  N   UNL     1       5.205   5.124  17.496  0.00  0.00    +0.000 N 
ENDROOT
BRANCH   1  14
ATOM     13  O   UNL     1       6.835   7.701  17.139  0.00  0.00    +0.000 OA
ATOM     14  C   UNL     1       7.168   6.650  17.672  0.00  0.00    +0.000 C 
BRANCH  14  15
ATOM     15  O   UNL     1       8.014   6.643  18.732  0.00  0.00    +0.000 OA
ATOM     16  H   UNL     1       7.871   5.860  19.318  0.00  0.00    +0.000 HD
ENDBRANCH  14  15
ENDBRANCH   1  14
BRANCH   9  17
ATOM     17  C   UNL     1       2.954   5.386  20.506  0.00  0.00    +0.000 C 
BRANCH  17  18
ATOM     18  S   UNL     1       2.125   3.948  21.256  0.00  0.00    +0.000 S 
ATOM     19  H   UNL     1       0.890   4.471  21.299  0.00  0.00    +0.000 HD
ENDBRANCH  17  18
ENDBRANCH   9  17
TORSDOF 4
ENDMDL
MODEL 9
REMARK VINA RESULT:      -5.4      2.534      4.343
REMARK  Name = 
REMARK  4 active torsions:
REMARK  status: ('A' for Active; 'I' for Inactive)
REMARK    1  A    between atoms: C_2  and  O_3
REMARK    2  A    between atoms: C_2  and  C_4
REMARK    3  A    between atoms: C_12  and  C_13
REMARK    4  A    between atoms: C_13  and  S_14
REMARK                            x       y       z     vdW  Elec       q    Type
REMARK                         _______ _______ _______ _____ _____    ______ ____
ROOT
ATOM      1  C   UNL     1       4.870   5.083  16.702  0.00  0.00    +0.000 C 
ATOM      2  C   UNL     1       5.287   6.446  16.135  0.00  0.00    +0.000 C 
ATOM      3  C   UNL     1       4.164   7.443  16.272  0.00  0.00    +0.000 C 
ATOM      4  C   UNL     1       3.820   7.561  17.742  0.00  0.00    +0.000 C 
ATOM      5  N   UNL     1       3.437   6.289  18.337  0.00  0.00    +0.000 N 
ATOM      6  C   UNL     1       2.663   6.338  19.500  0.00  0.00    +0.000 C 
ATOM      7  O   UNL     1       2.241   7.385  19.986  0.00  0.00    +0.000 OA
ATOM      8  C   UNL     1       2.256   5.009  20.072  0.00  0.00    +0.000 C 
ATOM      9  C   UNL     1       3.408   4.027  20.053  0.00  0.00    +0.000 C 
ATOM     10  C   UNL     1       3.888   3.928  18.619  0.00  0.00    +0.000 C 
ATOM     11  O   UNL     1       3.954   2.865  18.000  0.00  0.00    +0.000 OA
ATOM     12  N   UNL     1       4.311   5.148  18.072  0.00  0.00    +0.000 N 
ENDROOT
BRANCH   1  14
ATOM     13  O   UNL     1       7.165   4.437  17.314  0.00  0.00    +0.000 OA
ATOM     14  C   UNL     1       6.147   4.208  16.673  0.00  0.00    +0.000 C 
BRANCH  14  15
ATOM     15  O   UNL     1       6.052   3.108  15.884  0.00  0.00    +0.000 OA
ATOM     16  H   UNL     1       6.846   2.524  15.964  0.00  0.00    +0.000 HD
ENDBRANCH  14  15
ENDBRANCH   1  14
BRANCH   9  17
ATOM     17  C   UNL     1       3.027   2.634  20.569  0.00  0.00    +0.000 C 
BRANCH  17  18
ATOM     18  S   UNL     1       1.509   2.619  21.574  0.00  0.00    +0.000 S 
ATOM     19  H   UNL     1       0.771   1.857  20.752  0.00  0.00    +0.000 HD
ENDBRANCH  17  18
ENDBRANCH   9  17
TORSDOF 4
ENDMDL
