MODEL 1
REMARK VINA RESULT:      -9.0      0.000      0.000
REMARK  Name = 
REMARK  5 active torsions:
REMARK  status: ('A' for Active; 'I' for Inactive)
REMARK    1  A    between atoms: C_1  and  C_2
REMARK    2  A    between atoms: C_2  and  C_3
REMARK    3  A    between atoms: C_2  and  C_4
REMARK    4  A    between atoms: C_7  and  C_8
REMARK    5  A    between atoms: C_8  and  N_9
REMARK                            x       y       z     vdW  Elec       q    Type
REMARK                         _______ _______ _______ _____ _____    ______ ____
ROOT
ATOM      1  N   UNL     1       2.766   6.226  19.321  0.00  0.00    +0.000 N 
ATOM      2  C   UNL     1       3.678   6.194  18.211  0.00  0.00    +0.000 C 
ATOM      3  O   UNL     1       4.286   7.116  17.715  0.00  0.00    +0.000 OA
ATOM      4  C   UNL     1       3.918   4.691  17.797  0.00  0.00    +0.000 C 
ATOM      5  C   UNL     1       4.693   4.083  16.630  0.00  0.00    +0.000 C 
ATOM      6  C   UNL     1       6.157   4.438  16.551  0.00  0.00    +0.000 C 
ATOM      7  N   UNL     1       6.867   4.168  17.793  0.00  0.00    +0.000 NA
ATOM      8  C   UNL     1       6.177   4.722  18.948  0.00  0.00    +0.000 C 
ATOM      9  C   UNL     1       4.728   4.178  19.051  0.00  0.00    +0.000 C 
ATOM     10  N   UNL     1       2.532   4.246  17.425  0.00  0.00    +0.000 N 
ATOM     11  C   UNL     1       1.733   4.167  18.573  0.00  0.00    +0.000 A 
ATOM     12  C   UNL     1       0.933   3.032  18.640  0.00  0.00    +0.000 A 
ATOM     13  C   UNL     1       0.840   2.422  19.859  0.00  0.00    +0.000 A 
ATOM     14  C   UNL     1       1.413   3.056  20.968  0.00  0.00    +0.000 A 
ATOM     15  C   UNL     1       1.900   4.396  20.893  0.00  0.00    +0.000 A 
ATOM     16  C   UNL     1       2.003   5.024  19.653  0.00  0.00    +0.000 A 
ATOM     17  H   UNL     1       7.805   4.562  17.727  0.00  0.00    +0.000 HD
ATOM     18  H   UNL     1       2.125   4.985  16.841  0.00  0.00    +0.000 HD
ENDROOT
BRANCH   1  19
ATOM     19  C   UNL     1       2.623   7.476  20.062  0.00  0.00    +0.000 C 
BRANCH  19  23
ATOM     20  C   UNL     1      -0.467  10.324  18.762  0.00  0.00    +0.000 A 
ATOM     21  C   UNL     1      -0.358   9.903  20.098  0.00  0.00    +0.000 A 
ATOM     22  C   UNL     1       0.612   8.968  20.505  0.00  0.00    +0.000 A 
ATOM     23  C   UNL     1       1.517   8.430  19.584  0.00  0.00    +0.000 A 
ATOM     24  C   UNL     1       1.425   8.873  18.249  0.00  0.00    +0.000 A 
ATOM     25  C   UNL     1       0.451   9.805  17.838  0.00  0.00    +0.000 A 
BRANCH  20  27
ATOM     26  C   UNL     1      -0.948  12.754  18.243  0.00  0.00    +0.000 C 
ATOM     27  C   UNL     1      -1.534  11.347  18.392  0.00  0.00    +0.000 C 
ATOM     28  C   UNL     1      -2.351  10.990  17.142  0.00  0.00    +0.000 C 
ENDBRANCH  20  27
ENDBRANCH  19  23
ENDBRANCH   1  19
TORSDOF 3
ENDMDL
MODEL 2
REMARK VINA RESULT:      -8.8      0.521      1.273
REMARK  Name = 
REMARK  5 active torsions:
REMARK  status: ('A' for Active; 'I' for Inactive)
REMARK    1  A    between atoms: C_1  and  C_2
REMARK    2  A    between atoms: C_2  and  C_3
REMARK    3  A    between atoms: C_2  and  C_4
REMARK    4  A    between atoms: C_7  and  C_8
REMARK    5  A    between atoms: C_8  and  N_9
REMARK                            x       y       z     vdW  Elec       q    Type
REMARK                         _______ _______ _______ _____ _____    ______ ____
ROOT
ATOM      1  N   UNL     1       2.817   6.369  19.205  0.00  0.00    +0.000 N 
ATOM      2  C   UNL     1       3.610   6.245  18.013  0.00  0.00    +0.000 C 
ATOM      3  O   UNL     1       4.161   7.121  17.386  0.00  0.00    +0.000 OA
ATOM      4  C   UNL     1       3.809   4.712  17.695  0.00  0.00    +0.000 C 
ATOM      5  C   UNL     1       4.460   4.010  16.505  0.00  0.00    +0.000 C 
ATOM      6  C   UNL     1       5.907   4.349  16.248  0.00  0.00    +0.000 C 
ATOM      7  N   UNL     1       6.743   4.172  17.427  0.00  0.00    +0.000 NA
ATOM      8  C   UNL     1       6.174   4.819  18.601  0.00  0.00    +0.000 C 
ATOM      9  C   UNL     1       4.746   4.293  18.895  0.00  0.00    +0.000 C 
ATOM     10  N   UNL     1       2.392   4.248  17.505  0.00  0.00    +0.000 N 
ATOM     11  C   UNL     1       1.717   4.263  18.732  0.00  0.00    +0.000 A 
ATOM     12  C   UNL     1       0.931   3.142  18.970  0.00  0.00    +0.000 A 
ATOM     13  C   UNL     1       0.966   2.630  20.236  0.00  0.00    +0.000 A 
ATOM     14  C   UNL     1       1.650   3.345  21.227  0.00  0.00    +0.000 A 
ATOM     15  C   UNL     1       2.123   4.672  20.997  0.00  0.00    +0.000 A 
ATOM     16  C   UNL     1       2.096   5.201  19.708  0.00  0.00    +0.000 A 
ATOM     17  H   UNL     1       7.668   4.555  17.234  0.00  0.00    +0.000 HD
ATOM     18  H   UNL     1       1.926   4.942  16.910  0.00  0.00    +0.000 HD
ENDROOT
BRANCH   1  19
ATOM     19  C   UNL     1       2.749   7.673  19.858  0.00  0.00    +0.000 C 
BRANCH  19  23
ATOM     20  C   UNL     1      -0.676  10.146  18.631  0.00  0.00    +0.000 A 
ATOM     21  C   UNL     1       0.242   9.631  17.700  0.00  0.00    +0.000 A 
ATOM     22  C   UNL     1       1.354   8.865  18.099  0.00  0.00    +0.000 A 
ATOM     23  C   UNL     1       1.578   8.580  19.450  0.00  0.00    +0.000 A 
ATOM     24  C   UNL     1       0.643   9.074  20.381  0.00  0.00    +0.000 A 
ATOM     25  C   UNL     1      -0.469   9.845  19.985  0.00  0.00    +0.000 A 
BRANCH  20  27
ATOM     26  C   UNL     1      -3.001  10.060  17.634  0.00  0.00    +0.000 C 
ATOM     27  C   UNL     1      -1.863  10.958  18.131  0.00  0.00    +0.000 C 
ATOM     28  C   UNL     1      -2.409  11.976  19.141  0.00  0.00    +0.000 C 
ENDBRANCH  20  27
ENDBRANCH  19  23
ENDBRANCH   1  19
TORSDOF 3
ENDMDL
MODEL 3
REMARK VINA RESULT:      -8.4      1.017      1.229
REMARK  Name = 
REMARK  5 active torsions:
REMARK  status: ('A' for Active; 'I' for Inactive)
REMARK    1  A    between atoms: C_1  and  C_2
REMARK    2  A    between atoms: C_2  and  C_3
REMARK    3  A    between atoms: C_2  and  C_4
REMARK    4  A    between atoms: C_7  and  C_8
REMARK    5  A    between atoms: C_8  and  N_9
REMARK                            x       y       z     vdW  Elec       q    Type
REMARK                         _______ _______ _______ _____ _____    ______ ____
ROOT
ATOM      1  N   UNL     1       3.490   5.951  18.778  0.00  0.00    +0.000 N 
ATOM      2  C   UNL     1       4.343   6.039  17.625  0.00  0.00    +0.000 C 
ATOM      3  O   UNL     1       4.865   7.023  17.154  0.00  0.00    +0.000 OA
ATOM      4  C   UNL     1       4.654   4.579  17.113  0.00  0.00    +0.000 C 
ATOM      5  C   UNL     1       5.403   4.087  15.877  0.00  0.00    +0.000 C 
ATOM      6  C   UNL     1       6.835   4.540  15.747  0.00  0.00    +0.000 C 
ATOM      7  N   UNL     1       7.625   4.250  16.935  0.00  0.00    +0.000 NA
ATOM      8  C   UNL     1       6.963   4.694  18.153  0.00  0.00    +0.000 C 
ATOM      9  C   UNL     1       5.559   4.052  18.295  0.00  0.00    +0.000 C 
ATOM     10  N   UNL     1       3.280   4.066  16.785  0.00  0.00    +0.000 N 
ATOM     11  C   UNL     1       2.550   3.872  17.965  0.00  0.00    +0.000 A 
ATOM     12  C   UNL     1       1.826   2.686  18.005  0.00  0.00    +0.000 A 
ATOM     13  C   UNL     1       1.836   2.005  19.190  0.00  0.00    +0.000 A 
ATOM     14  C   UNL     1       2.426   2.614  20.304  0.00  0.00    +0.000 A 
ATOM     15  C   UNL     1       2.823   3.985  20.282  0.00  0.00    +0.000 A 
ATOM     16  C   UNL     1       2.822   4.685  19.078  0.00  0.00    +0.000 A 
ATOM     17  H   UNL     1       8.532   4.707  16.846  0.00  0.00    +0.000 HD
ATOM     18  H   UNL     1       2.798   4.807  16.265  0.00  0.00    +0.000 HD
ENDROOT
BRANCH   1  19
ATOM     19  C   UNL     1       3.308   7.146  19.597  0.00  0.00    +0.000 C 
BRANCH  19  23
ATOM     20  C   UNL     1      -0.020   9.849  18.614  0.00  0.00    +0.000 A 
ATOM     21  C   UNL     1       0.247   9.446  19.933  0.00  0.00    +0.000 A 
ATOM     22  C   UNL     1       1.294   8.557  20.240  0.00  0.00    +0.000 A 
ATOM     23  C   UNL     1       2.119   8.048  19.232  0.00  0.00    +0.000 A 
ATOM     24  C   UNL     1       1.868   8.472  17.912  0.00  0.00    +0.000 A 
ATOM     25  C   UNL     1       0.817   9.359  17.600  0.00  0.00    +0.000 A 
BRANCH  20  27
ATOM     26  C   UNL     1      -2.387  10.118  17.759  0.00  0.00    +0.000 C 
ATOM     27  C   UNL     1      -1.163  10.822  18.352  0.00  0.00    +0.000 C 
ATOM     28  C   UNL     1      -1.583  11.653  19.572  0.00  0.00    +0.000 C 
ENDBRANCH  20  27
ENDBRANCH  19  23
ENDBRANCH   1  19
TORSDOF 3
ENDMDL
MODEL 4
REMARK VINA RESULT:      -8.1      1.997      4.124
REMARK  Name = 
REMARK  5 active torsions:
REMARK  status: ('A' for Active; 'I' for Inactive)
REMARK    1  A    between atoms: C_1  and  C_2
REMARK    2  A    between atoms: C_2  and  C_3
REMARK    3  A    between atoms: C_2  and  C_4
REMARK    4  A    between atoms: C_7  and  C_8
REMARK    5  A    between atoms: C_8  and  N_9
REMARK                            x       y       z     vdW  Elec       q    Type
REMARK                         _______ _______ _______ _____ _____    ______ ____
ROOT
ATOM      1  N   UNL     1       3.314   6.322  18.285  0.00  0.00    +0.000 N 
ATOM      2  C   UNL     1       2.716   5.184  18.929  0.00  0.00    +0.000 C 
ATOM      3  O   UNL     1       1.565   5.038  19.272  0.00  0.00    +0.000 OA
ATOM      4  C   UNL     1       3.780   4.021  18.992  0.00  0.00    +0.000 C 
ATOM      5  C   UNL     1       3.728   2.648  19.657  0.00  0.00    +0.000 C 
ATOM      6  C   UNL     1       2.618   1.735  19.203  0.00  0.00    +0.000 C 
ATOM      7  N   UNL     1       2.582   1.570  17.757  0.00  0.00    +0.000 NA
ATOM      8  C   UNL     1       2.631   2.847  17.061  0.00  0.00    +0.000 C 
ATOM      9  C   UNL     1       3.893   3.656  17.460  0.00  0.00    +0.000 C 
ATOM     10  N   UNL     1       4.874   4.646  19.811  0.00  0.00    +0.000 N 
ATOM     11  C   UNL     1       5.505   5.655  19.072  0.00  0.00    +0.000 A 
ATOM     12  C   UNL     1       6.892   5.652  19.163  0.00  0.00    +0.000 A 
ATOM     13  C   UNL     1       7.580   5.883  18.004  0.00  0.00    +0.000 A 
ATOM     14  C   UNL     1       6.859   6.258  16.864  0.00  0.00    +0.000 A 
ATOM     15  C   UNL     1       5.475   6.599  16.935  0.00  0.00    +0.000 A 
ATOM     16  C   UNL     1       4.765   6.362  18.110  0.00  0.00    +0.000 A 
ATOM     17  H   UNL     1       1.731   1.069  17.504  0.00  0.00    +0.000 HD
ATOM     18  H   UNL     1       4.425   5.110  20.609  0.00  0.00    +0.000 HD
ENDROOT
BRANCH   1  19
ATOM     19  C   UNL     1       2.441   7.408  17.850  0.00  0.00    +0.000 C 
BRANCH  19  23
ATOM     20  C   UNL     1       0.633   9.927  20.970  0.00  0.00    +0.000 A 
ATOM     21  C   UNL     1       0.617  10.295  19.615  0.00  0.00    +0.000 A 
ATOM     22  C   UNL     1       1.224   9.502  18.623  0.00  0.00    +0.000 A 
ATOM     23  C   UNL     1       1.859   8.301  18.956  0.00  0.00    +0.000 A 
ATOM     24  C   UNL     1       1.852   7.918  20.312  0.00  0.00    +0.000 A 
ATOM     25  C   UNL     1       1.250   8.713  21.309  0.00  0.00    +0.000 A 
BRANCH  20  27
ATOM     26  C   UNL     1      -1.031  11.799  21.329  0.00  0.00    +0.000 C 
ATOM     27  C   UNL     1      -0.050  10.827  21.992  0.00  0.00    +0.000 C 
ATOM     28  C   UNL     1      -0.753  10.077  23.131  0.00  0.00    +0.000 C 
ENDBRANCH  20  27
ENDBRANCH  19  23
ENDBRANCH   1  19
TORSDOF 3
ENDMDL
MODEL 5
REMARK VINA RESULT:      -7.7      3.426      7.769
REMARK  Name = 
REMARK  5 active torsions:
REMARK  status: ('A' for Active; 'I' for Inactive)
REMARK    1  A    between atoms: C_1  and  C_2
REMARK    2  A    between atoms: C_2  and  C_3
REMARK    3  A    between atoms: C_2  and  C_4
REMARK    4  A    between atoms: C_7  and  C_8
REMARK    5  A    between atoms: C_8  and  N_9
REMARK                            x       y       z     vdW  Elec       q    Type
REMARK                         _______ _______ _______ _____ _____    ______ ____
ROOT
ATOM      1  N   UNL     1      -0.032  10.524  20.044  0.00  0.00    +0.000 N 
ATOM      2  C   UNL     1       0.591  11.769  20.401  0.00  0.00    +0.000 C 
ATOM      3  O   UNL     1       1.421  11.972  21.257  0.00  0.00    +0.000 OA
ATOM      4  C   UNL     1       0.142  12.873  19.367  0.00  0.00    +0.000 C 
ATOM      5  C   UNL     1       0.402  14.377  19.329  0.00  0.00    +0.000 C 
ATOM      6  C   UNL     1       1.850  14.797  19.292  0.00  0.00    +0.000 C 
ATOM      7  N   UNL     1       2.594  14.152  18.219  0.00  0.00    +0.000 NA
ATOM      8  C   UNL     1       2.386  12.712  18.200  0.00  0.00    +0.000 C 
ATOM      9  C   UNL     1       0.881  12.363  18.068  0.00  0.00    +0.000 C 
ATOM     10  N   UNL     1      -1.348  12.890  19.560  0.00  0.00    +0.000 N 
ATOM     11  C   UNL     1      -1.906  11.704  19.065  0.00  0.00    +0.000 A 
ATOM     12  C   UNL     1      -3.067  11.881  18.321  0.00  0.00    +0.000 A 
ATOM     13  C   UNL     1      -3.186  11.125  17.188  0.00  0.00    +0.000 A 
ATOM     14  C   UNL     1      -2.230  10.132  16.945  0.00  0.00    +0.000 A 
ATOM     15  C   UNL     1      -1.273   9.759  17.936  0.00  0.00    +0.000 A 
ATOM     16  C   UNL     1      -1.140  10.527  19.091  0.00  0.00    +0.000 A 
ATOM     17  H   UNL     1       3.586  14.358  18.338  0.00  0.00    +0.000 HD
ATOM     18  H   UNL     1      -1.521  12.891  20.571  0.00  0.00    +0.000 HD
ENDROOT
BRANCH   1  19
ATOM     19  C   UNL     1       0.460   9.300  20.671  0.00  0.00    +0.000 C 
BRANCH  19  23
ATOM     20  C   UNL     1       3.172   6.801  18.272  0.00  0.00    +0.000 A 
ATOM     21  C   UNL     1       2.676   6.379  19.517  0.00  0.00    +0.000 A 
ATOM     22  C   UNL     1       1.833   7.194  20.296  0.00  0.00    +0.000 A 
ATOM     23  C   UNL     1       1.448   8.460  19.846  0.00  0.00    +0.000 A 
ATOM     24  C   UNL     1       1.923   8.874  18.585  0.00  0.00    +0.000 A 
ATOM     25  C   UNL     1       2.772   8.061  17.805  0.00  0.00    +0.000 A 
BRANCH  20  27
ATOM     26  C   UNL     1       4.965   6.630  16.495  0.00  0.00    +0.000 C 
ATOM     27  C   UNL     1       4.072   5.865  17.476  0.00  0.00    +0.000 C 
ATOM     28  C   UNL     1       4.929   4.924  18.334  0.00  0.00    +0.000 C 
ENDBRANCH  20  27
ENDBRANCH  19  23
ENDBRANCH   1  19
TORSDOF 3
ENDMDL
MODEL 6
REMARK VINA RESULT:      -7.6      1.464      2.305
REMARK  Name = 
REMARK  5 active torsions:
REMARK  status: ('A' for Active; 'I' for Inactive)
REMARK    1  A    between atoms: C_1  and  C_2
REMARK    2  A    between atoms: C_2  and  C_3
REMARK    3  A    between atoms: C_2  and  C_4
REMARK    4  A    between atoms: C_7  and  C_8
REMARK    5  A    between atoms: C_8  and  N_9
REMARK                            x       y       z     vdW  Elec       q    Type
REMARK                         _______ _______ _______ _____ _____    ______ ____
ROOT
ATOM      1  N   UNL     1       3.110   6.725  17.810  0.00  0.00    +0.000 N 
ATOM      2  C   UNL     1       4.324   6.343  17.143  0.00  0.00    +0.000 C 
ATOM      3  O   UNL     1       5.057   7.032  16.470  0.00  0.00    +0.000 OA
ATOM      4  C   UNL     1       4.681   4.861  17.552  0.00  0.00    +0.000 C 
ATOM      5  C   UNL     1       5.783   3.923  17.063  0.00  0.00    +0.000 C 
ATOM      6  C   UNL     1       7.197   4.414  17.241  0.00  0.00    +0.000 C 
ATOM      7  N   UNL     1       7.483   4.819  18.610  0.00  0.00    +0.000 NA
ATOM      8  C   UNL     1       6.466   5.717  19.137  0.00  0.00    +0.000 C 
ATOM      9  C   UNL     1       5.058   5.070  19.071  0.00  0.00    +0.000 C 
ATOM     10  N   UNL     1       3.481   4.105  17.058  0.00  0.00    +0.000 N 
ATOM     11  C   UNL     1       2.363   4.421  17.841  0.00  0.00    +0.000 A 
ATOM     12  C   UNL     1       1.582   3.328  18.196  0.00  0.00    +0.000 A 
ATOM     13  C   UNL     1       1.112   3.305  19.479  0.00  0.00    +0.000 A 
ATOM     14  C   UNL     1       1.309   4.436  20.282  0.00  0.00    +0.000 A 
ATOM     15  C   UNL     1       1.795   5.662  19.737  0.00  0.00    +0.000 A 
ATOM     16  C   UNL     1       2.282   5.693  18.432  0.00  0.00    +0.000 A 
ATOM     17  H   UNL     1       8.395   5.276  18.634  0.00  0.00    +0.000 HD
ATOM     18  H   UNL     1       3.278   4.447  16.112  0.00  0.00    +0.000 HD
ENDROOT
BRANCH   1  19
ATOM     19  C   UNL     1       2.742   8.138  17.821  0.00  0.00    +0.000 C 
BRANCH  19  23
ATOM     20  C   UNL     1       0.155   9.532  21.094  0.00  0.00    +0.000 A 
ATOM     21  C   UNL     1       1.305   8.762  21.331  0.00  0.00    +0.000 A 
ATOM     22  C   UNL     1       2.114   8.291  20.280  0.00  0.00    +0.000 A 
ATOM     23  C   UNL     1       1.801   8.589  18.950  0.00  0.00    +0.000 A 
ATOM     24  C   UNL     1       0.662   9.384  18.712  0.00  0.00    +0.000 A 
ATOM     25  C   UNL     1      -0.153   9.852  19.764  0.00  0.00    +0.000 A 
BRANCH  20  27
ATOM     26  C   UNL     1      -0.129   9.483  23.609  0.00  0.00    +0.000 C 
ATOM     27  C   UNL     1      -0.671  10.017  22.279  0.00  0.00    +0.000 C 
ATOM     28  C   UNL     1      -0.833  11.542  22.360  0.00  0.00    +0.000 C 
ENDBRANCH  20  27
ENDBRANCH  19  23
ENDBRANCH   1  19
TORSDOF 3
ENDMDL
MODEL 7
REMARK VINA RESULT:      -7.5      2.383      6.597
REMARK  Name = 
REMARK  5 active torsions:
REMARK  status: ('A' for Active; 'I' for Inactive)
REMARK    1  A    between atoms: C_1  and  C_2
REMARK    2  A    between atoms: C_2  and  C_3
REMARK    3  A    between atoms: C_2  and  C_4
REMARK    4  A    between atoms: C_7  and  C_8
REMARK    5  A    between atoms: C_8  and  N_9
REMARK                            x       y       z     vdW  Elec       q    Type
REMARK                         _______ _______ _______ _____ _____    ______ ____
ROOT
ATOM      1  N   UNL     1       4.248   4.416  19.097  0.00  0.00    +0.000 N 
ATOM      2  C   UNL     1       4.143   5.817  19.399  0.00  0.00    +0.000 C 
ATOM      3  O   UNL     1       5.020   6.651  19.393  0.00  0.00    +0.000 OA
ATOM      4  C   UNL     1       2.621   6.179  19.598  0.00  0.00    +0.000 C 
ATOM      5  C   UNL     1       1.947   7.477  20.039  0.00  0.00    +0.000 C 
ATOM      6  C   UNL     1       2.222   8.688  19.184  0.00  0.00    +0.000 C 
ATOM      7  N   UNL     1       1.941   8.455  17.775  0.00  0.00    +0.000 NA
ATOM      8  C   UNL     1       2.556   7.228  17.291  0.00  0.00    +0.000 C 
ATOM      9  C   UNL     1       2.092   6.003  18.121  0.00  0.00    +0.000 C 
ATOM     10  N   UNL     1       2.243   5.303  20.759  0.00  0.00    +0.000 N 
ATOM     11  C   UNL     1       2.231   3.961  20.359  0.00  0.00    +0.000 A 
ATOM     12  C   UNL     1       1.142   3.232  20.823  0.00  0.00    +0.000 A 
ATOM     13  C   UNL     1       0.564   2.367  19.936  0.00  0.00    +0.000 A 
ATOM     14  C   UNL     1       1.191   2.160  18.702  0.00  0.00    +0.000 A 
ATOM     15  C   UNL     1       2.500   2.660  18.436  0.00  0.00    +0.000 A 
ATOM     16  C   UNL     1       3.095   3.547  19.331  0.00  0.00    +0.000 A 
ATOM     17  H   UNL     1       2.283   9.251  17.236  0.00  0.00    +0.000 HD
ATOM     18  H   UNL     1       2.990   5.390  21.457  0.00  0.00    +0.000 HD
ENDROOT
BRANCH   1  19
ATOM     19  C   UNL     1       5.518   3.911  18.585  0.00  0.00    +0.000 C 
BRANCH  19  23
ATOM     20  C   UNL     1       6.505   4.683  14.368  0.00  0.00    +0.000 A 
ATOM     21  C   UNL     1       7.458   4.815  15.392  0.00  0.00    +0.000 A 
ATOM     22  C   UNL     1       7.131   4.597  16.744  0.00  0.00    +0.000 A 
ATOM     23  C   UNL     1       5.835   4.227  17.115  0.00  0.00    +0.000 A 
ATOM     24  C   UNL     1       4.885   4.069  16.086  0.00  0.00    +0.000 A 
ATOM     25  C   UNL     1       5.208   4.292  14.732  0.00  0.00    +0.000 A 
BRANCH  20  27
ATOM     26  C   UNL     1       8.304   5.592  12.838  0.00  0.00    +0.000 C 
ATOM     27  C   UNL     1       6.928   4.925  12.925  0.00  0.00    +0.000 C 
ATOM     28  C   UNL     1       6.901   3.674  12.036  0.00  0.00    +0.000 C 
ENDBRANCH  20  27
ENDBRANCH  19  23
ENDBRANCH   1  19
TORSDOF 3
ENDMDL
MODEL 8
REMARK VINA RESULT:      -7.5      1.639      2.521
REMARK  Name = 
REMARK  5 active torsions:
REMARK  status: ('A' for Active; 'I' for Inactive)
REMARK    1  A    between atoms: C_1  and  C_2
REMARK    2  A    between atoms: C_2  and  C_3
REMARK    3  A    between atoms: C_2  and  C_4
REMARK    4  A    between atoms: C_7  and  C_8
REMARK    5  A    between atoms: C_8  and  N_9
REMARK                            x       y       z     vdW  Elec       q    Type
REMARK                         _______ _______ _______ _____ _____    ______ ____
ROOT
ATOM      1  N   UNL     1       3.334   6.421  17.447  0.00  0.00    +0.000 N 
ATOM      2  C   UNL     1       4.687   6.188  17.020  0.00  0.00    +0.000 C 
ATOM      3  O   UNL     1       5.447   6.962  16.486  0.00  0.00    +0.000 OA
ATOM      4  C   UNL     1       5.130   4.754  17.508  0.00  0.00    +0.000 C 
ATOM      5  C   UNL     1       6.403   3.953  17.243  0.00  0.00    +0.000 C 
ATOM      6  C   UNL     1       7.694   4.603  17.673  0.00  0.00    +0.000 C 
ATOM      7  N   UNL     1       7.673   5.026  19.066  0.00  0.00    +0.000 NA
ATOM      8  C   UNL     1       6.479   5.796  19.384  0.00  0.00    +0.000 C 
ATOM      9  C   UNL     1       5.192   4.991  19.067  0.00  0.00    +0.000 C 
ATOM     10  N   UNL     1       4.137   3.868  16.810  0.00  0.00    +0.000 N 
ATOM     11  C   UNL     1       2.864   4.047  17.368  0.00  0.00    +0.000 A 
ATOM     12  C   UNL     1       2.162   2.867  17.587  0.00  0.00    +0.000 A 
ATOM     13  C   UNL     1       1.468   2.780  18.761  0.00  0.00    +0.000 A 
ATOM     14  C   UNL     1       1.382   3.918  19.571  0.00  0.00    +0.000 A 
ATOM     15  C   UNL     1       1.816   5.197  19.110  0.00  0.00    +0.000 A 
ATOM     16  C   UNL     1       2.529   5.295  17.917  0.00  0.00    +0.000 A 
ATOM     17  H   UNL     1       8.506   5.584  19.252  0.00  0.00    +0.000 HD
ATOM     18  H   UNL     1       4.075   4.193  15.838  0.00  0.00    +0.000 HD
ENDROOT
BRANCH   1  19
ATOM     19  C   UNL     1       2.811   7.782  17.371  0.00  0.00    +0.000 C 
BRANCH  19  23
ATOM     20  C   UNL     1       0.527   9.180  20.862  0.00  0.00    +0.000 A 
ATOM     21  C   UNL     1       0.372   9.757  19.591  0.00  0.00    +0.000 A 
ATOM     22  C   UNL     1       1.126   9.328  18.483  0.00  0.00    +0.000 A 
ATOM     23  C   UNL     1       2.058   8.293  18.610  0.00  0.00    +0.000 A 
ATOM     24  C   UNL     1       2.195   7.695  19.878  0.00  0.00    +0.000 A 
ATOM     25  C   UNL     1       1.444   8.126  20.991  0.00  0.00    +0.000 A 
BRANCH  20  27
ATOM     26  C   UNL     1       0.281   9.333  23.376  0.00  0.00    +0.000 C 
ATOM     27  C   UNL     1      -0.329   9.685  22.016  0.00  0.00    +0.000 C 
ATOM     28  C   UNL     1      -0.647  11.186  21.963  0.00  0.00    +0.000 C 
ENDBRANCH  20  27
ENDBRANCH  19  23
ENDBRANCH   1  19
TORSDOF 3
ENDMDL
MODEL 9
REMARK VINA RESULT:      -7.4      1.215      1.696
REMARK  Name = 
REMARK  5 active torsions:
REMARK  status: ('A' for Active; 'I' for Inactive)
REMARK    1  A    between atoms: C_1  and  C_2
REMARK    2  A    between atoms: C_2  and  C_3
REMARK    3  A    between atoms: C_2  and  C_4
REMARK    4  A    between atoms: C_7  and  C_8
REMARK    5  A    between atoms: C_8  and  N_9
REMARK                            x       y       z     vdW  Elec       q    Type
REMARK                         _______ _______ _______ _____ _____    ______ ____
ROOT
ATOM      1  N   UNL     1       3.278   7.117  18.150  0.00  0.00    +0.000 N 
ATOM      2  C   UNL     1       4.205   6.578  17.194  0.00  0.00    +0.000 C 
ATOM      3  O   UNL     1       4.889   7.177  16.395  0.00  0.00    +0.000 OA
ATOM      4  C   UNL     1       4.339   5.025  17.439  0.00  0.00    +0.000 C 
ATOM      5  C   UNL     1       5.087   3.947  16.659  0.00  0.00    +0.000 C 
ATOM      6  C   UNL     1       6.574   4.148  16.511  0.00  0.00    +0.000 C 
ATOM      7  N   UNL     1       7.240   4.367  17.788  0.00  0.00    +0.000 NA
ATOM      8  C   UNL     1       6.572   5.387  18.583  0.00  0.00    +0.000 C 
ATOM      9  C   UNL     1       5.085   5.022  18.831  0.00  0.00    +0.000 C 
ATOM     10  N   UNL     1       2.930   4.553  17.216  0.00  0.00    +0.000 N 
ATOM     11  C   UNL     1       2.107   4.999  18.258  0.00  0.00    +0.000 A 
ATOM     12  C   UNL     1       1.223   4.043  18.743  0.00  0.00    +0.000 A 
ATOM     13  C   UNL     1       1.063   3.992  20.100  0.00  0.00    +0.000 A 
ATOM     14  C   UNL     1       1.662   4.989  20.880  0.00  0.00    +0.000 A 
ATOM     15  C   UNL     1       2.249   6.147  20.289  0.00  0.00    +0.000 A 
ATOM     16  C   UNL     1       2.421   6.205  18.907  0.00  0.00    +0.000 A 
ATOM     17  H   UNL     1       8.206   4.642  17.611  0.00  0.00    +0.000 HD
ATOM     18  H   UNL     1       2.591   5.011  16.363  0.00  0.00    +0.000 HD
ENDROOT
BRANCH   1  19
ATOM     19  C   UNL     1       3.215   8.567  18.312  0.00  0.00    +0.000 C 
BRANCH  19  23
ATOM     20  C   UNL     1      -0.819  10.292  17.993  0.00  0.00    +0.000 A 
ATOM     21  C   UNL     1      -0.446   9.136  17.289  0.00  0.00    +0.000 A 
ATOM     22  C   UNL     1       0.854   8.603  17.369  0.00  0.00    +0.000 A 
ATOM     23  C   UNL     1       1.827   9.210  18.171  0.00  0.00    +0.000 A 
ATOM     24  C   UNL     1       1.446  10.355  18.898  0.00  0.00    +0.000 A 
ATOM     25  C   UNL     1       0.146  10.893  18.816  0.00  0.00    +0.000 A 
BRANCH  20  27
ATOM     26  C   UNL     1      -3.252   9.669  17.681  0.00  0.00    +0.000 C 
ATOM     27  C   UNL     1      -2.246  10.809  17.869  0.00  0.00    +0.000 C 
ATOM     28  C   UNL     1      -2.698  11.714  19.024  0.00  0.00    +0.000 C 
ENDBRANCH  20  27
ENDBRANCH  19  23
ENDBRANCH   1  19
TORSDOF 3
ENDMDL
