MODEL 1
REMARK VINA RESULT:      -6.8      0.000      0.000
REMARK  Name = 
REMARK  5 active torsions:
REMARK  status: ('A' for Active; 'I' for Inactive)
REMARK    1  A    between atoms: C_1  and  C_2
REMARK    2  A    between atoms: C_10  and  C_11
REMARK    3  A    between atoms: C_12  and  C_13
REMARK    4  A    between atoms: C_28  and  C_29
REMARK    5  A    between atoms: C_31  and  N_32
REMARK                            x       y       z     vdW  Elec       q    Type
REMARK                         _______ _______ _______ _____ _____    ______ ____
ROOT
ATOM      1  C   UNL     1      -0.496  13.770  19.034  0.00  0.00    +0.000 C 
ATOM      2  C   UNL     1      -1.409  13.751  20.045  0.00  0.00    +0.000 C 
ATOM      3  C   UNL     1      -2.381  12.676  20.064  0.00  0.00    +0.000 C 
ATOM      4  C   UNL     1      -3.003  11.987  18.643  0.00  0.00    +0.000 C 
ATOM      5  O   UNL     1      -2.468  11.980  17.537  0.00  0.00    +0.000 OA
ATOM      6  C   UNL     1      -4.306  11.478  18.950  0.00  0.00    +0.000 A 
ATOM      7  C   UNL     1      -5.094  10.574  18.250  0.00  0.00    +0.000 A 
ATOM      8  C   UNL     1      -6.472  10.607  18.506  0.00  0.00    +0.000 A 
ATOM      9  C   UNL     1      -7.006  11.606  19.342  0.00  0.00    +0.000 A 
ATOM     10  C   UNL     1      -6.155  12.469  20.061  0.00  0.00    +0.000 A 
ATOM     11  C   UNL     1      -6.554  13.624  20.727  0.00  0.00    +0.000 A 
ATOM     12  C   UNL     1      -5.588  14.474  21.283  0.00  0.00    +0.000 A 
ATOM     13  C   UNL     1      -4.210  14.180  21.256  0.00  0.00    +0.000 A 
ATOM     14  C   UNL     1      -3.799  13.017  20.585  0.00  0.00    +0.000 A 
ATOM     15  C   UNL     1      -4.794  12.256  19.967  0.00  0.00    +0.000 A 
ATOM     16  C   UNL     1      -1.391  11.703  20.633  0.00  0.00    +0.000 C 
ATOM     17  C   UNL     1      -0.745  11.234  19.482  0.00  0.00    +0.000 C 
ATOM     18  O   UNL     1      -0.184  12.375  18.575  0.00  0.00    +0.000 OA
ENDROOT
BRANCH   1  28
ATOM     19  C   UNL     1      -1.031  17.047  18.721  0.00  0.00    +0.000 C 
ATOM     20  C   UNL     1       0.203  16.212  18.751  0.00  0.00    +0.000 A 
ATOM     21  N   UNL     1       1.390  16.893  18.682  0.00  0.00    +0.000 N 
ATOM     22  C   UNL     1       2.443  16.047  18.501  0.00  0.00    +0.000 A 
ATOM     23  C   UNL     1       3.793  16.353  18.266  0.00  0.00    +0.000 A 
ATOM     24  C   UNL     1       4.677  15.296  18.106  0.00  0.00    +0.000 A 
ATOM     25  C   UNL     1       4.225  13.987  18.200  0.00  0.00    +0.000 A 
ATOM     26  C   UNL     1       2.873  13.697  18.462  0.00  0.00    +0.000 A 
ATOM     27  C   UNL     1       1.931  14.746  18.598  0.00  0.00    +0.000 A 
ATOM     28  C   UNL     1       0.492  14.838  18.820  0.00  0.00    +0.000 A 
ATOM     29  H   UNL     1       1.487  17.905  18.675  0.00  0.00    +0.000 HD
ENDBRANCH   1  28
BRANCH  17  30
ATOM     30  N   UNL     1      -0.102  10.016  19.382  0.00  0.00    +0.000 N 
ATOM     31  H   UNL     1      -0.237   9.417  20.196  0.00  0.00    +0.000 HD
ATOM     32  H   UNL     1       0.897  10.147  19.210  0.00  0.00    +0.000 HD
ENDBRANCH  17  30
BRANCH   2  33
ATOM     33  C   UNL     1      -1.045  14.320  21.407  0.00  0.00    +0.000 C 
ATOM     34  N   UNL     1      -0.745  14.792  22.536  0.00  0.00    +0.000 NA
ENDBRANCH   2  33
BRANCH  16  35
ATOM     35  C   UNL     1      -0.041  12.260  21.057  0.00  0.00    +0.000 C 
ATOM     36  N   UNL     1       1.078  12.722  21.409  0.00  0.00    +0.000 NA
ENDBRANCH  16  35
TORSDOF 4
ENDMDL
MODEL 2
REMARK VINA RESULT:      -6.5      2.859      6.291
REMARK  Name = 
REMARK  5 active torsions:
REMARK  status: ('A' for Active; 'I' for Inactive)
REMARK    1  A    between atoms: C_1  and  C_2
REMARK    2  A    between atoms: C_10  and  C_11
REMARK    3  A    between atoms: C_12  and  C_13
REMARK    4  A    between atoms: C_28  and  C_29
REMARK    5  A    between atoms: C_31  and  N_32
REMARK                            x       y       z     vdW  Elec       q    Type
REMARK                         _______ _______ _______ _____ _____    ______ ____
ROOT
ATOM      1  C   UNL     1      -1.989  14.198  20.589  0.00  0.00    +0.000 C 
ATOM      2  C   UNL     1      -1.247  13.407  21.414  0.00  0.00    +0.000 C 
ATOM      3  C   UNL     1      -0.115  12.704  20.846  0.00  0.00    +0.000 C 
ATOM      4  C   UNL     1      -0.112  12.125  19.250  0.00  0.00    +0.000 C 
ATOM      5  O   UNL     1      -0.792  12.544  18.316  0.00  0.00    +0.000 OA
ATOM      6  C   UNL     1       0.774  11.000  19.206  0.00  0.00    +0.000 A 
ATOM      7  C   UNL     1       1.358  10.372  18.114  0.00  0.00    +0.000 A 
ATOM      8  C   UNL     1       1.787   9.050  18.300  0.00  0.00    +0.000 A 
ATOM      9  C   UNL     1       1.506   8.387  19.510  0.00  0.00    +0.000 A 
ATOM     10  C   UNL     1       0.950   9.087  20.599  0.00  0.00    +0.000 A 
ATOM     11  C   UNL     1       0.422   8.504  21.747  0.00  0.00    +0.000 A 
ATOM     12  C   UNL     1      -0.233   9.303  22.695  0.00  0.00    +0.000 A 
ATOM     13  C   UNL     1      -0.329  10.704  22.571  0.00  0.00    +0.000 A 
ATOM     14  C   UNL     1       0.201  11.299  21.415  0.00  0.00    +0.000 A 
ATOM     15  C   UNL     1       0.757  10.446  20.459  0.00  0.00    +0.000 A 
ATOM     16  C   UNL     1       0.746  13.934  20.872  0.00  0.00    +0.000 C 
ATOM     17  C   UNL     1       0.400  14.560  19.667  0.00  0.00    +0.000 C 
ATOM     18  O   UNL     1      -1.137  14.768  19.493  0.00  0.00    +0.000 OA
ENDROOT
BRANCH   1  28
ATOM     19  C   UNL     1      -2.823  17.380  20.037  0.00  0.00    +0.000 C 
ATOM     20  C   UNL     1      -3.533  16.234  20.674  0.00  0.00    +0.000 A 
ATOM     21  N   UNL     1      -4.813  16.481  21.096  0.00  0.00    +0.000 N 
ATOM     22  C   UNL     1      -5.298  15.453  21.848  0.00  0.00    +0.000 A 
ATOM     23  C   UNL     1      -6.508  15.371  22.556  0.00  0.00    +0.000 A 
ATOM     24  C   UNL     1      -6.766  14.204  23.260  0.00  0.00    +0.000 A 
ATOM     25  C   UNL     1      -5.856  13.157  23.234  0.00  0.00    +0.000 A 
ATOM     26  C   UNL     1      -4.660  13.245  22.499  0.00  0.00    +0.000 A 
ATOM     27  C   UNL     1      -4.340  14.431  21.794  0.00  0.00    +0.000 A 
ATOM     28  C   UNL     1      -3.219  14.900  20.987  0.00  0.00    +0.000 A 
ATOM     29  H   UNL     1      -5.320  17.349  20.954  0.00  0.00    +0.000 HD
ENDBRANCH   1  28
BRANCH  17  30
ATOM     30  N   UNL     1       1.209  15.445  18.983  0.00  0.00    +0.000 N 
ATOM     31  H   UNL     1       0.857  16.402  18.983  0.00  0.00    +0.000 HD
ATOM     32  H   UNL     1       1.358  15.131  18.021  0.00  0.00    +0.000 HD
ENDBRANCH  17  30
BRANCH   2  33
ATOM     33  C   UNL     1      -1.120  13.758  22.887  0.00  0.00    +0.000 C 
ATOM     34  N   UNL     1      -1.014  14.049  24.109  0.00  0.00    +0.000 NA
ENDBRANCH   2  33
BRANCH  16  35
ATOM     35  C   UNL     1       0.176  15.158  21.570  0.00  0.00    +0.000 C 
ATOM     36  N   UNL     1      -0.296  16.175  22.148  0.00  0.00    +0.000 NA
ENDBRANCH  16  35
TORSDOF 4
ENDMDL
MODEL 3
REMARK VINA RESULT:      -6.4      0.920      2.056
REMARK  Name = 
REMARK  5 active torsions:
REMARK  status: ('A' for Active; 'I' for Inactive)
REMARK    1  A    between atoms: C_1  and  C_2
REMARK    2  A    between atoms: C_10  and  C_11
REMARK    3  A    between atoms: C_12  and  C_13
REMARK    4  A    between atoms: C_28  and  C_29
REMARK    5  A    between atoms: C_31  and  N_32
REMARK                            x       y       z     vdW  Elec       q    Type
REMARK                         _______ _______ _______ _____ _____    ______ ____
ROOT
ATOM      1  C   UNL     1      -0.609  13.473  19.017  0.00  0.00    +0.000 C 
ATOM      2  C   UNL     1      -1.559  13.628  19.981  0.00  0.00    +0.000 C 
ATOM      3  C   UNL     1      -2.618  12.642  20.058  0.00  0.00    +0.000 C 
ATOM      4  C   UNL     1      -3.239  11.866  18.683  0.00  0.00    +0.000 C 
ATOM      5  O   UNL     1      -2.664  11.706  17.608  0.00  0.00    +0.000 OA
ATOM      6  C   UNL     1      -4.592  11.496  18.975  0.00  0.00    +0.000 A 
ATOM      7  C   UNL     1      -5.425  10.593  18.330  0.00  0.00    +0.000 A 
ATOM      8  C   UNL     1      -6.804  10.761  18.515  0.00  0.00    +0.000 A 
ATOM      9  C   UNL     1      -7.284  11.878  19.225  0.00  0.00    +0.000 A 
ATOM     10  C   UNL     1      -6.392  12.738  19.896  0.00  0.00    +0.000 A 
ATOM     11  C   UNL     1      -6.718  13.982  20.428  0.00  0.00    +0.000 A 
ATOM     12  C   UNL     1      -5.707  14.805  20.945  0.00  0.00    +0.000 A 
ATOM     13  C   UNL     1      -4.358  14.400  21.011  0.00  0.00    +0.000 A 
ATOM     14  C   UNL     1      -4.021  13.146  20.476  0.00  0.00    +0.000 A 
ATOM     15  C   UNL     1      -5.052  12.409  19.888  0.00  0.00    +0.000 A 
ATOM     16  C   UNL     1      -1.736  11.655  20.764  0.00  0.00    +0.000 C 
ATOM     17  C   UNL     1      -1.087  11.023  19.695  0.00  0.00    +0.000 C 
ATOM     18  O   UNL     1      -0.397  12.019  18.710  0.00  0.00    +0.000 OA
ENDROOT
BRANCH   1  28
ATOM     19  C   UNL     1       2.670  12.889  18.820  0.00  0.00    +0.000 C 
ATOM     20  C   UNL     1       1.836  14.109  18.623  0.00  0.00    +0.000 A 
ATOM     21  N   UNL     1       2.508  15.239  18.237  0.00  0.00    +0.000 N 
ATOM     22  C   UNL     1       1.706  16.340  18.290  0.00  0.00    +0.000 A 
ATOM     23  C   UNL     1       2.044  17.689  18.090  0.00  0.00    +0.000 A 
ATOM     24  C   UNL     1       1.033  18.631  18.210  0.00  0.00    +0.000 A 
ATOM     25  C   UNL     1      -0.265  18.231  18.496  0.00  0.00    +0.000 A 
ATOM     26  C   UNL     1      -0.591  16.874  18.668  0.00  0.00    +0.000 A 
ATOM     27  C   UNL     1       0.416  15.881  18.588  0.00  0.00    +0.000 A 
ATOM     28  C   UNL     1       0.474  14.432  18.747  0.00  0.00    +0.000 A 
ATOM     29  H   UNL     1       3.500  15.287  18.023  0.00  0.00    +0.000 HD
ENDBRANCH   1  28
BRANCH  17  30
ATOM     30  N   UNL     1      -0.546   9.754  19.745  0.00  0.00    +0.000 N 
ATOM     31  H   UNL     1      -0.513   9.361  20.685  0.00  0.00    +0.000 HD
ATOM     32  H   UNL     1       0.390   9.742  19.331  0.00  0.00    +0.000 HD
ENDBRANCH  17  30
BRANCH   2  33
ATOM     33  C   UNL     1      -1.201  14.300  21.296  0.00  0.00    +0.000 C 
ATOM     34  N   UNL     1      -0.906  14.858  22.387  0.00  0.00    +0.000 NA
ENDBRANCH   2  33
BRANCH  16  35
ATOM     35  C   UNL     1      -0.362  12.142  21.195  0.00  0.00    +0.000 C 
ATOM     36  N   UNL     1       0.778  12.546  21.553  0.00  0.00    +0.000 NA
ENDBRANCH  16  35
TORSDOF 4
ENDMDL
MODEL 4
REMARK VINA RESULT:      -6.4      1.220      1.616
REMARK  Name = 
REMARK  5 active torsions:
REMARK  status: ('A' for Active; 'I' for Inactive)
REMARK    1  A    between atoms: C_1  and  C_2
REMARK    2  A    between atoms: C_10  and  C_11
REMARK    3  A    between atoms: C_12  and  C_13
REMARK    4  A    between atoms: C_28  and  C_29
REMARK    5  A    between atoms: C_31  and  N_32
REMARK                            x       y       z     vdW  Elec       q    Type
REMARK                         _______ _______ _______ _____ _____    ______ ____
ROOT
ATOM      1  C   UNL     1      -1.152  14.170  19.795  0.00  0.00    +0.000 C 
ATOM      2  C   UNL     1      -1.705  14.176  21.040  0.00  0.00    +0.000 C 
ATOM      3  C   UNL     1      -2.744  13.208  21.328  0.00  0.00    +0.000 C 
ATOM      4  C   UNL     1      -3.849  12.684  20.151  0.00  0.00    +0.000 C 
ATOM      5  O   UNL     1      -3.686  12.698  18.933  0.00  0.00    +0.000 OA
ATOM      6  C   UNL     1      -5.046  12.291  20.835  0.00  0.00    +0.000 A 
ATOM      7  C   UNL     1      -6.112  11.522  20.388  0.00  0.00    +0.000 A 
ATOM      8  C   UNL     1      -7.330  11.678  21.063  0.00  0.00    +0.000 A 
ATOM      9  C   UNL     1      -7.458  12.667  22.057  0.00  0.00    +0.000 A 
ATOM     10  C   UNL     1      -6.332  13.388  22.500  0.00  0.00    +0.000 A 
ATOM     11  C   UNL     1      -6.367  14.530  23.295  0.00  0.00    +0.000 A 
ATOM     12  C   UNL     1      -5.183  15.238  23.549  0.00  0.00    +0.000 A 
ATOM     13  C   UNL     1      -3.925  14.807  23.081  0.00  0.00    +0.000 A 
ATOM     14  C   UNL     1      -3.882  13.656  22.277  0.00  0.00    +0.000 A 
ATOM     15  C   UNL     1      -5.101  13.044  21.978  0.00  0.00    +0.000 A 
ATOM     16  C   UNL     1      -1.749  12.102  21.525  0.00  0.00    +0.000 C 
ATOM     17  C   UNL     1      -1.549  11.649  20.215  0.00  0.00    +0.000 C 
ATOM     18  O   UNL     1      -1.164  12.786  19.216  0.00  0.00    +0.000 OA
ENDROOT
BRANCH   1  28
ATOM     19  C   UNL     1      -1.533  17.451  19.324  0.00  0.00    +0.000 C 
ATOM     20  C   UNL     1      -0.370  16.529  19.192  0.00  0.00    +0.000 A 
ATOM     21  N   UNL     1       0.822  17.112  18.851  0.00  0.00    +0.000 N 
ATOM     22  C   UNL     1       1.767  16.178  18.546  0.00  0.00    +0.000 A 
ATOM     23  C   UNL     1       3.064  16.365  18.041  0.00  0.00    +0.000 A 
ATOM     24  C   UNL     1       3.834  15.236  17.805  0.00  0.00    +0.000 A 
ATOM     25  C   UNL     1       3.328  13.974  18.085  0.00  0.00    +0.000 A 
ATOM     26  C   UNL     1       2.036  13.805  18.616  0.00  0.00    +0.000 A 
ATOM     27  C   UNL     1       1.203  14.929  18.840  0.00  0.00    +0.000 A 
ATOM     28  C   UNL     1      -0.158  15.145  19.316  0.00  0.00    +0.000 A 
ATOM     29  H   UNL     1       0.978  18.110  18.744  0.00  0.00    +0.000 HD
ENDBRANCH   1  28
BRANCH  17  30
ATOM     30  N   UNL     1      -1.117  10.381  19.879  0.00  0.00    +0.000 N 
ATOM     31  H   UNL     1      -0.173  10.173  20.203  0.00  0.00    +0.000 HD
ATOM     32  H   UNL     1      -1.177  10.233  18.869  0.00  0.00    +0.000 HD
ENDBRANCH  17  30
BRANCH   2  33
ATOM     33  C   UNL     1      -0.875  14.612  22.236  0.00  0.00    +0.000 C 
ATOM     34  N   UNL     1      -0.187  14.974  23.228  0.00  0.00    +0.000 NA
ENDBRANCH   2  33
BRANCH  16  35
ATOM     35  C   UNL     1      -0.278  12.489  21.522  0.00  0.00    +0.000 C 
ATOM     36  N   UNL     1       0.942  12.808  21.520  0.00  0.00    +0.000 NA
ENDBRANCH  16  35
TORSDOF 4
ENDMDL
MODEL 5
REMARK VINA RESULT:      -6.3      3.125      6.680
REMARK  Name = 
REMARK  5 active torsions:
REMARK  status: ('A' for Active; 'I' for Inactive)
REMARK    1  A    between atoms: C_1  and  C_2
REMARK    2  A    between atoms: C_10  and  C_11
REMARK    3  A    between atoms: C_12  and  C_13
REMARK    4  A    between atoms: C_28  and  C_29
REMARK    5  A    between atoms: C_31  and  N_32
REMARK                            x       y       z     vdW  Elec       q    Type
REMARK                         _______ _______ _______ _____ _____    ______ ____
ROOT
ATOM      1  C   UNL     1      -3.070  14.169  21.132  0.00  0.00    +0.000 C 
ATOM      2  C   UNL     1      -2.173  13.522  21.927  0.00  0.00    +0.000 C 
ATOM      3  C   UNL     1      -0.994  12.958  21.302  0.00  0.00    +0.000 C 
ATOM      4  C   UNL     1      -1.016  12.319  19.729  0.00  0.00    +0.000 C 
ATOM      5  O   UNL     1      -1.808  12.603  18.833  0.00  0.00    +0.000 OA
ATOM      6  C   UNL     1       0.013  11.325  19.658  0.00  0.00    +0.000 A 
ATOM      7  C   UNL     1       0.605  10.739  18.547  0.00  0.00    +0.000 A 
ATOM      8  C   UNL     1       1.225   9.497  18.744  0.00  0.00    +0.000 A 
ATOM      9  C   UNL     1       1.120   8.851  19.990  0.00  0.00    +0.000 A 
ATOM     10  C   UNL     1       0.545   9.513  21.094  0.00  0.00    +0.000 A 
ATOM     11  C   UNL     1       0.181   8.910  22.294  0.00  0.00    +0.000 A 
ATOM     12  C   UNL     1      -0.514   9.651  23.261  0.00  0.00    +0.000 A 
ATOM     13  C   UNL     1      -0.813  11.019  23.100  0.00  0.00    +0.000 A 
ATOM     14  C   UNL     1      -0.449  11.634  21.891  0.00  0.00    +0.000 A 
ATOM     15  C   UNL     1       0.156  10.826  20.925  0.00  0.00    +0.000 A 
ATOM     16  C   UNL     1      -0.313  14.293  21.229  0.00  0.00    +0.000 C 
ATOM     17  C   UNL     1      -0.821  14.816  20.032  0.00  0.00    +0.000 C 
ATOM     18  O   UNL     1      -2.381  14.806  19.961  0.00  0.00    +0.000 OA
ENDROOT
BRANCH   1  28
ATOM     19  C   UNL     1      -4.381  17.177  20.529  0.00  0.00    +0.000 C 
ATOM     20  C   UNL     1      -4.876  15.975  21.258  0.00  0.00    +0.000 A 
ATOM     21  N   UNL     1      -6.146  16.062  21.764  0.00  0.00    +0.000 N 
ATOM     22  C   UNL     1      -6.429  15.013  22.587  0.00  0.00    +0.000 A 
ATOM     23  C   UNL     1      -7.565  14.798  23.386  0.00  0.00    +0.000 A 
ATOM     24  C   UNL     1      -7.607  13.640  24.148  0.00  0.00    +0.000 A 
ATOM     25  C   UNL     1      -6.561  12.728  24.094  0.00  0.00    +0.000 A 
ATOM     26  C   UNL     1      -5.443  12.947  23.269  0.00  0.00    +0.000 A 
ATOM     27  C   UNL     1      -5.343  14.132  22.500  0.00  0.00    +0.000 A 
ATOM     28  C   UNL     1      -4.357  14.713  21.595  0.00  0.00    +0.000 A 
ATOM     29  H   UNL     1      -6.780  16.845  21.629  0.00  0.00    +0.000 HD
ENDBRANCH   1  28
BRANCH  17  30
ATOM     30  N   UNL     1      -0.190  15.775  19.264  0.00  0.00    +0.000 N 
ATOM     31  H   UNL     1       0.820  15.805  19.398  0.00  0.00    +0.000 HD
ATOM     32  H   UNL     1      -0.590  16.700  19.439  0.00  0.00    +0.000 HD
ENDBRANCH  17  30
BRANCH   2  33
ATOM     33  C   UNL     1      -1.998  13.948  23.376  0.00  0.00    +0.000 C 
ATOM     34  N   UNL     1      -1.852  14.299  24.577  0.00  0.00    +0.000 NA
ENDBRANCH   2  33
BRANCH  16  35
ATOM     35  C   UNL     1      -1.000  15.456  21.926  0.00  0.00    +0.000 C 
ATOM     36  N   UNL     1      -1.569  16.422  22.504  0.00  0.00    +0.000 NA
ENDBRANCH  16  35
TORSDOF 4
ENDMDL
MODEL 6
REMARK VINA RESULT:      -6.3      2.643      6.057
REMARK  Name = 
REMARK  5 active torsions:
REMARK  status: ('A' for Active; 'I' for Inactive)
REMARK    1  A    between atoms: C_1  and  C_2
REMARK    2  A    between atoms: C_10  and  C_11
REMARK    3  A    between atoms: C_12  and  C_13
REMARK    4  A    between atoms: C_28  and  C_29
REMARK    5  A    between atoms: C_31  and  N_32
REMARK                            x       y       z     vdW  Elec       q    Type
REMARK                         _______ _______ _______ _____ _____    ______ ____
ROOT
ATOM      1  C   UNL     1      -1.934  14.030  20.512  0.00  0.00    +0.000 C 
ATOM      2  C   UNL     1      -1.204  13.253  21.360  0.00  0.00    +0.000 C 
ATOM      3  C   UNL     1      -0.059  12.547  20.821  0.00  0.00    +0.000 C 
ATOM      4  C   UNL     1      -0.027  11.947  19.234  0.00  0.00    +0.000 C 
ATOM      5  O   UNL     1      -0.691  12.351  18.283  0.00  0.00    +0.000 OA
ATOM      6  C   UNL     1       0.865  10.825  19.220  0.00  0.00    +0.000 A 
ATOM      7  C   UNL     1       1.470  10.185  18.146  0.00  0.00    +0.000 A 
ATOM      8  C   UNL     1       1.900   8.868  18.357  0.00  0.00    +0.000 A 
ATOM      9  C   UNL     1       1.600   8.219  19.570  0.00  0.00    +0.000 A 
ATOM     10  C   UNL     1       1.023   8.931  20.640  0.00  0.00    +0.000 A 
ATOM     11  C   UNL     1       0.478   8.361  21.787  0.00  0.00    +0.000 A 
ATOM     12  C   UNL     1      -0.196   9.170  22.712  0.00  0.00    +0.000 A 
ATOM     13  C   UNL     1      -0.296  10.568  22.569  0.00  0.00    +0.000 A 
ATOM     14  C   UNL     1       0.252  11.151  21.414  0.00  0.00    +0.000 A 
ATOM     15  C   UNL     1       0.827  10.288  20.479  0.00  0.00    +0.000 A 
ATOM     16  C   UNL     1       0.796  13.780  20.846  0.00  0.00    +0.000 C 
ATOM     17  C   UNL     1       0.470  14.389  19.628  0.00  0.00    +0.000 C 
ATOM     18  O   UNL     1      -1.066  14.589  19.424  0.00  0.00    +0.000 OA
ENDROOT
BRANCH   1  28
ATOM     19  C   UNL     1      -4.722  12.755  21.829  0.00  0.00    +0.000 C 
ATOM     20  C   UNL     1      -4.296  14.141  21.484  0.00  0.00    +0.000 A 
ATOM     21  N   UNL     1      -5.185  15.137  21.795  0.00  0.00    +0.000 N 
ATOM     22  C   UNL     1      -4.809  16.330  21.255  0.00  0.00    +0.000 A 
ATOM     23  C   UNL     1      -5.502  17.552  21.243  0.00  0.00    +0.000 A 
ATOM     24  C   UNL     1      -4.898  18.630  20.613  0.00  0.00    +0.000 A 
ATOM     25  C   UNL     1      -3.642  18.490  20.039  0.00  0.00    +0.000 A 
ATOM     26  C   UNL     1      -2.950  17.266  20.083  0.00  0.00    +0.000 A 
ATOM     27  C   UNL     1      -3.544  16.130  20.686  0.00  0.00    +0.000 A 
ATOM     28  C   UNL     1      -3.173  14.733  20.880  0.00  0.00    +0.000 A 
ATOM     29  H   UNL     1      -6.064  15.005  22.287  0.00  0.00    +0.000 HD
ENDBRANCH   1  28
BRANCH  17  30
ATOM     30  N   UNL     1       1.287  15.269  18.945  0.00  0.00    +0.000 N 
ATOM     31  H   UNL     1       1.465  14.995  17.980  0.00  0.00    +0.000 HD
ATOM     32  H   UNL     1       2.174  15.396  19.439  0.00  0.00    +0.000 HD
ENDBRANCH  17  30
BRANCH   2  33
ATOM     33  C   UNL     1      -1.103  13.624  22.831  0.00  0.00    +0.000 C 
ATOM     34  N   UNL     1      -1.019  13.930  24.051  0.00  0.00    +0.000 NA
ENDBRANCH   2  33
BRANCH  16  35
ATOM     35  C   UNL     1       0.210  15.012  21.518  0.00  0.00    +0.000 C 
ATOM     36  N   UNL     1      -0.274  16.034  22.075  0.00  0.00    +0.000 NA
ENDBRANCH  16  35
TORSDOF 4
ENDMDL
MODEL 7
REMARK VINA RESULT:      -6.3      3.563      5.046
REMARK  Name = 
REMARK  5 active torsions:
REMARK  status: ('A' for Active; 'I' for Inactive)
REMARK    1  A    between atoms: C_1  and  C_2
REMARK    2  A    between atoms: C_10  and  C_11
REMARK    3  A    between atoms: C_12  and  C_13
REMARK    4  A    between atoms: C_28  and  C_29
REMARK    5  A    between atoms: C_31  and  N_32
REMARK                            x       y       z     vdW  Elec       q    Type
REMARK                         _______ _______ _______ _____ _____    ______ ____
ROOT
ATOM      1  C   UNL     1      -2.535  14.666  22.077  0.00  0.00    +0.000 C 
ATOM      2  C   UNL     1      -3.659  14.038  21.632  0.00  0.00    +0.000 C 
ATOM      3  C   UNL     1      -3.500  12.816  20.871  0.00  0.00    +0.000 C 
ATOM      4  C   UNL     1      -2.183  12.557  19.832  0.00  0.00    +0.000 C 
ATOM      5  O   UNL     1      -1.081  13.097  19.896  0.00  0.00    +0.000 OA
ATOM      6  C   UNL     1      -2.615  11.646  18.814  0.00  0.00    +0.000 A 
ATOM      7  C   UNL     1      -1.866  10.888  17.924  0.00  0.00    +0.000 A 
ATOM      8  C   UNL     1      -2.513  10.460  16.757  0.00  0.00    +0.000 A 
ATOM      9  C   UNL     1      -3.820  10.905  16.478  0.00  0.00    +0.000 A 
ATOM     10  C   UNL     1      -4.548  11.637  17.437  0.00  0.00    +0.000 A 
ATOM     11  C   UNL     1      -5.738  12.317  17.198  0.00  0.00    +0.000 A 
ATOM     12  C   UNL     1      -6.289  13.128  18.201  0.00  0.00    +0.000 A 
ATOM     13  C   UNL     1      -5.720  13.239  19.486  0.00  0.00    +0.000 A 
ATOM     14  C   UNL     1      -4.519  12.555  19.735  0.00  0.00    +0.000 A 
ATOM     15  C   UNL     1      -3.964  11.840  18.671  0.00  0.00    +0.000 A 
ATOM     16  C   UNL     1      -3.257  12.000  22.107  0.00  0.00    +0.000 C 
ATOM     17  C   UNL     1      -1.881  12.174  22.307  0.00  0.00    +0.000 C 
ATOM     18  O   UNL     1      -1.442  13.673  22.343  0.00  0.00    +0.000 OA
ENDROOT
BRANCH   1  28
ATOM     19  C   UNL     1      -3.649  17.619  20.994  0.00  0.00    +0.000 C 
ATOM     20  C   UNL     1      -3.059  17.160  22.284  0.00  0.00    +0.000 A 
ATOM     21  N   UNL     1      -2.978  18.103  23.275  0.00  0.00    +0.000 N 
ATOM     22  C   UNL     1      -2.239  17.657  24.330  0.00  0.00    +0.000 A 
ATOM     23  C   UNL     1      -1.827  18.354  25.478  0.00  0.00    +0.000 A 
ATOM     24  C   UNL     1      -1.065  17.667  26.411  0.00  0.00    +0.000 A 
ATOM     25  C   UNL     1      -0.751  16.330  26.210  0.00  0.00    +0.000 A 
ATOM     26  C   UNL     1      -1.194  15.639  25.068  0.00  0.00    +0.000 A 
ATOM     27  C   UNL     1      -1.945  16.311  24.072  0.00  0.00    +0.000 A 
ATOM     28  C   UNL     1      -2.521  15.959  22.779  0.00  0.00    +0.000 A 
ATOM     29  H   UNL     1      -3.339  19.050  23.214  0.00  0.00    +0.000 HD
ENDBRANCH   1  28
BRANCH  17  30
ATOM     30  N   UNL     1      -1.070  11.293  22.995  0.00  0.00    +0.000 N 
ATOM     31  H   UNL     1      -1.465  10.358  23.082  0.00  0.00    +0.000 HD
ATOM     32  H   UNL     1      -0.841  11.660  23.922  0.00  0.00    +0.000 HD
ENDBRANCH  17  30
BRANCH   2  33
ATOM     33  C   UNL     1      -4.951  14.144  22.426  0.00  0.00    +0.000 C 
ATOM     34  N   UNL     1      -6.023  14.231  23.084  0.00  0.00    +0.000 NA
ENDBRANCH   2  33
BRANCH  16  35
ATOM     35  C   UNL     1      -3.451  12.699  23.443  0.00  0.00    +0.000 C 
ATOM     36  N   UNL     1      -3.611  13.278  24.552  0.00  0.00    +0.000 NA
ENDBRANCH  16  35
TORSDOF 4
ENDMDL
MODEL 8
REMARK VINA RESULT:      -6.2      2.240      7.557
REMARK  Name = 
REMARK  5 active torsions:
REMARK  status: ('A' for Active; 'I' for Inactive)
REMARK    1  A    between atoms: C_1  and  C_2
REMARK    2  A    between atoms: C_10  and  C_11
REMARK    3  A    between atoms: C_12  and  C_13
REMARK    4  A    between atoms: C_28  and  C_29
REMARK    5  A    between atoms: C_31  and  N_32
REMARK                            x       y       z     vdW  Elec       q    Type
REMARK                         _______ _______ _______ _____ _____    ______ ____
ROOT
ATOM      1  C   UNL     1      -2.897  14.156  21.067  0.00  0.00    +0.000 C 
ATOM      2  C   UNL     1      -1.690  13.524  21.098  0.00  0.00    +0.000 C 
ATOM      3  C   UNL     1      -0.499  14.321  20.886  0.00  0.00    +0.000 C 
ATOM      4  C   UNL     1      -0.477  15.667  19.852  0.00  0.00    +0.000 C 
ATOM      5  O   UNL     1      -1.442  16.350  19.517  0.00  0.00    +0.000 OA
ATOM      6  C   UNL     1       0.865  15.816  19.373  0.00  0.00    +0.000 A 
ATOM      7  C   UNL     1       1.475  16.905  18.765  0.00  0.00    +0.000 A 
ATOM      8  C   UNL     1       2.612  16.641  17.990  0.00  0.00    +0.000 A 
ATOM      9  C   UNL     1       3.010  15.310  17.762  0.00  0.00    +0.000 A 
ATOM     10  C   UNL     1       2.380  14.247  18.440  0.00  0.00    +0.000 A 
ATOM     11  C   UNL     1       2.524  12.897  18.133  0.00  0.00    +0.000 A 
ATOM     12  C   UNL     1       1.731  11.946  18.791  0.00  0.00    +0.000 A 
ATOM     13  C   UNL     1       0.823  12.290  19.813  0.00  0.00    +0.000 A 
ATOM     14  C   UNL     1       0.673  13.650  20.128  0.00  0.00    +0.000 A 
ATOM     15  C   UNL     1       1.417  14.562  19.376  0.00  0.00    +0.000 A 
ATOM     16  C   UNL     1      -0.519  14.844  22.293  0.00  0.00    +0.000 C 
ATOM     17  C   UNL     1      -1.391  15.936  22.188  0.00  0.00    +0.000 C 
ATOM     18  O   UNL     1      -2.766  15.574  21.541  0.00  0.00    +0.000 OA
ENDROOT
BRANCH   1  28
ATOM     19  C   UNL     1      -4.221  11.898  18.999  0.00  0.00    +0.000 C 
ATOM     20  C   UNL     1      -4.675  12.492  20.288  0.00  0.00    +0.000 A 
ATOM     21  N   UNL     1      -5.855  12.008  20.789  0.00  0.00    +0.000 N 
ATOM     22  C   UNL     1      -6.292  12.751  21.845  0.00  0.00    +0.000 A 
ATOM     23  C   UNL     1      -7.504  12.657  22.550  0.00  0.00    +0.000 A 
ATOM     24  C   UNL     1      -7.714  13.548  23.592  0.00  0.00    +0.000 A 
ATOM     25  C   UNL     1      -6.739  14.479  23.924  0.00  0.00    +0.000 A 
ATOM     26  C   UNL     1      -5.521  14.543  23.224  0.00  0.00    +0.000 A 
ATOM     27  C   UNL     1      -5.278  13.675  22.131  0.00  0.00    +0.000 A 
ATOM     28  C   UNL     1      -4.199  13.478  21.169  0.00  0.00    +0.000 A 
ATOM     29  H   UNL     1      -6.396  11.249  20.385  0.00  0.00    +0.000 HD
ENDBRANCH   1  28
BRANCH  17  30
ATOM     30  N   UNL     1      -1.394  17.023  23.039  0.00  0.00    +0.000 N 
ATOM     31  H   UNL     1      -0.648  17.000  23.733  0.00  0.00    +0.000 HD
ATOM     32  H   UNL     1      -2.299  17.113  23.508  0.00  0.00    +0.000 HD
ENDBRANCH  17  30
BRANCH   2  33
ATOM     33  C   UNL     1      -1.501  12.294  21.970  0.00  0.00    +0.000 C 
ATOM     34  N   UNL     1      -1.343  11.274  22.693  0.00  0.00    +0.000 NA
ENDBRANCH   2  33
BRANCH  16  35
ATOM     35  C   UNL     1      -1.539  14.233  23.240  0.00  0.00    +0.000 C 
ATOM     36  N   UNL     1      -2.385  13.727  24.028  0.00  0.00    +0.000 NA
ENDBRANCH  16  35
TORSDOF 4
ENDMDL
MODEL 9
REMARK VINA RESULT:      -6.2      5.040      9.663
REMARK  Name = 
REMARK  5 active torsions:
REMARK  status: ('A' for Active; 'I' for Inactive)
REMARK    1  A    between atoms: C_1  and  C_2
REMARK    2  A    between atoms: C_10  and  C_11
REMARK    3  A    between atoms: C_12  and  C_13
REMARK    4  A    between atoms: C_28  and  C_29
REMARK    5  A    between atoms: C_31  and  N_32
REMARK                            x       y       z     vdW  Elec       q    Type
REMARK                         _______ _______ _______ _____ _____    ______ ____
ROOT
ATOM      1  C   UNL     1       4.531  15.380  19.408  0.00  0.00    +0.000 C 
ATOM      2  C   UNL     1       5.193  15.194  20.584  0.00  0.00    +0.000 C 
ATOM      3  C   UNL     1       6.635  15.055  20.539  0.00  0.00    +0.000 C 
ATOM      4  C   UNL     1       7.437  14.311  19.242  0.00  0.00    +0.000 C 
ATOM      5  O   UNL     1       7.019  14.192  18.092  0.00  0.00    +0.000 OA
ATOM      6  C   UNL     1       8.663  13.772  19.751  0.00  0.00    +0.000 A 
ATOM      7  C   UNL     1       9.797  13.348  19.070  0.00  0.00    +0.000 A 
ATOM      8  C   UNL     1      10.639  12.453  19.743  0.00  0.00    +0.000 A 
ATOM      9  C   UNL     1      10.255  11.934  20.994  0.00  0.00    +0.000 A 
ATOM     10  C   UNL     1       9.116  12.433  21.657  0.00  0.00    +0.000 A 
ATOM     11  C   UNL     1       8.512  11.854  22.769  0.00  0.00    +0.000 A 
ATOM     12  C   UNL     1       7.299  12.368  23.248  0.00  0.00    +0.000 A 
ATOM     13  C   UNL     1       6.680  13.503  22.687  0.00  0.00    +0.000 A 
ATOM     14  C   UNL     1       7.283  14.093  21.565  0.00  0.00    +0.000 A 
ATOM     15  C   UNL     1       8.439  13.484  21.071  0.00  0.00    +0.000 A 
ATOM     16  C   UNL     1       6.838  16.535  20.395  0.00  0.00    +0.000 C 
ATOM     17  C   UNL     1       6.711  16.716  19.012  0.00  0.00    +0.000 C 
ATOM     18  O   UNL     1       5.394  16.115  18.425  0.00  0.00    +0.000 OA
ENDROOT
BRANCH   1  28
ATOM     19  C   UNL     1       2.250  13.262  20.607  0.00  0.00    +0.000 C 
ATOM     20  C   UNL     1       2.157  14.543  19.852  0.00  0.00    +0.000 A 
ATOM     21  N   UNL     1       0.890  15.010  19.617  0.00  0.00    +0.000 N 
ATOM     22  C   UNL     1       0.897  16.059  18.747  0.00  0.00    +0.000 A 
ATOM     23  C   UNL     1      -0.191  16.732  18.166  0.00  0.00    +0.000 A 
ATOM     24  C   UNL     1       0.087  17.775  17.295  0.00  0.00    +0.000 A 
ATOM     25  C   UNL     1       1.401  18.139  17.037  0.00  0.00    +0.000 A 
ATOM     26  C   UNL     1       2.479  17.471  17.647  0.00  0.00    +0.000 A 
ATOM     27  C   UNL     1       2.242  16.378  18.516  0.00  0.00    +0.000 A 
ATOM     28  C   UNL     1       3.067  15.444  19.273  0.00  0.00    +0.000 A 
ATOM     29  H   UNL     1       0.035  14.586  19.966  0.00  0.00    +0.000 HD
ENDBRANCH   1  28
BRANCH  17  30
ATOM     30  N   UNL     1       7.262  17.764  18.302  0.00  0.00    +0.000 N 
ATOM     31  H   UNL     1       6.690  18.607  18.310  0.00  0.00    +0.000 HD
ATOM     32  H   UNL     1       7.457  17.486  17.338  0.00  0.00    +0.000 HD
ENDBRANCH  17  30
BRANCH   2  33
ATOM     33  C   UNL     1       4.639  15.787  21.869  0.00  0.00    +0.000 C 
ATOM     34  N   UNL     1       4.178  16.279  22.934  0.00  0.00    +0.000 NA
ENDBRANCH   2  33
BRANCH  16  35
ATOM     35  C   UNL     1       5.607  17.417  20.535  0.00  0.00    +0.000 C 
ATOM     36  N   UNL     1       4.587  18.149  20.649  0.00  0.00    +0.000 NA
ENDBRANCH  16  35
TORSDOF 4
ENDMDL
