MODEL 1
REMARK VINA RESULT:      -8.1      0.000      0.000
REMARK  Name = 
REMARK  14 active torsions:
REMARK  status: ('A' for Active; 'I' for Inactive)
REMARK    1  A    between atoms: C_1  and  C_2
REMARK    2  A    between atoms: C_2  and  C_3
REMARK    3  A    between atoms: C_6  and  O_7
REMARK    4  A    between atoms: O_7  and  C_8
REMARK    5  A    between atoms: C_8  and  C_9
REMARK    6  A    between atoms: C_14  and  C_15
REMARK    7  A    between atoms: C_15  and  O_17
REMARK    8  A    between atoms: O_17  and  C_18
REMARK    9  A    between atoms: C_23  and  N_24
REMARK   10  A    between atoms: N_24  and  C_25
REMARK   11  A    between atoms: C_26  and  C_28
REMARK   12  A    between atoms: C_28  and  C_29
REMARK   13  A    between atoms: C_29  and  C_30
REMARK   14  A    between atoms: C_29  and  C_31
REMARK                            x       y       z     vdW  Elec       q    Type
REMARK                         _______ _______ _______ _____ _____    ______ ____
ROOT
ATOM      1  C   UNL     1       0.286   9.806  21.741  0.00  0.00    +0.000 A 
ATOM      2  N   UNL     1       0.812   8.568  21.552  0.00  0.00    +0.000 NA
ATOM      3  C   UNL     1       1.325   8.530  20.345  0.00  0.00    +0.000 A 
ATOM      4  C   UNL     1       2.000   7.459  19.674  0.00  0.00    +0.000 A 
ATOM      5  C   UNL     1       2.457   7.654  18.411  0.00  0.00    +0.000 A 
ATOM      6  C   UNL     1       2.187   8.894  17.714  0.00  0.00    +0.000 A 
ATOM      7  C   UNL     1       1.516   9.876  18.340  0.00  0.00    +0.000 A 
ATOM      8  N   UNL     1       1.105   9.722  19.676  0.00  0.00    +0.000 N 
ATOM      9  C   UNL     1       0.478  10.586  20.597  0.00  0.00    +0.000 A 
ENDROOT
BRANCH   9  10
ATOM     10  N   UNL     1       0.112  11.933  20.362  0.00  0.00    +0.000 N 
ATOM     11  C   UNL     1       1.007  13.060  20.668  0.00  0.00    +0.000 C 
ATOM     12  C   UNL     1      -1.037  12.250  19.615  0.00  0.00    +0.000 C 
ATOM     13  O   UNL     1      -1.392  13.413  19.395  0.00  0.00    +0.000 OA
BRANCH  12  14
ATOM     14  C   UNL     1      -1.880  11.078  19.116  0.00  0.00    +0.000 C 
BRANCH  14  15
ATOM     15  C   UNL     1      -2.385  11.236  17.683  0.00  0.00    +0.000 C 
ATOM     16  C   UNL     1      -2.048  10.014  16.823  0.00  0.00    +0.000 C 
ATOM     17  C   UNL     1      -3.898  11.469  17.673  0.00  0.00    +0.000 C 
ENDBRANCH  14  15
ENDBRANCH  12  14
ENDBRANCH   9  10
BRANCH   1  19
ATOM     18  C   UNL     1      -1.383  11.155  23.096  0.00  0.00    +0.000 C 
ATOM     19  C   UNL     1      -0.338  10.056  23.073  0.00  0.00    +0.000 C 
ENDBRANCH   1  19
BRANCH   4  20
ATOM     20  O   UNL     1       2.140   6.256  20.357  0.00  0.00    +0.000 OA
BRANCH  20  21
ATOM     21  C   UNL     1       3.361   5.551  20.004  0.00  0.00    +0.000 C 
BRANCH  21  22
ATOM     22  C   UNL     1       3.145   4.297  19.191  0.00  0.00    +0.000 A 
ATOM     23  C   UNL     1       2.062   3.460  19.510  0.00  0.00    +0.000 A 
ATOM     24  C   UNL     1       1.860   2.262  18.829  0.00  0.00    +0.000 A 
ATOM     25  C   UNL     1       2.732   1.888  17.815  0.00  0.00    +0.000 A 
ATOM     26  C   UNL     1       3.795   2.719  17.466  0.00  0.00    +0.000 A 
ATOM     27  C   UNL     1       4.013   3.934  18.131  0.00  0.00    +0.000 A 
BRANCH  27  28
ATOM     28  C   UNL     1       5.205   4.757  17.684  0.00  0.00    +0.000 C 
ATOM     29  O   UNL     1       5.164   5.646  16.887  0.00  0.00    +0.000 OA
BRANCH  28  30
ATOM     30  O   UNL     1       6.334   4.338  18.346  0.00  0.00    +0.000 OA
ATOM     31  C   UNL     1       7.563   4.581  17.650  0.00  0.00    +0.000 C 
ENDBRANCH  28  30
ENDBRANCH  27  28
ENDBRANCH  21  22
ENDBRANCH  20  21
ENDBRANCH   4  20
TORSDOF 9
ENDMDL
MODEL 2
REMARK VINA RESULT:      -7.8      0.816      1.033
REMARK  Name = 
REMARK  14 active torsions:
REMARK  status: ('A' for Active; 'I' for Inactive)
REMARK    1  A    between atoms: C_1  and  C_2
REMARK    2  A    between atoms: C_2  and  C_3
REMARK    3  A    between atoms: C_6  and  O_7
REMARK    4  A    between atoms: O_7  and  C_8
REMARK    5  A    between atoms: C_8  and  C_9
REMARK    6  A    between atoms: C_14  and  C_15
REMARK    7  A    between atoms: C_15  and  O_17
REMARK    8  A    between atoms: O_17  and  C_18
REMARK    9  A    between atoms: C_23  and  N_24
REMARK   10  A    between atoms: N_24  and  C_25
REMARK   11  A    between atoms: C_26  and  C_28
REMARK   12  A    between atoms: C_28  and  C_29
REMARK   13  A    between atoms: C_29  and  C_30
REMARK   14  A    between atoms: C_29  and  C_31
REMARK                            x       y       z     vdW  Elec       q    Type
REMARK                         _______ _______ _______ _____ _____    ______ ____
ROOT
ATOM      1  C   UNL     1       0.295  10.165  21.292  0.00  0.00    +0.000 A 
ATOM      2  N   UNL     1       0.720   8.877  21.220  0.00  0.00    +0.000 NA
ATOM      3  C   UNL     1       1.328   8.719  20.068  0.00  0.00    +0.000 A 
ATOM      4  C   UNL     1       1.957   7.555  19.520  0.00  0.00    +0.000 A 
ATOM      5  C   UNL     1       2.536   7.630  18.294  0.00  0.00    +0.000 A 
ATOM      6  C   UNL     1       2.440   8.842  17.509  0.00  0.00    +0.000 A 
ATOM      7  C   UNL     1       1.812   9.915  18.018  0.00  0.00    +0.000 A 
ATOM      8  N   UNL     1       1.276   9.882  19.317  0.00  0.00    +0.000 N 
ATOM      9  C   UNL     1       0.654  10.853  20.129  0.00  0.00    +0.000 A 
ENDROOT
BRANCH   9  10
ATOM     10  N   UNL     1       0.434  12.209  19.789  0.00  0.00    +0.000 N 
ATOM     11  C   UNL     1       1.512  13.210  19.798  0.00  0.00    +0.000 C 
ATOM     12  C   UNL     1      -0.779  12.620  19.206  0.00  0.00    +0.000 C 
ATOM     13  O   UNL     1      -1.009  13.795  18.902  0.00  0.00    +0.000 OA
BRANCH  12  14
ATOM     14  C   UNL     1      -1.846  11.546  19.005  0.00  0.00    +0.000 C 
BRANCH  14  15
ATOM     15  C   UNL     1      -2.195  11.278  17.542  0.00  0.00    +0.000 C 
ATOM     16  C   UNL     1      -1.792   9.865  17.111  0.00  0.00    +0.000 C 
ATOM     17  C   UNL     1      -3.694  11.478  17.306  0.00  0.00    +0.000 C 
ENDBRANCH  14  15
ENDBRANCH  12  14
ENDBRANCH   9  10
BRANCH   1  19
ATOM     18  C   UNL     1      -0.221   9.600  23.712  0.00  0.00    +0.000 C 
ATOM     19  C   UNL     1      -0.414  10.551  22.546  0.00  0.00    +0.000 C 
ENDBRANCH   1  19
BRANCH   4  20
ATOM     20  O   UNL     1       1.928   6.389  20.278  0.00  0.00    +0.000 OA
BRANCH  20  21
ATOM     21  C   UNL     1       3.064   5.522  20.015  0.00  0.00    +0.000 C 
BRANCH  21  22
ATOM     22  C   UNL     1       2.714   4.223  19.330  0.00  0.00    +0.000 A 
ATOM     23  C   UNL     1       1.420   3.697  19.495  0.00  0.00    +0.000 A 
ATOM     24  C   UNL     1       1.072   2.471  18.933  0.00  0.00    +0.000 A 
ATOM     25  C   UNL     1       2.005   1.758  18.193  0.00  0.00    +0.000 A 
ATOM     26  C   UNL     1       3.284   2.277  17.996  0.00  0.00    +0.000 A 
ATOM     27  C   UNL     1       3.655   3.514  18.543  0.00  0.00    +0.000 A 
BRANCH  27  28
ATOM     28  C   UNL     1       5.074   3.982  18.281  0.00  0.00    +0.000 C 
ATOM     29  O   UNL     1       5.924   4.088  19.113  0.00  0.00    +0.000 OA
BRANCH  28  30
ATOM     30  O   UNL     1       5.235   4.250  16.944  0.00  0.00    +0.000 OA
ATOM     31  C   UNL     1       5.111   5.634  16.589  0.00  0.00    +0.000 C 
ENDBRANCH  28  30
ENDBRANCH  27  28
ENDBRANCH  21  22
ENDBRANCH  20  21
ENDBRANCH   4  20
TORSDOF 9
ENDMDL
MODEL 3
REMARK VINA RESULT:      -7.8      1.934      8.518
REMARK  Name = 
REMARK  14 active torsions:
REMARK  status: ('A' for Active; 'I' for Inactive)
REMARK    1  A    between atoms: C_1  and  C_2
REMARK    2  A    between atoms: C_2  and  C_3
REMARK    3  A    between atoms: C_6  and  O_7
REMARK    4  A    between atoms: O_7  and  C_8
REMARK    5  A    between atoms: C_8  and  C_9
REMARK    6  A    between atoms: C_14  and  C_15
REMARK    7  A    between atoms: C_15  and  O_17
REMARK    8  A    between atoms: O_17  and  C_18
REMARK    9  A    between atoms: C_23  and  N_24
REMARK   10  A    between atoms: N_24  and  C_25
REMARK   11  A    between atoms: C_26  and  C_28
REMARK   12  A    between atoms: C_28  and  C_29
REMARK   13  A    between atoms: C_29  and  C_30
REMARK   14  A    between atoms: C_29  and  C_31
REMARK                            x       y       z     vdW  Elec       q    Type
REMARK                         _______ _______ _______ _____ _____    ______ ____
ROOT
ATOM      1  C   UNL     1       2.209   5.313  20.410  0.00  0.00    +0.000 A 
ATOM      2  N   UNL     1       1.680   6.473  20.877  0.00  0.00    +0.000 NA
ATOM      3  C   UNL     1       1.776   7.371  19.925  0.00  0.00    +0.000 A 
ATOM      4  C   UNL     1       1.358   8.740  19.916  0.00  0.00    +0.000 A 
ATOM      5  C   UNL     1       1.558   9.486  18.800  0.00  0.00    +0.000 A 
ATOM      6  C   UNL     1       2.267   8.935  17.664  0.00  0.00    +0.000 A 
ATOM      7  C   UNL     1       2.691   7.660  17.700  0.00  0.00    +0.000 A 
ATOM      8  N   UNL     1       2.423   6.849  18.816  0.00  0.00    +0.000 N 
ATOM      9  C   UNL     1       2.660   5.487  19.098  0.00  0.00    +0.000 A 
ENDROOT
BRANCH   9  10
ATOM     10  N   UNL     1       3.254   4.546  18.224  0.00  0.00    +0.000 N 
ATOM     11  C   UNL     1       2.461   3.673  17.345  0.00  0.00    +0.000 C 
ATOM     12  C   UNL     1       4.641   4.555  17.988  0.00  0.00    +0.000 C 
ATOM     13  O   UNL     1       5.197   3.745  17.238  0.00  0.00    +0.000 OA
BRANCH  12  14
ATOM     14  C   UNL     1       5.464   5.593  18.749  0.00  0.00    +0.000 C 
BRANCH  14  15
ATOM     15  C   UNL     1       6.897   5.748  18.244  0.00  0.00    +0.000 C 
ATOM     16  C   UNL     1       7.079   7.038  17.438  0.00  0.00    +0.000 C 
ATOM     17  C   UNL     1       7.881   5.733  19.416  0.00  0.00    +0.000 C 
ENDBRANCH  14  15
ENDBRANCH  12  14
ENDBRANCH   9  10
BRANCH   1  19
ATOM     18  C   UNL     1       1.242   3.030  20.952  0.00  0.00    +0.000 C 
ATOM     19  C   UNL     1       2.180   4.154  21.349  0.00  0.00    +0.000 C 
ENDBRANCH   1  19
BRANCH   4  20
ATOM     20  O   UNL     1       0.775   9.244  21.074  0.00  0.00    +0.000 OA
BRANCH  20  21
ATOM     21  C   UNL     1       0.819  10.695  21.136  0.00  0.00    +0.000 C 
BRANCH  21  22
ATOM     22  C   UNL     1      -0.494  11.345  21.502  0.00  0.00    +0.000 A 
ATOM     23  C   UNL     1      -0.926  11.294  22.839  0.00  0.00    +0.000 A 
ATOM     24  C   UNL     1      -2.159  11.824  23.211  0.00  0.00    +0.000 A 
ATOM     25  C   UNL     1      -2.973  12.420  22.257  0.00  0.00    +0.000 A 
ATOM     26  C   UNL     1      -2.549  12.504  20.932  0.00  0.00    +0.000 A 
ATOM     27  C   UNL     1      -1.308  11.986  20.535  0.00  0.00    +0.000 A 
BRANCH  27  28
ATOM     28  C   UNL     1      -0.947  12.116  19.068  0.00  0.00    +0.000 C 
ATOM     29  O   UNL     1      -0.301  13.005  18.599  0.00  0.00    +0.000 OA
BRANCH  28  30
ATOM     30  O   UNL     1      -1.460  11.053  18.367  0.00  0.00    +0.000 OA
ATOM     31  C   UNL     1      -2.355  11.410  17.305  0.00  0.00    +0.000 C 
ENDBRANCH  28  30
ENDBRANCH  27  28
ENDBRANCH  21  22
ENDBRANCH  20  21
ENDBRANCH   4  20
TORSDOF 9
ENDMDL
MODEL 4
REMARK VINA RESULT:      -7.7      2.151      8.567
REMARK  Name = 
REMARK  14 active torsions:
REMARK  status: ('A' for Active; 'I' for Inactive)
REMARK    1  A    between atoms: C_1  and  C_2
REMARK    2  A    between atoms: C_2  and  C_3
REMARK    3  A    between atoms: C_6  and  O_7
REMARK    4  A    between atoms: O_7  and  C_8
REMARK    5  A    between atoms: C_8  and  C_9
REMARK    6  A    between atoms: C_14  and  C_15
REMARK    7  A    between atoms: C_15  and  O_17
REMARK    8  A    between atoms: O_17  and  C_18
REMARK    9  A    between atoms: C_23  and  N_24
REMARK   10  A    between atoms: N_24  and  C_25
REMARK   11  A    between atoms: C_26  and  C_28
REMARK   12  A    between atoms: C_28  and  C_29
REMARK   13  A    between atoms: C_29  and  C_30
REMARK   14  A    between atoms: C_29  and  C_31
REMARK                            x       y       z     vdW  Elec       q    Type
REMARK                         _______ _______ _______ _____ _____    ______ ____
ROOT
ATOM      1  C   UNL     1       2.266   5.179  20.439  0.00  0.00    +0.000 A 
ATOM      2  N   UNL     1       1.728   6.327  20.926  0.00  0.00    +0.000 NA
ATOM      3  C   UNL     1       1.791   7.234  19.980  0.00  0.00    +0.000 A 
ATOM      4  C   UNL     1       1.351   8.597  19.991  0.00  0.00    +0.000 A 
ATOM      5  C   UNL     1       1.518   9.355  18.878  0.00  0.00    +0.000 A 
ATOM      6  C   UNL     1       2.214   8.825  17.724  0.00  0.00    +0.000 A 
ATOM      7  C   UNL     1       2.659   7.557  17.741  0.00  0.00    +0.000 A 
ATOM      8  N   UNL     1       2.425   6.732  18.855  0.00  0.00    +0.000 N 
ATOM      9  C   UNL     1       2.689   5.372  19.120  0.00  0.00    +0.000 A 
ENDROOT
BRANCH   9  10
ATOM     10  N   UNL     1       3.282   4.448  18.227  0.00  0.00    +0.000 N 
ATOM     11  C   UNL     1       2.490   3.635  17.291  0.00  0.00    +0.000 C 
ATOM     12  C   UNL     1       4.675   4.423  18.033  0.00  0.00    +0.000 C 
ATOM     13  O   UNL     1       5.229   3.627  17.267  0.00  0.00    +0.000 OA
BRANCH  12  14
ATOM     14  C   UNL     1       5.504   5.405  18.858  0.00  0.00    +0.000 C 
BRANCH  14  15
ATOM     15  C   UNL     1       6.877   5.717  18.266  0.00  0.00    +0.000 C 
ATOM     16  C   UNL     1       6.860   7.008  17.441  0.00  0.00    +0.000 C 
ATOM     17  C   UNL     1       7.924   5.832  19.376  0.00  0.00    +0.000 C 
ENDBRANCH  14  15
ENDBRANCH  12  14
ENDBRANCH   9  10
BRANCH   1  19
ATOM     18  C   UNL     1       1.249   2.938  21.057  0.00  0.00    +0.000 C 
ATOM     19  C   UNL     1       2.273   4.012  21.368  0.00  0.00    +0.000 C 
ENDBRANCH   1  19
BRANCH   4  20
ATOM     20  O   UNL     1       0.782   9.081  21.164  0.00  0.00    +0.000 OA
BRANCH  20  21
ATOM     21  C   UNL     1       0.910  10.523  21.294  0.00  0.00    +0.000 C 
BRANCH  21  22
ATOM     22  C   UNL     1      -0.367  11.231  21.677  0.00  0.00    +0.000 A 
ATOM     23  C   UNL     1      -0.915  11.000  22.951  0.00  0.00    +0.000 A 
ATOM     24  C   UNL     1      -2.123  11.583  23.325  0.00  0.00    +0.000 A 
ATOM     25  C   UNL     1      -2.797  12.410  22.436  0.00  0.00    +0.000 A 
ATOM     26  C   UNL     1      -2.255  12.673  21.179  0.00  0.00    +0.000 A 
ATOM     27  C   UNL     1      -1.035  12.105  20.784  0.00  0.00    +0.000 A 
BRANCH  27  28
ATOM     28  C   UNL     1      -0.540  12.444  19.391  0.00  0.00    +0.000 C 
ATOM     29  O   UNL     1      -0.881  11.890  18.389  0.00  0.00    +0.000 OA
BRANCH  28  30
ATOM     30  O   UNL     1       0.346  13.492  19.455  0.00  0.00    +0.000 OA
ATOM     31  C   UNL     1      -0.080  14.681  18.776  0.00  0.00    +0.000 C 
ENDBRANCH  28  30
ENDBRANCH  27  28
ENDBRANCH  21  22
ENDBRANCH  20  21
ENDBRANCH   4  20
TORSDOF 9
ENDMDL
MODEL 5
REMARK VINA RESULT:      -7.5      2.476      8.426
REMARK  Name = 
REMARK  14 active torsions:
REMARK  status: ('A' for Active; 'I' for Inactive)
REMARK    1  A    between atoms: C_1  and  C_2
REMARK    2  A    between atoms: C_2  and  C_3
REMARK    3  A    between atoms: C_6  and  O_7
REMARK    4  A    between atoms: O_7  and  C_8
REMARK    5  A    between atoms: C_8  and  C_9
REMARK    6  A    between atoms: C_14  and  C_15
REMARK    7  A    between atoms: C_15  and  O_17
REMARK    8  A    between atoms: O_17  and  C_18
REMARK    9  A    between atoms: C_23  and  N_24
REMARK   10  A    between atoms: N_24  and  C_25
REMARK   11  A    between atoms: C_26  and  C_28
REMARK   12  A    between atoms: C_28  and  C_29
REMARK   13  A    between atoms: C_29  and  C_30
REMARK   14  A    between atoms: C_29  and  C_31
REMARK                            x       y       z     vdW  Elec       q    Type
REMARK                         _______ _______ _______ _____ _____    ______ ____
ROOT
ATOM      1  C   UNL     1       2.529   4.722  20.259  0.00  0.00    +0.000 A 
ATOM      2  N   UNL     1       1.921   5.768  20.877  0.00  0.00    +0.000 NA
ATOM      3  C   UNL     1       1.939   6.788  20.052  0.00  0.00    +0.000 A 
ATOM      4  C   UNL     1       1.421   8.112  20.226  0.00  0.00    +0.000 A 
ATOM      5  C   UNL     1       1.552   9.012  19.219  0.00  0.00    +0.000 A 
ATOM      6  C   UNL     1       2.286   8.671  18.018  0.00  0.00    +0.000 A 
ATOM      7  C   UNL     1       2.804   7.437  17.884  0.00  0.00    +0.000 A 
ATOM      8  N   UNL     1       2.610   6.468  18.883  0.00  0.00    +0.000 N 
ATOM      9  C   UNL     1       2.950   5.102  18.981  0.00  0.00    +0.000 A 
ENDROOT
BRANCH   9  10
ATOM     10  N   UNL     1       3.602   4.332  17.989  0.00  0.00    +0.000 N 
ATOM     11  C   UNL     1       2.866   3.581  16.960  0.00  0.00    +0.000 C 
ATOM     12  C   UNL     1       4.993   4.427  17.799  0.00  0.00    +0.000 C 
ATOM     13  O   UNL     1       5.599   3.766  16.948  0.00  0.00    +0.000 OA
BRANCH  12  14
ATOM     14  C   UNL     1       5.755   5.361  18.737  0.00  0.00    +0.000 C 
BRANCH  14  15
ATOM     15  C   UNL     1       7.167   5.706  18.266  0.00  0.00    +0.000 C 
ATOM     16  C   UNL     1       7.197   7.012  17.468  0.00  0.00    +0.000 C 
ATOM     17  C   UNL     1       8.117   5.813  19.462  0.00  0.00    +0.000 C 
ENDBRANCH  14  15
ENDBRANCH  12  14
ENDBRANCH   9  10
BRANCH   1  19
ATOM     18  C   UNL     1       1.255   2.810  21.336  0.00  0.00    +0.000 C 
ATOM     19  C   UNL     1       2.596   3.451  21.036  0.00  0.00    +0.000 C 
ENDBRANCH   1  19
BRANCH   4  20
ATOM     20  O   UNL     1       0.815   8.412  21.442  0.00  0.00    +0.000 OA
BRANCH  20  21
ATOM     21  C   UNL     1       1.257   9.685  21.986  0.00  0.00    +0.000 C 
BRANCH  21  22
ATOM     22  C   UNL     1       0.149  10.686  22.214  0.00  0.00    +0.000 A 
ATOM     23  C   UNL     1      -0.907  10.343  23.076  0.00  0.00    +0.000 A 
ATOM     24  C   UNL     1      -1.981  11.209  23.267  0.00  0.00    +0.000 A 
ATOM     25  C   UNL     1      -2.012  12.431  22.608  0.00  0.00    +0.000 A 
ATOM     26  C   UNL     1      -0.959  12.799  21.771  0.00  0.00    +0.000 A 
ATOM     27  C   UNL     1       0.137  11.948  21.570  0.00  0.00    +0.000 A 
BRANCH  27  28
ATOM     28  C   UNL     1       1.222  12.437  20.629  0.00  0.00    +0.000 C 
ATOM     29  O   UNL     1       2.265  12.906  20.973  0.00  0.00    +0.000 OA
BRANCH  28  30
ATOM     30  O   UNL     1       0.829  12.244  19.327  0.00  0.00    +0.000 OA
ATOM     31  C   UNL     1       1.326  13.217  18.400  0.00  0.00    +0.000 C 
ENDBRANCH  28  30
ENDBRANCH  27  28
ENDBRANCH  21  22
ENDBRANCH  20  21
ENDBRANCH   4  20
TORSDOF 9
ENDMDL
MODEL 6
REMARK VINA RESULT:      -7.4      2.220      8.554
REMARK  Name = 
REMARK  14 active torsions:
REMARK  status: ('A' for Active; 'I' for Inactive)
REMARK    1  A    between atoms: C_1  and  C_2
REMARK    2  A    between atoms: C_2  and  C_3
REMARK    3  A    between atoms: C_6  and  O_7
REMARK    4  A    between atoms: O_7  and  C_8
REMARK    5  A    between atoms: C_8  and  C_9
REMARK    6  A    between atoms: C_14  and  C_15
REMARK    7  A    between atoms: C_15  and  O_17
REMARK    8  A    between atoms: O_17  and  C_18
REMARK    9  A    between atoms: C_23  and  N_24
REMARK   10  A    between atoms: N_24  and  C_25
REMARK   11  A    between atoms: C_26  and  C_28
REMARK   12  A    between atoms: C_28  and  C_29
REMARK   13  A    between atoms: C_29  and  C_30
REMARK   14  A    between atoms: C_29  and  C_31
REMARK                            x       y       z     vdW  Elec       q    Type
REMARK                         _______ _______ _______ _____ _____    ______ ____
ROOT
ATOM      1  C   UNL     1       4.097   6.879  17.194  0.00  0.00    +0.000 A 
ATOM      2  N   UNL     1       3.198   7.897  17.163  0.00  0.00    +0.000 NA
ATOM      3  C   UNL     1       2.574   7.917  18.317  0.00  0.00    +0.000 A 
ATOM      4  C   UNL     1       1.548   8.800  18.784  0.00  0.00    +0.000 A 
ATOM      5  C   UNL     1       1.049   8.632  20.035  0.00  0.00    +0.000 A 
ATOM      6  C   UNL     1       1.481   7.520  20.856  0.00  0.00    +0.000 A 
ATOM      7  C   UNL     1       2.416   6.674  20.390  0.00  0.00    +0.000 A 
ATOM      8  N   UNL     1       3.000   6.879  19.129  0.00  0.00    +0.000 N 
ATOM      9  C   UNL     1       4.038   6.227  18.429  0.00  0.00    +0.000 A 
ENDROOT
BRANCH   9  10
ATOM     10  N   UNL     1       4.804   5.135  18.901  0.00  0.00    +0.000 N 
ATOM     11  C   UNL     1       6.150   5.302  19.473  0.00  0.00    +0.000 C 
ATOM     12  C   UNL     1       4.228   3.861  19.055  0.00  0.00    +0.000 C 
ATOM     13  O   UNL     1       4.867   2.883  19.458  0.00  0.00    +0.000 OA
BRANCH  12  14
ATOM     14  C   UNL     1       2.763   3.713  18.649  0.00  0.00    +0.000 C 
BRANCH  14  15
ATOM     15  C   UNL     1       1.986   2.688  19.474  0.00  0.00    +0.000 C 
ATOM     16  C   UNL     1       1.707   3.194  20.893  0.00  0.00    +0.000 C 
ATOM     17  C   UNL     1       0.665   2.340  18.785  0.00  0.00    +0.000 C 
ENDBRANCH  14  15
ENDBRANCH  12  14
ENDBRANCH   9  10
BRANCH   1  19
ATOM     18  C   UNL     1       5.217   5.257  15.596  0.00  0.00    +0.000 C 
ATOM     19  C   UNL     1       4.925   6.699  15.966  0.00  0.00    +0.000 C 
ENDBRANCH   1  19
BRANCH   4  20
ATOM     20  O   UNL     1       1.100   9.787  17.913  0.00  0.00    +0.000 OA
BRANCH  20  21
ATOM     21  C   UNL     1       0.322  10.815  18.584  0.00  0.00    +0.000 C 
BRANCH  21  22
ATOM     22  C   UNL     1      -1.154  10.788  18.268  0.00  0.00    +0.000 A 
ATOM     23  C   UNL     1      -1.623   9.884  17.299  0.00  0.00    +0.000 A 
ATOM     24  C   UNL     1      -2.967   9.867  16.930  0.00  0.00    +0.000 A 
ATOM     25  C   UNL     1      -3.860  10.744  17.530  0.00  0.00    +0.000 A 
ATOM     26  C   UNL     1      -3.418  11.627  18.514  0.00  0.00    +0.000 A 
ATOM     27  C   UNL     1      -2.072  11.657  18.908  0.00  0.00    +0.000 A 
BRANCH  27  28
ATOM     28  C   UNL     1      -1.692  12.664  19.976  0.00  0.00    +0.000 C 
ATOM     29  O   UNL     1      -1.251  13.753  19.763  0.00  0.00    +0.000 OA
BRANCH  28  30
ATOM     30  O   UNL     1      -1.946  12.140  21.220  0.00  0.00    +0.000 OA
ATOM     31  C   UNL     1      -0.780  11.752  21.958  0.00  0.00    +0.000 C 
ENDBRANCH  28  30
ENDBRANCH  27  28
ENDBRANCH  21  22
ENDBRANCH  20  21
ENDBRANCH   4  20
TORSDOF 9
ENDMDL
MODEL 7
REMARK VINA RESULT:      -7.4      1.292      2.644
REMARK  Name = 
REMARK  14 active torsions:
REMARK  status: ('A' for Active; 'I' for Inactive)
REMARK    1  A    between atoms: C_1  and  C_2
REMARK    2  A    between atoms: C_2  and  C_3
REMARK    3  A    between atoms: C_6  and  O_7
REMARK    4  A    between atoms: O_7  and  C_8
REMARK    5  A    between atoms: C_8  and  C_9
REMARK    6  A    between atoms: C_14  and  C_15
REMARK    7  A    between atoms: C_15  and  O_17
REMARK    8  A    between atoms: O_17  and  C_18
REMARK    9  A    between atoms: C_23  and  N_24
REMARK   10  A    between atoms: N_24  and  C_25
REMARK   11  A    between atoms: C_26  and  C_28
REMARK   12  A    between atoms: C_28  and  C_29
REMARK   13  A    between atoms: C_29  and  C_30
REMARK   14  A    between atoms: C_29  and  C_31
REMARK                            x       y       z     vdW  Elec       q    Type
REMARK                         _______ _______ _______ _____ _____    ______ ____
ROOT
ATOM      1  C   UNL     1      -0.284  10.212  21.568  0.00  0.00    +0.000 A 
ATOM      2  N   UNL     1       0.435   9.061  21.502  0.00  0.00    +0.000 NA
ATOM      3  C   UNL     1       0.954   8.981  20.300  0.00  0.00    +0.000 A 
ATOM      4  C   UNL     1       1.795   7.969  19.735  0.00  0.00    +0.000 A 
ATOM      5  C   UNL     1       2.223   8.103  18.453  0.00  0.00    +0.000 A 
ATOM      6  C   UNL     1       1.762   9.205  17.636  0.00  0.00    +0.000 A 
ATOM      7  C   UNL     1       0.940  10.127  18.165  0.00  0.00    +0.000 A 
ATOM      8  N   UNL     1       0.550  10.048  19.514  0.00  0.00    +0.000 N 
ATOM      9  C   UNL     1      -0.212  10.891  20.348  0.00  0.00    +0.000 A 
ENDROOT
BRANCH   9  10
ATOM     10  N   UNL     1      -0.787  12.131  19.980  0.00  0.00    +0.000 N 
ATOM     11  C   UNL     1      -2.227  12.290  19.726  0.00  0.00    +0.000 C 
ATOM     12  C   UNL     1      -0.044  13.323  20.058  0.00  0.00    +0.000 C 
ATOM     13  O   UNL     1      -0.509  14.423  19.740  0.00  0.00    +0.000 OA
BRANCH  12  14
ATOM     14  C   UNL     1       1.409  13.201  20.514  0.00  0.00    +0.000 C 
BRANCH  14  15
ATOM     15  C   UNL     1       2.394  14.027  19.688  0.00  0.00    +0.000 C 
ATOM     16  C   UNL     1       3.677  14.328  20.469  0.00  0.00    +0.000 C 
ATOM     17  C   UNL     1       2.744  13.298  18.389  0.00  0.00    +0.000 C 
ENDBRANCH  14  15
ENDBRANCH  12  14
ENDBRANCH   9  10
BRANCH   1  19
ATOM     18  C   UNL     1      -1.270  11.956  23.126  0.00  0.00    +0.000 C 
ATOM     19  C   UNL     1      -0.948  10.495  22.874  0.00  0.00    +0.000 C 
ENDBRANCH   1  19
BRANCH   4  20
ATOM     20  O   UNL     1       2.122   6.880  20.536  0.00  0.00    +0.000 OA
BRANCH  20  21
ATOM     21  C   UNL     1       3.108   6.009  19.920  0.00  0.00    +0.000 C 
BRANCH  21  22
ATOM     22  C   UNL     1       2.619   4.607  19.646  0.00  0.00    +0.000 A 
ATOM     23  C   UNL     1       1.309   4.260  20.023  0.00  0.00    +0.000 A 
ATOM     24  C   UNL     1       0.836   2.962  19.846  0.00  0.00    +0.000 A 
ATOM     25  C   UNL     1       1.659   1.996  19.283  0.00  0.00    +0.000 A 
ATOM     26  C   UNL     1       2.951   2.329  18.877  0.00  0.00    +0.000 A 
ATOM     27  C   UNL     1       3.446   3.631  19.037  0.00  0.00    +0.000 A 
BRANCH  27  28
ATOM     28  C   UNL     1       4.868   3.885  18.575  0.00  0.00    +0.000 C 
ATOM     29  O   UNL     1       5.829   3.876  19.284  0.00  0.00    +0.000 OA
BRANCH  28  30
ATOM     30  O   UNL     1       4.883   4.111  17.221  0.00  0.00    +0.000 OA
ATOM     31  C   UNL     1       6.178   4.394  16.673  0.00  0.00    +0.000 C 
ENDBRANCH  28  30
ENDBRANCH  27  28
ENDBRANCH  21  22
ENDBRANCH  20  21
ENDBRANCH   4  20
TORSDOF 9
ENDMDL
MODEL 8
REMARK VINA RESULT:      -7.4      1.035      1.324
REMARK  Name = 
REMARK  14 active torsions:
REMARK  status: ('A' for Active; 'I' for Inactive)
REMARK    1  A    between atoms: C_1  and  C_2
REMARK    2  A    between atoms: C_2  and  C_3
REMARK    3  A    between atoms: C_6  and  O_7
REMARK    4  A    between atoms: O_7  and  C_8
REMARK    5  A    between atoms: C_8  and  C_9
REMARK    6  A    between atoms: C_14  and  C_15
REMARK    7  A    between atoms: C_15  and  O_17
REMARK    8  A    between atoms: O_17  and  C_18
REMARK    9  A    between atoms: C_23  and  N_24
REMARK   10  A    between atoms: N_24  and  C_25
REMARK   11  A    between atoms: C_26  and  C_28
REMARK   12  A    between atoms: C_28  and  C_29
REMARK   13  A    between atoms: C_29  and  C_30
REMARK   14  A    between atoms: C_29  and  C_31
REMARK                            x       y       z     vdW  Elec       q    Type
REMARK                         _______ _______ _______ _____ _____    ______ ____
ROOT
ATOM      1  C   UNL     1       0.364  10.459  21.069  0.00  0.00    +0.000 A 
ATOM      2  N   UNL     1       0.714   9.150  21.172  0.00  0.00    +0.000 NA
ATOM      3  C   UNL     1       1.344   8.815  20.071  0.00  0.00    +0.000 A 
ATOM      4  C   UNL     1       1.917   7.557  19.695  0.00  0.00    +0.000 A 
ATOM      5  C   UNL     1       2.534   7.445  18.491  0.00  0.00    +0.000 A 
ATOM      6  C   UNL     1       2.535   8.553  17.558  0.00  0.00    +0.000 A 
ATOM      7  C   UNL     1       1.958   9.715  17.907  0.00  0.00    +0.000 A 
ATOM      8  N   UNL     1       1.383   9.875  19.180  0.00  0.00    +0.000 N 
ATOM      9  C   UNL     1       0.798  10.974  19.843  0.00  0.00    +0.000 A 
ENDROOT
BRANCH   9  10
ATOM     10  N   UNL     1       0.670  12.286  19.330  0.00  0.00    +0.000 N 
ATOM     11  C   UNL     1       1.740  13.289  19.450  0.00  0.00    +0.000 C 
ATOM     12  C   UNL     1      -0.398  12.629  18.481  0.00  0.00    +0.000 C 
ATOM     13  O   UNL     1      -0.546  13.766  18.019  0.00  0.00    +0.000 OA
BRANCH  12  14
ATOM     14  C   UNL     1      -1.421  11.535  18.183  0.00  0.00    +0.000 C 
BRANCH  14  15
ATOM     15  C   UNL     1      -2.675  11.598  19.053  0.00  0.00    +0.000 C 
ATOM     16  C   UNL     1      -2.640  12.789  20.016  0.00  0.00    +0.000 C 
ATOM     17  C   UNL     1      -3.928  11.685  18.177  0.00  0.00    +0.000 C 
ENDBRANCH  14  15
ENDBRANCH  12  14
ENDBRANCH   9  10
BRANCH   1  19
ATOM     18  C   UNL     1      -0.820  10.029  23.272  0.00  0.00    +0.000 C 
ATOM     19  C   UNL     1      -0.356  11.038  22.239  0.00  0.00    +0.000 C 
ENDBRANCH   1  19
BRANCH   4  20
ATOM     20  O   UNL     1       1.796   6.500  20.589  0.00  0.00    +0.000 OA
BRANCH  20  21
ATOM     21  C   UNL     1       2.818   5.485  20.398  0.00  0.00    +0.000 C 
BRANCH  21  22
ATOM     22  C   UNL     1       2.348   4.256  19.657  0.00  0.00    +0.000 A 
ATOM     23  C   UNL     1       1.138   3.653  20.045  0.00  0.00    +0.000 A 
ATOM     24  C   UNL     1       0.696   2.483  19.432  0.00  0.00    +0.000 A 
ATOM     25  C   UNL     1       1.450   1.904  18.420  0.00  0.00    +0.000 A 
ATOM     26  C   UNL     1       2.638   2.503  18.004  0.00  0.00    +0.000 A 
ATOM     27  C   UNL     1       3.099   3.686  18.599  0.00  0.00    +0.000 A 
BRANCH  27  28
ATOM     28  C   UNL     1       4.409   4.249  18.083  0.00  0.00    +0.000 C 
ATOM     29  O   UNL     1       4.552   4.793  17.029  0.00  0.00    +0.000 OA
BRANCH  28  30
ATOM     30  O   UNL     1       5.398   4.053  19.015  0.00  0.00    +0.000 OA
ATOM     31  C   UNL     1       6.237   5.191  19.249  0.00  0.00    +0.000 C 
ENDBRANCH  28  30
ENDBRANCH  27  28
ENDBRANCH  21  22
ENDBRANCH  20  21
ENDBRANCH   4  20
TORSDOF 9
ENDMDL
MODEL 9
REMARK VINA RESULT:      -7.3      1.103      1.323
REMARK  Name = 
REMARK  14 active torsions:
REMARK  status: ('A' for Active; 'I' for Inactive)
REMARK    1  A    between atoms: C_1  and  C_2
REMARK    2  A    between atoms: C_2  and  C_3
REMARK    3  A    between atoms: C_6  and  O_7
REMARK    4  A    between atoms: O_7  and  C_8
REMARK    5  A    between atoms: C_8  and  C_9
REMARK    6  A    between atoms: C_14  and  C_15
REMARK    7  A    between atoms: C_15  and  O_17
REMARK    8  A    between atoms: O_17  and  C_18
REMARK    9  A    between atoms: C_23  and  N_24
REMARK   10  A    between atoms: N_24  and  C_25
REMARK   11  A    between atoms: C_26  and  C_28
REMARK   12  A    between atoms: C_28  and  C_29
REMARK   13  A    between atoms: C_29  and  C_30
REMARK   14  A    between atoms: C_29  and  C_31
REMARK                            x       y       z     vdW  Elec       q    Type
REMARK                         _______ _______ _______ _____ _____    ______ ____
ROOT
ATOM      1  C   UNL     1       0.058  10.109  21.780  0.00  0.00    +0.000 A 
ATOM      2  N   UNL     1       0.707   8.940  21.543  0.00  0.00    +0.000 NA
ATOM      3  C   UNL     1       1.209   8.996  20.333  0.00  0.00    +0.000 A 
ATOM      4  C   UNL     1       1.984   8.025  19.620  0.00  0.00    +0.000 A 
ATOM      5  C   UNL     1       2.406   8.310  18.362  0.00  0.00    +0.000 A 
ATOM      6  C   UNL     1       2.004   9.539  17.711  0.00  0.00    +0.000 A 
ATOM      7  C   UNL     1       1.243  10.424  18.376  0.00  0.00    +0.000 A 
ATOM      8  N   UNL     1       0.862  10.182  19.708  0.00  0.00    +0.000 N 
ATOM      9  C   UNL     1       0.158  10.945  20.663  0.00  0.00    +0.000 A 
ENDROOT
BRANCH   9  10
ATOM     10  N   UNL     1      -0.345  12.254  20.479  0.00  0.00    +0.000 N 
ATOM     11  C   UNL     1       0.428  13.455  20.831  0.00  0.00    +0.000 C 
ATOM     12  C   UNL     1      -1.522  12.479  19.741  0.00  0.00    +0.000 C 
ATOM     13  O   UNL     1      -1.996  13.607  19.565  0.00  0.00    +0.000 OA
BRANCH  12  14
ATOM     14  C   UNL     1      -2.239  11.246  19.195  0.00  0.00    +0.000 C 
BRANCH  14  15
ATOM     15  C   UNL     1      -2.522  11.300  17.695  0.00  0.00    +0.000 C 
ATOM     16  C   UNL     1      -2.071  10.020  16.985  0.00  0.00    +0.000 C 
ATOM     17  C   UNL     1      -4.014  11.529  17.441  0.00  0.00    +0.000 C 
ENDBRANCH  14  15
ENDBRANCH  12  14
ENDBRANCH   9  10
BRANCH   1  19
ATOM     18  C   UNL     1      -1.739  11.218  23.187  0.00  0.00    +0.000 C 
ATOM     19  C   UNL     1      -0.575  10.247  23.123  0.00  0.00    +0.000 C 
ENDBRANCH   1  19
BRANCH   4  20
ATOM     20  O   UNL     1       2.252   6.819  20.258  0.00  0.00    +0.000 OA
BRANCH  20  21
ATOM     21  C   UNL     1       2.152   5.678  19.363  0.00  0.00    +0.000 C 
BRANCH  21  22
ATOM     22  C   UNL     1       2.395   4.343  20.025  0.00  0.00    +0.000 A 
ATOM     23  C   UNL     1       1.440   3.852  20.932  0.00  0.00    +0.000 A 
ATOM     24  C   UNL     1       1.651   2.655  21.612  0.00  0.00    +0.000 A 
ATOM     25  C   UNL     1       2.813   1.928  21.390  0.00  0.00    +0.000 A 
ATOM     26  C   UNL     1       3.758   2.385  20.473  0.00  0.00    +0.000 A 
ATOM     27  C   UNL     1       3.564   3.583  19.770  0.00  0.00    +0.000 A 
BRANCH  27  28
ATOM     28  C   UNL     1       4.659   3.998  18.806  0.00  0.00    +0.000 C 
ATOM     29  O   UNL     1       4.604   3.885  17.618  0.00  0.00    +0.000 OA
BRANCH  28  30
ATOM     30  O   UNL     1       5.712   4.537  19.504  0.00  0.00    +0.000 OA
ATOM     31  C   UNL     1       6.578   5.377  18.730  0.00  0.00    +0.000 C 
ENDBRANCH  28  30
ENDBRANCH  27  28
ENDBRANCH  21  22
ENDBRANCH  20  21
ENDBRANCH   4  20
TORSDOF 9
ENDMDL
