MODEL 1
REMARK VINA RESULT:      -6.9      0.000      0.000
REMARK  Name = 
REMARK  9 active torsions:
REMARK  status: ('A' for Active; 'I' for Inactive)
REMARK    1  A    between atoms: C_1  and  O_2
REMARK    2  A    between atoms: O_2  and  C_3
REMARK    3  A    between atoms: C_3  and  C_5
REMARK    4  A    between atoms: C_5  and  C_6
REMARK    5  A    between atoms: C_5  and  O_7
REMARK    6  A    between atoms: O_7  and  C_8
REMARK    7  A    between atoms: C_11  and  N_12
REMARK    8  A    between atoms: N_12  and  C_13
REMARK    9  A    between atoms: N_12  and  C_14
REMARK                            x       y       z     vdW  Elec       q    Type
REMARK                         _______ _______ _______ _____ _____    ______ ____
ROOT
ATOM      1  C   UNL     1       2.399   6.386  19.572  0.00  0.00    +0.000 A 
ATOM      2  C   UNL     1       1.761   7.126  20.567  0.00  0.00    +0.000 A 
ATOM      3  C   UNL     1       1.324   8.434  20.311  0.00  0.00    +0.000 A 
ATOM      4  C   UNL     1       1.491   9.029  19.051  0.00  0.00    +0.000 A 
ATOM      5  C   UNL     1       2.185   8.279  18.086  0.00  0.00    +0.000 A 
ATOM      6  C   UNL     1       2.657   6.988  18.348  0.00  0.00    +0.000 A 
ENDROOT
BRANCH   4   7
ATOM      7  N   UNL     1       0.974  10.320  18.778  0.00  0.00    +0.000 N 
ATOM      8  C   UNL     1       1.958  11.319  18.323  0.00  0.00    +0.000 C 
BRANCH   7   9
ATOM      9  C   UNL     1      -0.394  10.722  18.649  0.00  0.00    +0.000 A 
ATOM     10  C   UNL     1      -1.199  10.117  17.654  0.00  0.00    +0.000 A 
ATOM     11  C   UNL     1      -2.554  10.425  17.483  0.00  0.00    +0.000 A 
ATOM     12  C   UNL     1      -3.143  11.387  18.283  0.00  0.00    +0.000 A 
ATOM     13 CL   UNL     1      -4.808  11.770  18.080  0.00  0.00    +0.000 Cl
ATOM     14  C   UNL     1      -2.395  12.027  19.262  0.00  0.00    +0.000 A 
ATOM     15  C   UNL     1      -1.043  11.687  19.462  0.00  0.00    +0.000 A 
ATOM     16 CL   UNL     1      -0.324  12.437  20.852  0.00  0.00    +0.000 Cl
ENDBRANCH   7   9
ENDBRANCH   4   7
BRANCH   1  17
ATOM     17  O   UNL     1       2.703   5.095  19.898  0.00  0.00    +0.000 OA
BRANCH  17  18
ATOM     18  C   UNL     1       1.631   4.142  19.977  0.00  0.00    +0.000 C 
ATOM     19  C   UNL     1       1.753   3.264  21.228  0.00  0.00    +0.000 C 
BRANCH  18  20
ATOM     20  C   UNL     1       1.687   3.240  18.737  0.00  0.00    +0.000 C 
ATOM     21  O   UNL     1       1.282   3.527  17.615  0.00  0.00    +0.000 OA
BRANCH  20  23
ATOM     22  C   UNL     1       3.368   1.667  18.261  0.00  0.00    +0.000 C 
ATOM     23  O   UNL     1       2.246   2.034  19.066  0.00  0.00    +0.000 OA
ENDBRANCH  20  23
ENDBRANCH  18  20
ENDBRANCH  17  18
ENDBRANCH   1  17
TORSDOF 6
ENDMDL
MODEL 2
REMARK VINA RESULT:      -6.8      1.031      1.230
REMARK  Name = 
REMARK  9 active torsions:
REMARK  status: ('A' for Active; 'I' for Inactive)
REMARK    1  A    between atoms: C_1  and  O_2
REMARK    2  A    between atoms: O_2  and  C_3
REMARK    3  A    between atoms: C_3  and  C_5
REMARK    4  A    between atoms: C_5  and  C_6
REMARK    5  A    between atoms: C_5  and  O_7
REMARK    6  A    between atoms: O_7  and  C_8
REMARK    7  A    between atoms: C_11  and  N_12
REMARK    8  A    between atoms: N_12  and  C_13
REMARK    9  A    between atoms: N_12  and  C_14
REMARK                            x       y       z     vdW  Elec       q    Type
REMARK                         _______ _______ _______ _____ _____    ______ ____
ROOT
ATOM      1  C   UNL     1       2.370   6.752  19.723  0.00  0.00    +0.000 A 
ATOM      2  C   UNL     1       1.696   7.455  20.722  0.00  0.00    +0.000 A 
ATOM      3  C   UNL     1       1.131   8.710  20.451  0.00  0.00    +0.000 A 
ATOM      4  C   UNL     1       1.204   9.286  19.172  0.00  0.00    +0.000 A 
ATOM      5  C   UNL     1       1.935   8.578  18.203  0.00  0.00    +0.000 A 
ATOM      6  C   UNL     1       2.534   7.343  18.479  0.00  0.00    +0.000 A 
ENDROOT
BRANCH   4   7
ATOM      7  N   UNL     1       0.561  10.516  18.887  0.00  0.00    +0.000 N 
ATOM      8  C   UNL     1       1.455  11.666  18.659  0.00  0.00    +0.000 C 
BRANCH   7   9
ATOM      9  C   UNL     1      -0.811  10.745  18.552  0.00  0.00    +0.000 A 
ATOM     10  C   UNL     1      -1.379  10.052  17.456  0.00  0.00    +0.000 A 
ATOM     11  C   UNL     1      -2.721  10.191  17.083  0.00  0.00    +0.000 A 
ATOM     12  C   UNL     1      -3.537  11.067  17.775  0.00  0.00    +0.000 A 
ATOM     13 CL   UNL     1      -5.187  11.242  17.322  0.00  0.00    +0.000 Cl
ATOM     14  C   UNL     1      -3.027  11.789  18.845  0.00  0.00    +0.000 A 
ATOM     15  C   UNL     1      -1.689  11.618  19.248  0.00  0.00    +0.000 A 
ATOM     16 CL   UNL     1      -1.282  12.444  20.720  0.00  0.00    +0.000 Cl
ENDBRANCH   7   9
ENDBRANCH   4   7
BRANCH   1  17
ATOM     17  O   UNL     1       2.803   5.503  20.069  0.00  0.00    +0.000 OA
BRANCH  17  18
ATOM     18  C   UNL     1       2.177   4.369  19.447  0.00  0.00    +0.000 C 
ATOM     19  C   UNL     1       1.072   3.784  20.332  0.00  0.00    +0.000 C 
BRANCH  18  20
ATOM     20  C   UNL     1       3.244   3.290  19.215  0.00  0.00    +0.000 C 
ATOM     21  O   UNL     1       3.961   2.787  20.073  0.00  0.00    +0.000 OA
BRANCH  20  23
ATOM     22  C   UNL     1       3.959   3.947  17.075  0.00  0.00    +0.000 C 
ATOM     23  O   UNL     1       3.299   2.972  17.885  0.00  0.00    +0.000 OA
ENDBRANCH  20  23
ENDBRANCH  18  20
ENDBRANCH  17  18
ENDBRANCH   1  17
TORSDOF 6
ENDMDL
MODEL 3
REMARK VINA RESULT:      -6.8      1.876      2.482
REMARK  Name = 
REMARK  9 active torsions:
REMARK  status: ('A' for Active; 'I' for Inactive)
REMARK    1  A    between atoms: C_1  and  O_2
REMARK    2  A    between atoms: O_2  and  C_3
REMARK    3  A    between atoms: C_3  and  C_5
REMARK    4  A    between atoms: C_5  and  C_6
REMARK    5  A    between atoms: C_5  and  O_7
REMARK    6  A    between atoms: O_7  and  C_8
REMARK    7  A    between atoms: C_11  and  N_12
REMARK    8  A    between atoms: N_12  and  C_13
REMARK    9  A    between atoms: N_12  and  C_14
REMARK                            x       y       z     vdW  Elec       q    Type
REMARK                         _______ _______ _______ _____ _____    ______ ____
ROOT
ATOM      1  C   UNL     1       2.640   6.966  19.426  0.00  0.00    +0.000 A 
ATOM      2  C   UNL     1       2.621   7.598  18.182  0.00  0.00    +0.000 A 
ATOM      3  C   UNL     1       1.880   8.774  17.992  0.00  0.00    +0.000 A 
ATOM      4  C   UNL     1       1.159   9.363  19.043  0.00  0.00    +0.000 A 
ATOM      5  C   UNL     1       1.154   8.675  20.269  0.00  0.00    +0.000 A 
ATOM      6  C   UNL     1       1.861   7.481  20.452  0.00  0.00    +0.000 A 
ENDROOT
BRANCH   4   7
ATOM      7  N   UNL     1       0.479  10.593  18.863  0.00  0.00    +0.000 N 
ATOM      8  C   UNL     1       1.338  11.784  18.726  0.00  0.00    +0.000 C 
BRANCH   7   9
ATOM      9  C   UNL     1      -0.902  10.809  18.555  0.00  0.00    +0.000 A 
ATOM     10  C   UNL     1      -1.480  10.121  17.461  0.00  0.00    +0.000 A 
ATOM     11  C   UNL     1      -2.830  10.247  17.112  0.00  0.00    +0.000 A 
ATOM     12  C   UNL     1      -3.644  11.106  17.828  0.00  0.00    +0.000 A 
ATOM     13 CL   UNL     1      -5.304  11.265  17.407  0.00  0.00    +0.000 Cl
ATOM     14  C   UNL     1      -3.124  11.823  18.898  0.00  0.00    +0.000 A 
ATOM     15  C   UNL     1      -1.777  11.664  19.275  0.00  0.00    +0.000 A 
ATOM     16 CL   UNL     1      -1.355  12.478  20.749  0.00  0.00    +0.000 Cl
ENDBRANCH   7   9
ENDBRANCH   4   7
BRANCH   1  17
ATOM     17  O   UNL     1       3.463   5.881  19.525  0.00  0.00    +0.000 OA
BRANCH  17  18
ATOM     18  C   UNL     1       3.833   5.194  18.319  0.00  0.00    +0.000 C 
ATOM     19  C   UNL     1       2.888   4.022  18.031  0.00  0.00    +0.000 C 
BRANCH  18  20
ATOM     20  C   UNL     1       5.257   4.648  18.484  0.00  0.00    +0.000 C 
ATOM     21  O   UNL     1       5.629   3.844  19.333  0.00  0.00    +0.000 OA
BRANCH  20  23
ATOM     22  C   UNL     1       7.403   4.669  17.526  0.00  0.00    +0.000 C 
ATOM     23  O   UNL     1       6.080   5.209  17.546  0.00  0.00    +0.000 OA
ENDBRANCH  20  23
ENDBRANCH  18  20
ENDBRANCH  17  18
ENDBRANCH   1  17
TORSDOF 6
ENDMDL
MODEL 4
REMARK VINA RESULT:      -6.7      4.976      8.242
REMARK  Name = 
REMARK  9 active torsions:
REMARK  status: ('A' for Active; 'I' for Inactive)
REMARK    1  A    between atoms: C_1  and  O_2
REMARK    2  A    between atoms: O_2  and  C_3
REMARK    3  A    between atoms: C_3  and  C_5
REMARK    4  A    between atoms: C_5  and  C_6
REMARK    5  A    between atoms: C_5  and  O_7
REMARK    6  A    between atoms: O_7  and  C_8
REMARK    7  A    between atoms: C_11  and  N_12
REMARK    8  A    between atoms: N_12  and  C_13
REMARK    9  A    between atoms: N_12  and  C_14
REMARK                            x       y       z     vdW  Elec       q    Type
REMARK                         _______ _______ _______ _____ _____    ______ ____
ROOT
ATOM      1  C   UNL     1       1.498   7.121  20.447  0.00  0.00    +0.000 A 
ATOM      2  C   UNL     1       1.598   5.818  20.938  0.00  0.00    +0.000 A 
ATOM      3  C   UNL     1       2.534   4.925  20.399  0.00  0.00    +0.000 A 
ATOM      4  C   UNL     1       3.410   5.312  19.372  0.00  0.00    +0.000 A 
ATOM      5  C   UNL     1       3.249   6.612  18.862  0.00  0.00    +0.000 A 
ATOM      6  C   UNL     1       2.290   7.495  19.371  0.00  0.00    +0.000 A 
ENDROOT
BRANCH   4   7
ATOM      7  N   UNL     1       4.407   4.427  18.889  0.00  0.00    +0.000 N 
ATOM      8  C   UNL     1       4.457   3.105  19.539  0.00  0.00    +0.000 C 
BRANCH   7   9
ATOM      9  C   UNL     1       5.203   4.547  17.706  0.00  0.00    +0.000 A 
ATOM     10  C   UNL     1       4.646   4.177  16.458  0.00  0.00    +0.000 A 
ATOM     11  C   UNL     1       5.342   4.295  15.250  0.00  0.00    +0.000 A 
ATOM     12  C   UNL     1       6.648   4.754  15.255  0.00  0.00    +0.000 A 
ATOM     13 CL   UNL     1       7.509   4.904  13.774  0.00  0.00    +0.000 Cl
ATOM     14  C   UNL     1       7.251   5.111  16.453  0.00  0.00    +0.000 A 
ATOM     15  C   UNL     1       6.537   5.033  17.663  0.00  0.00    +0.000 A 
ATOM     16 CL   UNL     1       7.376   5.707  19.025  0.00  0.00    +0.000 Cl
ENDBRANCH   7   9
ENDBRANCH   4   7
BRANCH   1  17
ATOM     17  O   UNL     1       0.617   7.933  21.102  0.00  0.00    +0.000 OA
BRANCH  17  18
ATOM     18  C   UNL     1       1.122   9.130  21.718  0.00  0.00    +0.000 C 
ATOM     19  C   UNL     1       0.526   9.335  23.114  0.00  0.00    +0.000 C 
BRANCH  18  20
ATOM     20  C   UNL     1       0.741  10.329  20.839  0.00  0.00    +0.000 C 
ATOM     21  O   UNL     1       0.225  10.276  19.728  0.00  0.00    +0.000 OA
BRANCH  20  23
ATOM     22  C   UNL     1       0.211  12.591  21.194  0.00  0.00    +0.000 C 
ATOM     23  O   UNL     1       1.083  11.493  21.472  0.00  0.00    +0.000 OA
ENDBRANCH  20  23
ENDBRANCH  18  20
ENDBRANCH  17  18
ENDBRANCH   1  17
TORSDOF 6
ENDMDL
MODEL 5
REMARK VINA RESULT:      -6.7      1.092      1.662
REMARK  Name = 
REMARK  9 active torsions:
REMARK  status: ('A' for Active; 'I' for Inactive)
REMARK    1  A    between atoms: C_1  and  O_2
REMARK    2  A    between atoms: O_2  and  C_3
REMARK    3  A    between atoms: C_3  and  C_5
REMARK    4  A    between atoms: C_5  and  C_6
REMARK    5  A    between atoms: C_5  and  O_7
REMARK    6  A    between atoms: O_7  and  C_8
REMARK    7  A    between atoms: C_11  and  N_12
REMARK    8  A    between atoms: N_12  and  C_13
REMARK    9  A    between atoms: N_12  and  C_14
REMARK                            x       y       z     vdW  Elec       q    Type
REMARK                         _______ _______ _______ _____ _____    ______ ____
ROOT
ATOM      1  C   UNL     1       2.651   6.754  19.611  0.00  0.00    +0.000 A 
ATOM      2  C   UNL     1       2.688   7.327  18.338  0.00  0.00    +0.000 A 
ATOM      3  C   UNL     1       1.991   8.514  18.072  0.00  0.00    +0.000 A 
ATOM      4  C   UNL     1       1.258   9.174  19.072  0.00  0.00    +0.000 A 
ATOM      5  C   UNL     1       1.196   8.545  20.327  0.00  0.00    +0.000 A 
ATOM      6  C   UNL     1       1.858   7.340  20.587  0.00  0.00    +0.000 A 
ENDROOT
BRANCH   4   7
ATOM      7  N   UNL     1       0.624  10.415  18.814  0.00  0.00    +0.000 N 
ATOM      8  C   UNL     1       1.526  11.559  18.590  0.00  0.00    +0.000 C 
BRANCH   7   9
ATOM      9  C   UNL     1      -0.751  10.662  18.503  0.00  0.00    +0.000 A 
ATOM     10  C   UNL     1      -1.345   9.981  17.413  0.00  0.00    +0.000 A 
ATOM     11  C   UNL     1      -2.691  10.138  17.062  0.00  0.00    +0.000 A 
ATOM     12  C   UNL     1      -3.485  11.021  17.771  0.00  0.00    +0.000 A 
ATOM     13 CL   UNL     1      -5.140  11.218  17.347  0.00  0.00    +0.000 Cl
ATOM     14  C   UNL     1      -2.949  11.732  18.836  0.00  0.00    +0.000 A 
ATOM     15  C   UNL     1      -1.606  11.543  19.216  0.00  0.00    +0.000 A 
ATOM     16 CL   UNL     1      -1.165  12.356  20.685  0.00  0.00    +0.000 Cl
ENDBRANCH   7   9
ENDBRANCH   4   7
BRANCH   1  17
ATOM     17  O   UNL     1       3.435   5.650  19.785  0.00  0.00    +0.000 OA
BRANCH  17  18
ATOM     18  C   UNL     1       2.841   4.356  19.596  0.00  0.00    +0.000 C 
ATOM     19  C   UNL     1       2.251   3.814  20.903  0.00  0.00    +0.000 C 
BRANCH  18  20
ATOM     20  C   UNL     1       3.927   3.386  19.109  0.00  0.00    +0.000 C 
ATOM     21  O   UNL     1       4.894   3.000  19.756  0.00  0.00    +0.000 OA
BRANCH  20  23
ATOM     22  C   UNL     1       2.420   3.482  17.308  0.00  0.00    +0.000 C 
ATOM     23  O   UNL     1       3.673   3.019  17.815  0.00  0.00    +0.000 OA
ENDBRANCH  20  23
ENDBRANCH  18  20
ENDBRANCH  17  18
ENDBRANCH   1  17
TORSDOF 6
ENDMDL
MODEL 6
REMARK VINA RESULT:      -6.6      1.745      2.389
REMARK  Name = 
REMARK  9 active torsions:
REMARK  status: ('A' for Active; 'I' for Inactive)
REMARK    1  A    between atoms: C_1  and  O_2
REMARK    2  A    between atoms: O_2  and  C_3
REMARK    3  A    between atoms: C_3  and  C_5
REMARK    4  A    between atoms: C_5  and  C_6
REMARK    5  A    between atoms: C_5  and  O_7
REMARK    6  A    between atoms: O_7  and  C_8
REMARK    7  A    between atoms: C_11  and  N_12
REMARK    8  A    between atoms: N_12  and  C_13
REMARK    9  A    between atoms: N_12  and  C_14
REMARK                            x       y       z     vdW  Elec       q    Type
REMARK                         _______ _______ _______ _____ _____    ______ ____
ROOT
ATOM      1  C   UNL     1       2.571   6.879  19.133  0.00  0.00    +0.000 A 
ATOM      2  C   UNL     1       1.910   7.422  20.236  0.00  0.00    +0.000 A 
ATOM      3  C   UNL     1       1.275   8.669  20.141  0.00  0.00    +0.000 A 
ATOM      4  C   UNL     1       1.263   9.396  18.940  0.00  0.00    +0.000 A 
ATOM      5  C   UNL     1       1.983   8.849  17.864  0.00  0.00    +0.000 A 
ATOM      6  C   UNL     1       2.651   7.623  17.965  0.00  0.00    +0.000 A 
ENDROOT
BRANCH   4   7
ATOM      7  N   UNL     1       0.551  10.617  18.831  0.00  0.00    +0.000 N 
ATOM      8  C   UNL     1       1.378  11.832  18.728  0.00  0.00    +0.000 C 
BRANCH   7   9
ATOM      9  C   UNL     1      -0.842  10.812  18.565  0.00  0.00    +0.000 A 
ATOM     10  C   UNL     1      -1.454  10.081  17.518  0.00  0.00    +0.000 A 
ATOM     11  C   UNL     1      -2.816  10.186  17.213  0.00  0.00    +0.000 A 
ATOM     12  C   UNL     1      -3.611  11.065  17.927  0.00  0.00    +0.000 A 
ATOM     13 CL   UNL     1      -5.286  11.198  17.560  0.00  0.00    +0.000 Cl
ATOM     14  C   UNL     1      -3.059  11.823  18.950  0.00  0.00    +0.000 A 
ATOM     15  C   UNL     1      -1.698  11.687  19.285  0.00  0.00    +0.000 A 
ATOM     16 CL   UNL     1      -1.230  12.556  20.712  0.00  0.00    +0.000 Cl
ENDBRANCH   7   9
ENDBRANCH   4   7
BRANCH   1  17
ATOM     17  O   UNL     1       3.077   5.623  19.308  0.00  0.00    +0.000 OA
BRANCH  17  18
ATOM     18  C   UNL     1       3.837   5.039  18.238  0.00  0.00    +0.000 C 
ATOM     19  C   UNL     1       3.359   3.618  17.922  0.00  0.00    +0.000 C 
BRANCH  18  20
ATOM     20  C   UNL     1       5.311   4.979  18.661  0.00  0.00    +0.000 C 
ATOM     21  O   UNL     1       5.842   4.077  19.301  0.00  0.00    +0.000 OA
BRANCH  20  23
ATOM     22  C   UNL     1       6.390   6.055  16.872  0.00  0.00    +0.000 C 
ATOM     23  O   UNL     1       5.962   6.104  18.235  0.00  0.00    +0.000 OA
ENDBRANCH  20  23
ENDBRANCH  18  20
ENDBRANCH  17  18
ENDBRANCH   1  17
TORSDOF 6
ENDMDL
MODEL 7
REMARK VINA RESULT:      -6.6      1.263      1.481
REMARK  Name = 
REMARK  9 active torsions:
REMARK  status: ('A' for Active; 'I' for Inactive)
REMARK    1  A    between atoms: C_1  and  O_2
REMARK    2  A    between atoms: O_2  and  C_3
REMARK    3  A    between atoms: C_3  and  C_5
REMARK    4  A    between atoms: C_5  and  C_6
REMARK    5  A    between atoms: C_5  and  O_7
REMARK    6  A    between atoms: O_7  and  C_8
REMARK    7  A    between atoms: C_11  and  N_12
REMARK    8  A    between atoms: N_12  and  C_13
REMARK    9  A    between atoms: N_12  and  C_14
REMARK                            x       y       z     vdW  Elec       q    Type
REMARK                         _______ _______ _______ _____ _____    ______ ____
ROOT
ATOM      1  C   UNL     1       2.706   6.704  19.069  0.00  0.00    +0.000 A 
ATOM      2  C   UNL     1       1.954   7.180  20.144  0.00  0.00    +0.000 A 
ATOM      3  C   UNL     1       1.333   8.435  20.077  0.00  0.00    +0.000 A 
ATOM      4  C   UNL     1       1.424   9.239  18.929  0.00  0.00    +0.000 A 
ATOM      5  C   UNL     1       2.232   8.756  17.885  0.00  0.00    +0.000 A 
ATOM      6  C   UNL     1       2.887   7.521  17.962  0.00  0.00    +0.000 A 
ENDROOT
BRANCH   4   7
ATOM      7  N   UNL     1       0.727  10.469  18.841  0.00  0.00    +0.000 N 
ATOM      8  C   UNL     1       1.568  11.677  18.777  0.00  0.00    +0.000 C 
BRANCH   7   9
ATOM      9  C   UNL     1      -0.660  10.686  18.562  0.00  0.00    +0.000 A 
ATOM     10  C   UNL     1      -1.261  10.004  17.476  0.00  0.00    +0.000 A 
ATOM     11  C   UNL     1      -2.617  10.132  17.156  0.00  0.00    +0.000 A 
ATOM     12  C   UNL     1      -3.417  10.986  17.894  0.00  0.00    +0.000 A 
ATOM     13 CL   UNL     1      -5.085  11.147  17.507  0.00  0.00    +0.000 Cl
ATOM     14  C   UNL     1      -2.876  11.696  18.956  0.00  0.00    +0.000 A 
ATOM     15  C   UNL     1      -1.521  11.535  19.306  0.00  0.00    +0.000 A 
ATOM     16 CL   UNL     1      -1.069  12.341  20.775  0.00  0.00    +0.000 Cl
ENDBRANCH   7   9
ENDBRANCH   4   7
BRANCH   1  17
ATOM     17  O   UNL     1       3.193   5.435  19.203  0.00  0.00    +0.000 OA
BRANCH  17  18
ATOM     18  C   UNL     1       3.109   4.550  18.075  0.00  0.00    +0.000 C 
ATOM     19  C   UNL     1       1.653   4.302  17.665  0.00  0.00    +0.000 C 
BRANCH  18  20
ATOM     20  C   UNL     1       3.747   3.208  18.458  0.00  0.00    +0.000 C 
ATOM     21  O   UNL     1       3.631   2.151  17.846  0.00  0.00    +0.000 OA
BRANCH  20  23
ATOM     22  C   UNL     1       4.571   2.154  20.391  0.00  0.00    +0.000 C 
ATOM     23  O   UNL     1       4.464   3.350  19.615  0.00  0.00    +0.000 OA
ENDBRANCH  20  23
ENDBRANCH  18  20
ENDBRANCH  17  18
ENDBRANCH   1  17
TORSDOF 6
ENDMDL
MODEL 8
REMARK VINA RESULT:      -6.6      4.666      7.998
REMARK  Name = 
REMARK  9 active torsions:
REMARK  status: ('A' for Active; 'I' for Inactive)
REMARK    1  A    between atoms: C_1  and  O_2
REMARK    2  A    between atoms: O_2  and  C_3
REMARK    3  A    between atoms: C_3  and  C_5
REMARK    4  A    between atoms: C_5  and  C_6
REMARK    5  A    between atoms: C_5  and  O_7
REMARK    6  A    between atoms: O_7  and  C_8
REMARK    7  A    between atoms: C_11  and  N_12
REMARK    8  A    between atoms: N_12  and  C_13
REMARK    9  A    between atoms: N_12  and  C_14
REMARK                            x       y       z     vdW  Elec       q    Type
REMARK                         _______ _______ _______ _____ _____    ______ ____
ROOT
ATOM      1  C   UNL     1       0.877   9.779  19.671  0.00  0.00    +0.000 A 
ATOM      2  C   UNL     1       0.869   8.969  20.808  0.00  0.00    +0.000 A 
ATOM      3  C   UNL     1       1.499   7.716  20.793  0.00  0.00    +0.000 A 
ATOM      4  C   UNL     1       2.171   7.247  19.653  0.00  0.00    +0.000 A 
ATOM      5  C   UNL     1       2.115   8.060  18.508  0.00  0.00    +0.000 A 
ATOM      6  C   UNL     1       1.456   9.295  18.506  0.00  0.00    +0.000 A 
ENDROOT
BRANCH   4   7
ATOM      7  N   UNL     1       2.872   6.015  19.673  0.00  0.00    +0.000 N 
ATOM      8  C   UNL     1       2.499   5.085  20.754  0.00  0.00    +0.000 C 
BRANCH   7   9
ATOM      9  C   UNL     1       3.710   5.453  18.658  0.00  0.00    +0.000 A 
ATOM     10  C   UNL     1       5.101   5.716  18.688  0.00  0.00    +0.000 A 
ATOM     11  C   UNL     1       5.995   5.178  17.756  0.00  0.00    +0.000 A 
ATOM     12  C   UNL     1       5.518   4.383  16.728  0.00  0.00    +0.000 A 
ATOM     13 CL   UNL     1       6.611   3.717  15.580  0.00  0.00    +0.000 Cl
ATOM     14  C   UNL     1       4.160   4.110  16.639  0.00  0.00    +0.000 A 
ATOM     15  C   UNL     1       3.265   4.617  17.601  0.00  0.00    +0.000 A 
ATOM     16 CL   UNL     1       1.646   4.012  17.448  0.00  0.00    +0.000 Cl
ENDBRANCH   7   9
ENDBRANCH   4   7
BRANCH   1  17
ATOM     17  O   UNL     1       0.314  11.014  19.821  0.00  0.00    +0.000 OA
BRANCH  17  18
ATOM     18  C   UNL     1      -0.369  11.593  18.698  0.00  0.00    +0.000 C 
ATOM     19  C   UNL     1      -0.093  13.096  18.589  0.00  0.00    +0.000 C 
BRANCH  18  20
ATOM     20  C   UNL     1      -1.878  11.382  18.882  0.00  0.00    +0.000 C 
ATOM     21  O   UNL     1      -2.653  12.155  19.436  0.00  0.00    +0.000 OA
BRANCH  20  23
ATOM     22  C   UNL     1      -1.993  10.049  16.950  0.00  0.00    +0.000 C 
ATOM     23  O   UNL     1      -2.245  10.176  18.351  0.00  0.00    +0.000 OA
ENDBRANCH  20  23
ENDBRANCH  18  20
ENDBRANCH  17  18
ENDBRANCH   1  17
TORSDOF 6
ENDMDL
MODEL 9
REMARK VINA RESULT:      -6.6      4.922      8.146
REMARK  Name = 
REMARK  9 active torsions:
REMARK  status: ('A' for Active; 'I' for Inactive)
REMARK    1  A    between atoms: C_1  and  O_2
REMARK    2  A    between atoms: O_2  and  C_3
REMARK    3  A    between atoms: C_3  and  C_5
REMARK    4  A    between atoms: C_5  and  C_6
REMARK    5  A    between atoms: C_5  and  O_7
REMARK    6  A    between atoms: O_7  and  C_8
REMARK    7  A    between atoms: C_11  and  N_12
REMARK    8  A    between atoms: N_12  and  C_13
REMARK    9  A    between atoms: N_12  and  C_14
REMARK                            x       y       z     vdW  Elec       q    Type
REMARK                         _______ _______ _______ _____ _____    ______ ____
ROOT
ATOM      1  C   UNL     1       1.566   6.730  20.556  0.00  0.00    +0.000 A 
ATOM      2  C   UNL     1       2.465   7.196  19.595  0.00  0.00    +0.000 A 
ATOM      3  C   UNL     1       3.429   6.338  19.047  0.00  0.00    +0.000 A 
ATOM      4  C   UNL     1       3.509   4.988  19.425  0.00  0.00    +0.000 A 
ATOM      5  C   UNL     1       2.626   4.562  20.433  0.00  0.00    +0.000 A 
ATOM      6  C   UNL     1       1.687   5.425  21.011  0.00  0.00    +0.000 A 
ENDROOT
BRANCH   4   7
ATOM      7  N   UNL     1       4.433   4.109  18.808  0.00  0.00    +0.000 N 
ATOM      8  C   UNL     1       4.399   2.713  19.278  0.00  0.00    +0.000 C 
BRANCH   7   9
ATOM      9  C   UNL     1       5.220   4.329  17.633  0.00  0.00    +0.000 A 
ATOM     10  C   UNL     1       4.672   4.011  16.366  0.00  0.00    +0.000 A 
ATOM     11  C   UNL     1       5.359   4.228  15.166  0.00  0.00    +0.000 A 
ATOM     12  C   UNL     1       6.645   4.737  15.195  0.00  0.00    +0.000 A 
ATOM     13 CL   UNL     1       7.494   5.007  13.724  0.00  0.00    +0.000 Cl
ATOM     14  C   UNL     1       7.239   5.047  16.411  0.00  0.00    +0.000 A 
ATOM     15  C   UNL     1       6.533   4.869  17.616  0.00  0.00    +0.000 A 
ATOM     16 CL   UNL     1       7.351   5.494  19.014  0.00  0.00    +0.000 Cl
ENDBRANCH   7   9
ENDBRANCH   4   7
BRANCH   1  17
ATOM     17  O   UNL     1       0.613   7.623  20.956  0.00  0.00    +0.000 OA
BRANCH  17  18
ATOM     18  C   UNL     1       1.009   8.985  21.184  0.00  0.00    +0.000 C 
ATOM     19  C   UNL     1       0.924   9.352  22.669  0.00  0.00    +0.000 C 
BRANCH  18  20
ATOM     20  C   UNL     1       0.066   9.905  20.396  0.00  0.00    +0.000 C 
ATOM     21  O   UNL     1      -0.838  10.587  20.867  0.00  0.00    +0.000 OA
BRANCH  20  23
ATOM     22  C   UNL     1       1.314  10.820  18.627  0.00  0.00    +0.000 C 
ATOM     23  O   UNL     1       0.366   9.843  19.063  0.00  0.00    +0.000 OA
ENDBRANCH  20  23
ENDBRANCH  18  20
ENDBRANCH  17  18
ENDBRANCH   1  17
TORSDOF 6
ENDMDL
