MODEL 1
REMARK VINA RESULT:      -6.8      0.000      0.000
REMARK  Name = 
REMARK  2 active torsions:
REMARK  status: ('A' for Active; 'I' for Inactive)
REMARK    1  A    between atoms: C_8  and  O_9
REMARK    2  A    between atoms: O_9  and  C_10
REMARK                            x       y       z     vdW  Elec       q    Type
REMARK                         _______ _______ _______ _____ _____    ______ ____
ROOT
ATOM      1 BR   UNL     1      -3.062  10.203  15.341  0.00  0.00    +0.000 Br
ATOM      2  C   UNL     1      -3.043  11.006  17.051  0.00  0.00    +0.000 A 
ATOM      3  C   UNL     1      -4.224  11.510  17.588  0.00  0.00    +0.000 A 
ATOM      4  C   UNL     1      -4.195  12.148  18.828  0.00  0.00    +0.000 A 
ATOM      5  C   UNL     1      -2.986  12.304  19.517  0.00  0.00    +0.000 A 
ATOM      6  C   UNL     1      -1.785  11.814  18.972  0.00  0.00    +0.000 A 
ATOM      7  C   UNL     1      -1.836  11.125  17.747  0.00  0.00    +0.000 A 
ATOM      8  C   UNL     1      -0.485  12.042  19.728  0.00  0.00    +0.000 C 
ATOM      9  C   UNL     1      -0.327  11.081  20.919  0.00  0.00    +0.000 A 
ATOM     10  C   UNL     1       0.755  10.171  20.928  0.00  0.00    +0.000 A 
ATOM     11  C   UNL     1       1.076   9.420  22.060  0.00  0.00    +0.000 A 
ATOM     12  C   UNL     1       0.323   9.559  23.214  0.00  0.00    +0.000 A 
ATOM     13  C   UNL     1      -0.799  10.382  23.204  0.00  0.00    +0.000 A 
ATOM     14  C   UNL     1      -1.172  11.130  22.059  0.00  0.00    +0.000 A 
ATOM     15  C   UNL     1      -2.545  11.777  22.154  0.00  0.00    +0.000 C 
ATOM     16  S   UNL     1      -3.003  13.156  21.085  0.00  0.00    +0.000 S 
ENDROOT
BRANCH   8  17
ATOM     17  O   UNL     1       0.702  12.037  18.907  0.00  0.00    +0.000 OA
BRANCH  17  18
ATOM     18  C   UNL     1       1.223  13.305  18.489  0.00  0.00    +0.000 C 
ATOM     19  C   UNL     1       2.766  13.180  18.317  0.00  0.00    +0.000 C 
ATOM     20  N   UNL     1       3.519  14.169  19.134  0.00  0.00    +0.000 NA
ATOM     21  C   UNL     1       3.133  15.537  18.723  0.00  0.00    +0.000 C 
ATOM     22  C   UNL     1       1.608  15.730  18.744  0.00  0.00    +0.000 C 
ATOM     23  C   UNL     1       0.954  14.510  19.423  0.00  0.00    +0.000 C 
ATOM     24  C   UNL     1       1.655  14.313  20.778  0.00  0.00    +0.000 C 
ATOM     25  C   UNL     1       3.135  13.973  20.548  0.00  0.00    +0.000 C 
ENDBRANCH  17  18
ENDBRANCH   8  17
TORSDOF 2
ENDMDL
MODEL 2
REMARK VINA RESULT:      -6.4      1.296      1.639
REMARK  Name = 
REMARK  2 active torsions:
REMARK  status: ('A' for Active; 'I' for Inactive)
REMARK    1  A    between atoms: C_8  and  O_9
REMARK    2  A    between atoms: O_9  and  C_10
REMARK                            x       y       z     vdW  Elec       q    Type
REMARK                         _______ _______ _______ _____ _____    ______ ____
ROOT
ATOM      1 BR   UNL     1      -5.550  11.913  17.509  0.00  0.00    +0.000 Br
ATOM      2  C   UNL     1      -4.543  12.158  19.089  0.00  0.00    +0.000 A 
ATOM      3  C   UNL     1      -5.184  12.549  20.261  0.00  0.00    +0.000 A 
ATOM      4  C   UNL     1      -4.429  12.778  21.410  0.00  0.00    +0.000 A 
ATOM      5  C   UNL     1      -3.036  12.643  21.382  0.00  0.00    +0.000 A 
ATOM      6  C   UNL     1      -2.378  12.267  20.197  0.00  0.00    +0.000 A 
ATOM      7  C   UNL     1      -3.155  11.986  19.059  0.00  0.00    +0.000 A 
ATOM      8  C   UNL     1      -0.860  12.175  20.194  0.00  0.00    +0.000 C 
ATOM      9  C   UNL     1      -0.353  10.891  20.872  0.00  0.00    +0.000 A 
ATOM     10  C   UNL     1       0.383   9.956  20.109  0.00  0.00    +0.000 A 
ATOM     11  C   UNL     1       1.044   8.879  20.702  0.00  0.00    +0.000 A 
ATOM     12  C   UNL     1       0.988   8.709  22.076  0.00  0.00    +0.000 A 
ATOM     13  C   UNL     1       0.200   9.565  22.839  0.00  0.00    +0.000 A 
ATOM     14  C   UNL     1      -0.513  10.645  22.262  0.00  0.00    +0.000 A 
ATOM     15  C   UNL     1      -1.501  11.317  23.202  0.00  0.00    +0.000 C 
ATOM     16  S   UNL     1      -2.118  12.981  22.875  0.00  0.00    +0.000 S 
ENDROOT
BRANCH   8  17
ATOM     17  O   UNL     1      -0.247  12.345  18.898  0.00  0.00    +0.000 OA
BRANCH  17  18
ATOM     18  C   UNL     1       0.413  13.591  18.636  0.00  0.00    +0.000 C 
ATOM     19  C   UNL     1       1.878  13.298  18.198  0.00  0.00    +0.000 C 
ATOM     20  N   UNL     1       2.884  13.993  19.046  0.00  0.00    +0.000 NA
ATOM     21  C   UNL     1       2.673  15.454  18.956  0.00  0.00    +0.000 C 
ATOM     22  C   UNL     1       1.215  15.840  19.258  0.00  0.00    +0.000 C 
ATOM     23  C   UNL     1       0.469  14.607  19.803  0.00  0.00    +0.000 C 
ATOM     24  C   UNL     1       1.303  14.049  20.969  0.00  0.00    +0.000 C 
ATOM     25  C   UNL     1       2.664  13.568  20.446  0.00  0.00    +0.000 C 
ENDBRANCH  17  18
ENDBRANCH   8  17
TORSDOF 2
ENDMDL
MODEL 3
REMARK VINA RESULT:      -6.3      2.627      5.703
REMARK  Name = 
REMARK  2 active torsions:
REMARK  status: ('A' for Active; 'I' for Inactive)
REMARK    1  A    between atoms: C_8  and  O_9
REMARK    2  A    between atoms: O_9  and  C_10
REMARK                            x       y       z     vdW  Elec       q    Type
REMARK                         _______ _______ _______ _____ _____    ______ ____
ROOT
ATOM      1 BR   UNL     1       1.833   7.360  20.524  0.00  0.00    +0.000 Br
ATOM      2  C   UNL     1       0.822   8.840  21.121  0.00  0.00    +0.000 A 
ATOM      3  C   UNL     1       0.373   8.881  22.438  0.00  0.00    +0.000 A 
ATOM      4  C   UNL     1      -0.416   9.951  22.860  0.00  0.00    +0.000 A 
ATOM      5  C   UNL     1      -0.777  10.962  21.962  0.00  0.00    +0.000 A 
ATOM      6  C   UNL     1      -0.344  10.919  20.624  0.00  0.00    +0.000 A 
ATOM      7  C   UNL     1       0.496   9.864  20.226  0.00  0.00    +0.000 A 
ATOM      8  C   UNL     1      -0.794  12.012  19.668  0.00  0.00    +0.000 C 
ATOM      9  C   UNL     1      -0.011  13.321  19.869  0.00  0.00    +0.000 A 
ATOM     10  C   UNL     1       0.778  13.820  18.808  0.00  0.00    +0.000 A 
ATOM     11  C   UNL     1       1.344  15.096  18.848  0.00  0.00    +0.000 A 
ATOM     12  C   UNL     1       1.135  15.907  19.951  0.00  0.00    +0.000 A 
ATOM     13  C   UNL     1       0.434  15.407  21.045  0.00  0.00    +0.000 A 
ATOM     14  C   UNL     1      -0.121  14.104  21.049  0.00  0.00    +0.000 A 
ATOM     15  C   UNL     1      -0.636  13.647  22.406  0.00  0.00    +0.000 C 
ATOM     16  S   UNL     1      -1.816  12.290  22.548  0.00  0.00    +0.000 S 
ENDROOT
BRANCH   8  17
ATOM     17  O   UNL     1      -0.802  11.631  18.275  0.00  0.00    +0.000 OA
BRANCH  17  18
ATOM     18  C   UNL     1      -2.000  11.881  17.528  0.00  0.00    +0.000 C 
ATOM     19  C   UNL     1      -3.217  11.812  18.496  0.00  0.00    +0.000 C 
ATOM     20  N   UNL     1      -4.243  10.825  18.063  0.00  0.00    +0.000 NA
ATOM     21  C   UNL     1      -4.754  11.206  16.728  0.00  0.00    +0.000 C 
ATOM     22  C   UNL     1      -3.613  11.417  15.719  0.00  0.00    +0.000 C 
ATOM     23  C   UNL     1      -2.292  10.929  16.343  0.00  0.00    +0.000 C 
ATOM     24  C   UNL     1      -2.528   9.494  16.845  0.00  0.00    +0.000 C 
ATOM     25  C   UNL     1      -3.585   9.505  17.959  0.00  0.00    +0.000 C 
ENDBRANCH  17  18
ENDBRANCH   8  17
TORSDOF 2
ENDMDL
MODEL 4
REMARK VINA RESULT:      -6.3      2.840      5.901
REMARK  Name = 
REMARK  2 active torsions:
REMARK  status: ('A' for Active; 'I' for Inactive)
REMARK    1  A    between atoms: C_8  and  O_9
REMARK    2  A    between atoms: O_9  and  C_10
REMARK                            x       y       z     vdW  Elec       q    Type
REMARK                         _______ _______ _______ _____ _____    ______ ____
ROOT
ATOM      1 BR   UNL     1      -2.431  10.243  17.836  0.00  0.00    +0.000 Br
ATOM      2  C   UNL     1      -0.972  11.266  18.466  0.00  0.00    +0.000 A 
ATOM      3  C   UNL     1       0.277  10.669  18.607  0.00  0.00    +0.000 A 
ATOM      4  C   UNL     1       1.338  11.415  19.121  0.00  0.00    +0.000 A 
ATOM      5  C   UNL     1       1.144  12.743  19.517  0.00  0.00    +0.000 A 
ATOM      6  C   UNL     1      -0.121  13.348  19.396  0.00  0.00    +0.000 A 
ATOM      7  C   UNL     1      -1.168  12.603  18.826  0.00  0.00    +0.000 A 
ATOM      8  C   UNL     1      -0.303  14.778  19.880  0.00  0.00    +0.000 C 
ATOM      9  C   UNL     1       0.272  15.806  18.890  0.00  0.00    +0.000 A 
ATOM     10  C   UNL     1      -0.599  16.741  18.287  0.00  0.00    +0.000 A 
ATOM     11  C   UNL     1      -0.119  17.823  17.546  0.00  0.00    +0.000 A 
ATOM     12  C   UNL     1       1.246  17.998  17.389  0.00  0.00    +0.000 A 
ATOM     13  C   UNL     1       2.121  17.044  17.899  0.00  0.00    +0.000 A 
ATOM     14  C   UNL     1       1.663  15.916  18.624  0.00  0.00    +0.000 A 
ATOM     15  C   UNL     1       2.732  14.868  18.892  0.00  0.00    +0.000 C 
ATOM     16  S   UNL     1       2.529  13.640  20.198  0.00  0.00    +0.000 S 
ENDROOT
BRANCH   8  17
ATOM     17  O   UNL     1      -1.656  15.125  20.247  0.00  0.00    +0.000 OA
BRANCH  17  18
ATOM     18  C   UNL     1      -1.910  15.434  21.623  0.00  0.00    +0.000 C 
ATOM     19  C   UNL     1      -0.594  15.233  22.432  0.00  0.00    +0.000 C 
ATOM     20  N   UNL     1      -0.754  14.282  23.565  0.00  0.00    +0.000 NA
ATOM     21  C   UNL     1      -1.778  14.800  24.498  0.00  0.00    +0.000 C 
ATOM     22  C   UNL     1      -3.089  15.145  23.772  0.00  0.00    +0.000 C 
ATOM     23  C   UNL     1      -3.020  14.615  22.327  0.00  0.00    +0.000 C 
ATOM     24  C   UNL     1      -2.631  13.129  22.405  0.00  0.00    +0.000 C 
ATOM     25  C   UNL     1      -1.226  12.994  23.011  0.00  0.00    +0.000 C 
ENDBRANCH  17  18
ENDBRANCH   8  17
TORSDOF 2
ENDMDL
MODEL 5
REMARK VINA RESULT:      -6.3      7.921      9.706
REMARK  Name = 
REMARK  2 active torsions:
REMARK  status: ('A' for Active; 'I' for Inactive)
REMARK    1  A    between atoms: C_8  and  O_9
REMARK    2  A    between atoms: O_9  and  C_10
REMARK                            x       y       z     vdW  Elec       q    Type
REMARK                         _______ _______ _______ _____ _____    ______ ____
ROOT
ATOM      1 BR   UNL     1       3.870  15.908  18.793  0.00  0.00    +0.000 Br
ATOM      2  C   UNL     1       5.252  16.220  20.042  0.00  0.00    +0.000 A 
ATOM      3  C   UNL     1       5.364  17.468  20.648  0.00  0.00    +0.000 A 
ATOM      4  C   UNL     1       6.416  17.709  21.531  0.00  0.00    +0.000 A 
ATOM      5  C   UNL     1       7.369  16.716  21.786  0.00  0.00    +0.000 A 
ATOM      6  C   UNL     1       7.274  15.457  21.163  0.00  0.00    +0.000 A 
ATOM      7  C   UNL     1       6.179  15.209  20.317  0.00  0.00    +0.000 A 
ATOM      8  C   UNL     1       8.353  14.420  21.430  0.00  0.00    +0.000 C 
ATOM      9  C   UNL     1       8.184  13.743  22.801  0.00  0.00    +0.000 A 
ATOM     10  C   UNL     1       7.948  12.350  22.855  0.00  0.00    +0.000 A 
ATOM     11  C   UNL     1       7.989  11.642  24.058  0.00  0.00    +0.000 A 
ATOM     12  C   UNL     1       8.269  12.309  25.240  0.00  0.00    +0.000 A 
ATOM     13  C   UNL     1       8.420  13.693  25.225  0.00  0.00    +0.000 A 
ATOM     14  C   UNL     1       8.346  14.444  24.026  0.00  0.00    +0.000 A 
ATOM     15  C   UNL     1       8.293  15.950  24.233  0.00  0.00    +0.000 C 
ATOM     16  S   UNL     1       8.713  17.090  22.900  0.00  0.00    +0.000 S 
ENDROOT
BRANCH   8  17
ATOM     17  O   UNL     1       8.514  13.432  20.390  0.00  0.00    +0.000 OA
BRANCH  17  18
ATOM     18  C   UNL     1       9.841  13.191  19.905  0.00  0.00    +0.000 C 
ATOM     19  C   UNL     1       9.830  13.286  18.350  0.00  0.00    +0.000 C 
ATOM     20  N   UNL     1      10.352  12.056  17.694  0.00  0.00    +0.000 NA
ATOM     21  C   UNL     1      11.751  11.831  18.119  0.00  0.00    +0.000 C 
ATOM     22  C   UNL     1      11.890  11.839  19.650  0.00  0.00    +0.000 C 
ATOM     23  C   UNL     1      10.485  11.836  20.285  0.00  0.00    +0.000 C 
ATOM     24  C   UNL     1       9.705  10.669  19.658  0.00  0.00    +0.000 C 
ATOM     25  C   UNL     1       9.528  10.916  18.152  0.00  0.00    +0.000 C 
ENDBRANCH  17  18
ENDBRANCH   8  17
TORSDOF 2
ENDMDL
MODEL 6
REMARK VINA RESULT:      -6.1      2.783      5.467
REMARK  Name = 
REMARK  2 active torsions:
REMARK  status: ('A' for Active; 'I' for Inactive)
REMARK    1  A    between atoms: C_8  and  O_9
REMARK    2  A    between atoms: O_9  and  C_10
REMARK                            x       y       z     vdW  Elec       q    Type
REMARK                         _______ _______ _______ _____ _____    ______ ____
ROOT
ATOM      1 BR   UNL     1      -4.579  10.965  16.689  0.00  0.00    +0.000 Br
ATOM      2  C   UNL     1      -2.855  11.033  17.459  0.00  0.00    +0.000 A 
ATOM      3  C   UNL     1      -1.973   9.974  17.267  0.00  0.00    +0.000 A 
ATOM      4  C   UNL     1      -0.721  10.006  17.880  0.00  0.00    +0.000 A 
ATOM      5  C   UNL     1      -0.362  11.080  18.702  0.00  0.00    +0.000 A 
ATOM      6  C   UNL     1      -1.255  12.146  18.917  0.00  0.00    +0.000 A 
ATOM      7  C   UNL     1      -2.493  12.128  18.251  0.00  0.00    +0.000 A 
ATOM      8  C   UNL     1      -0.846  13.272  19.853  0.00  0.00    +0.000 C 
ATOM      9  C   UNL     1       0.144  14.248  19.194  0.00  0.00    +0.000 A 
ATOM     10  C   UNL     1      -0.234  15.599  19.021  0.00  0.00    +0.000 A 
ATOM     11  C   UNL     1       0.682  16.575  18.623  0.00  0.00    +0.000 A 
ATOM     12  C   UNL     1       2.002  16.225  18.388  0.00  0.00    +0.000 A 
ATOM     13  C   UNL     1       2.380  14.888  18.468  0.00  0.00    +0.000 A 
ATOM     14  C   UNL     1       1.465  13.869  18.833  0.00  0.00    +0.000 A 
ATOM     15  C   UNL     1       1.990  12.456  18.634  0.00  0.00    +0.000 C 
ATOM     16  S   UNL     1       1.242  11.053  19.487  0.00  0.00    +0.000 S 
ENDROOT
BRANCH   8  17
ATOM     17  O   UNL     1      -1.946  13.990  20.453  0.00  0.00    +0.000 OA
BRANCH  17  18
ATOM     18  C   UNL     1      -2.704  13.314  21.464  0.00  0.00    +0.000 C 
ATOM     19  C   UNL     1      -3.770  14.298  22.032  0.00  0.00    +0.000 C 
ATOM     20  N   UNL     1      -3.673  14.465  23.507  0.00  0.00    +0.000 NA
ATOM     21  C   UNL     1      -3.880  13.155  24.162  0.00  0.00    +0.000 C 
ATOM     22  C   UNL     1      -2.950  12.075  23.585  0.00  0.00    +0.000 C 
ATOM     23  C   UNL     1      -1.910  12.744  22.665  0.00  0.00    +0.000 C 
ATOM     24  C   UNL     1      -1.253  13.879  23.469  0.00  0.00    +0.000 C 
ATOM     25  C   UNL     1      -2.307  14.940  23.819  0.00  0.00    +0.000 C 
ENDBRANCH  17  18
ENDBRANCH   8  17
TORSDOF 2
ENDMDL
MODEL 7
REMARK VINA RESULT:      -6.1      0.816      1.212
REMARK  Name = 
REMARK  2 active torsions:
REMARK  status: ('A' for Active; 'I' for Inactive)
REMARK    1  A    between atoms: C_8  and  O_9
REMARK    2  A    between atoms: O_9  and  C_10
REMARK                            x       y       z     vdW  Elec       q    Type
REMARK                         _______ _______ _______ _____ _____    ______ ____
ROOT
ATOM      1 BR   UNL     1      -3.038  10.054  15.526  0.00  0.00    +0.000 Br
ATOM      2  C   UNL     1      -2.905  10.911  17.205  0.00  0.00    +0.000 A 
ATOM      3  C   UNL     1      -4.013  11.568  17.732  0.00  0.00    +0.000 A 
ATOM      4  C   UNL     1      -3.895  12.242  18.947  0.00  0.00    +0.000 A 
ATOM      5  C   UNL     1      -2.668  12.281  19.620  0.00  0.00    +0.000 A 
ATOM      6  C   UNL     1      -1.538  11.635  19.084  0.00  0.00    +0.000 A 
ATOM      7  C   UNL     1      -1.684  10.914  17.886  0.00  0.00    +0.000 A 
ATOM      8  C   UNL     1      -0.212  11.738  19.821  0.00  0.00    +0.000 C 
ATOM      9  C   UNL     1      -0.152  10.808  21.045  0.00  0.00    +0.000 A 
ATOM     10  C   UNL     1       0.817   9.780  21.080  0.00  0.00    +0.000 A 
ATOM     11  C   UNL     1       1.063   9.037  22.237  0.00  0.00    +0.000 A 
ATOM     12  C   UNL     1       0.345   9.305  23.391  0.00  0.00    +0.000 A 
ATOM     13  C   UNL     1      -0.674  10.253  23.359  0.00  0.00    +0.000 A 
ATOM     14  C   UNL     1      -0.972  10.996  22.190  0.00  0.00    +0.000 A 
ATOM     15  C   UNL     1      -2.259  11.802  22.271  0.00  0.00    +0.000 C 
ATOM     16  S   UNL     1      -2.567  13.185  21.155  0.00  0.00    +0.000 S 
ENDROOT
BRANCH   8  17
ATOM     17  O   UNL     1       0.956  11.565  18.991  0.00  0.00    +0.000 OA
BRANCH  17  18
ATOM     18  C   UNL     1       1.971  12.576  19.056  0.00  0.00    +0.000 C 
ATOM     19  C   UNL     1       2.002  13.160  20.500  0.00  0.00    +0.000 C 
ATOM     20  N   UNL     1       1.817  14.636  20.529  0.00  0.00    +0.000 NA
ATOM     21  C   UNL     1       2.905  15.280  19.761  0.00  0.00    +0.000 C 
ATOM     22  C   UNL     1       3.037  14.687  18.349  0.00  0.00    +0.000 C 
ATOM     23  C   UNL     1       1.832  13.765  18.075  0.00  0.00    +0.000 C 
ATOM     24  C   UNL     1       0.560  14.575  18.380  0.00  0.00    +0.000 C 
ATOM     25  C   UNL     1       0.528  14.942  19.871  0.00  0.00    +0.000 C 
ENDBRANCH  17  18
ENDBRANCH   8  17
TORSDOF 2
ENDMDL
MODEL 8
REMARK VINA RESULT:      -6.1      3.203      5.872
REMARK  Name = 
REMARK  2 active torsions:
REMARK  status: ('A' for Active; 'I' for Inactive)
REMARK    1  A    between atoms: C_8  and  O_9
REMARK    2  A    between atoms: O_9  and  C_10
REMARK                            x       y       z     vdW  Elec       q    Type
REMARK                         _______ _______ _______ _____ _____    ______ ____
ROOT
ATOM      1 BR   UNL     1      -3.803  10.833  16.034  0.00  0.00    +0.000 Br
ATOM      2  C   UNL     1      -2.466  10.894  17.367  0.00  0.00    +0.000 A 
ATOM      3  C   UNL     1      -1.409   9.990  17.324  0.00  0.00    +0.000 A 
ATOM      4  C   UNL     1      -0.452  10.005  18.339  0.00  0.00    +0.000 A 
ATOM      5  C   UNL     1      -0.566  10.903  19.406  0.00  0.00    +0.000 A 
ATOM      6  C   UNL     1      -1.643  11.808  19.468  0.00  0.00    +0.000 A 
ATOM      7  C   UNL     1      -2.570  11.819  18.411  0.00  0.00    +0.000 A 
ATOM      8  C   UNL     1      -1.756  12.736  20.667  0.00  0.00    +0.000 C 
ATOM      9  C   UNL     1      -0.779  13.921  20.582  0.00  0.00    +0.000 A 
ATOM     10  C   UNL     1      -1.294  15.235  20.519  0.00  0.00    +0.000 A 
ATOM     11  C   UNL     1      -0.472  16.356  20.648  0.00  0.00    +0.000 A 
ATOM     12  C   UNL     1       0.889  16.192  20.843  0.00  0.00    +0.000 A 
ATOM     13  C   UNL     1       1.434  14.911  20.822  0.00  0.00    +0.000 A 
ATOM     14  C   UNL     1       0.630  13.756  20.657  0.00  0.00    +0.000 A 
ATOM     15  C   UNL     1       1.416  12.475  20.418  0.00  0.00    +0.000 C 
ATOM     16  S   UNL     1       0.669  10.857  20.694  0.00  0.00    +0.000 S 
ENDROOT
BRANCH   8  17
ATOM     17  O   UNL     1      -3.095  13.199  20.948  0.00  0.00    +0.000 OA
BRANCH  17  18
ATOM     18  C   UNL     1      -3.768  12.631  22.079  0.00  0.00    +0.000 C 
ATOM     19  C   UNL     1      -5.304  12.695  21.831  0.00  0.00    +0.000 C 
ATOM     20  N   UNL     1      -6.033  13.411  22.912  0.00  0.00    +0.000 NA
ATOM     21  C   UNL     1      -5.816  12.710  24.196  0.00  0.00    +0.000 C 
ATOM     22  C   UNL     1      -4.321  12.489  24.480  0.00  0.00    +0.000 C 
ATOM     23  C   UNL     1      -3.490  13.284  23.455  0.00  0.00    +0.000 C 
ATOM     24  C   UNL     1      -4.002  14.734  23.480  0.00  0.00    +0.000 C 
ATOM     25  C   UNL     1      -5.465  14.773  23.015  0.00  0.00    +0.000 C 
ENDBRANCH  17  18
ENDBRANCH   8  17
TORSDOF 2
ENDMDL
MODEL 9
REMARK VINA RESULT:      -6.0      7.870      9.688
REMARK  Name = 
REMARK  2 active torsions:
REMARK  status: ('A' for Active; 'I' for Inactive)
REMARK    1  A    between atoms: C_8  and  O_9
REMARK    2  A    between atoms: O_9  and  C_10
REMARK                            x       y       z     vdW  Elec       q    Type
REMARK                         _______ _______ _______ _____ _____    ______ ____
ROOT
ATOM      1 BR   UNL     1       3.979  15.548  17.990  0.00  0.00    +0.000 Br
ATOM      2  C   UNL     1       5.289  15.987  19.278  0.00  0.00    +0.000 A 
ATOM      3  C   UNL     1       5.298  17.258  19.846  0.00  0.00    +0.000 A 
ATOM      4  C   UNL     1       6.298  17.594  20.758  0.00  0.00    +0.000 A 
ATOM      5  C   UNL     1       7.299  16.671  21.083  0.00  0.00    +0.000 A 
ATOM      6  C   UNL     1       7.309  15.391  20.499  0.00  0.00    +0.000 A 
ATOM      7  C   UNL     1       6.265  15.047  19.622  0.00  0.00    +0.000 A 
ATOM      8  C   UNL     1       8.439  14.433  20.842  0.00  0.00    +0.000 C 
ATOM      9  C   UNL     1       8.258  13.790  22.228  0.00  0.00    +0.000 A 
ATOM     10  C   UNL     1       8.107  12.388  22.320  0.00  0.00    +0.000 A 
ATOM     11  C   UNL     1       8.146  11.722  23.547  0.00  0.00    +0.000 A 
ATOM     12  C   UNL     1       8.336  12.442  24.715  0.00  0.00    +0.000 A 
ATOM     13  C   UNL     1       8.400  13.831  24.659  0.00  0.00    +0.000 A 
ATOM     14  C   UNL     1       8.328  14.538  23.433  0.00  0.00    +0.000 A 
ATOM     15  C   UNL     1       8.173  16.044  23.587  0.00  0.00    +0.000 C 
ATOM     16  S   UNL     1       8.572  17.166  22.232  0.00  0.00    +0.000 S 
ENDROOT
BRANCH   8  17
ATOM     17  O   UNL     1       8.702  13.425  19.842  0.00  0.00    +0.000 OA
BRANCH  17  18
ATOM     18  C   UNL     1       9.609  13.763  18.785  0.00  0.00    +0.000 C 
ATOM     19  C   UNL     1       9.688  12.566  17.792  0.00  0.00    +0.000 C 
ATOM     20  N   UNL     1      11.077  12.073  17.591  0.00  0.00    +0.000 NA
ATOM     21  C   UNL     1      11.908  13.167  17.041  0.00  0.00    +0.000 C 
ATOM     22  C   UNL     1      11.806  14.445  17.890  0.00  0.00    +0.000 C 
ATOM     23  C   UNL     1      11.057  14.122  19.198  0.00  0.00    +0.000 C 
ATOM     24  C   UNL     1      11.756  12.910  19.836  0.00  0.00    +0.000 C 
ATOM     25  C   UNL     1      11.616  11.690  18.914  0.00  0.00    +0.000 C 
ENDBRANCH  17  18
ENDBRANCH   8  17
TORSDOF 2
ENDMDL
