MODEL 1
REMARK VINA RESULT:      -8.4      0.000      0.000
REMARK  Name = 
REMARK  10 active torsions:
REMARK  status: ('A' for Active; 'I' for Inactive)
REMARK    1  A    between atoms: C_1  and  C_2
REMARK    2  A    between atoms: C_2  and  C_3
REMARK    3  A    between atoms: C_3  and  C_4
REMARK    4  A    between atoms: N_8  and  C_9
REMARK    5  A    between atoms: C_12  and  O_13
REMARK    6  A    between atoms: O_13  and  C_14
REMARK    7  A    between atoms: C_15  and  C_16
REMARK    8  A    between atoms: C_16  and  N_17
REMARK    9  A    between atoms: N_17  and  C_18
REMARK   10  A    between atoms: C_23  and  C_24
REMARK                            x       y       z     vdW  Elec       q    Type
REMARK                         _______ _______ _______ _____ _____    ______ ____
ROOT
ATOM      1  C   UNL     1       0.863   9.776  20.071  0.00  0.00    +0.000 A 
ATOM      2  C   UNL     1       1.309  10.117  18.804  0.00  0.00    +0.000 A 
ATOM      3  C   UNL     1       2.016   9.192  18.036  0.00  0.00    +0.000 A 
ATOM      4  C   UNL     1       2.274   7.903  18.516  0.00  0.00    +0.000 A 
ATOM      5  C   UNL     1       1.826   7.542  19.800  0.00  0.00    +0.000 A 
ATOM      6  C   UNL     1       1.126   8.494  20.575  0.00  0.00    +0.000 A 
ENDROOT
BRANCH   1  11
ATOM      7  C   UNL     1      -0.508  11.878  20.548  0.00  0.00    +0.000 A 
ATOM      8  N   UNL     1      -0.734  12.551  21.660  0.00  0.00    +0.000 NA
ATOM      9  N   UNL     1      -0.254  11.783  22.682  0.00  0.00    +0.000 NA
ATOM     10  N   UNL     1       0.239  10.645  22.232  0.00  0.00    +0.000 NA
ATOM     11  N   UNL     1       0.202  10.735  20.881  0.00  0.00    +0.000 N 
BRANCH   7  12
ATOM     12  C   UNL     1      -1.064  12.251  19.214  0.00  0.00    +0.000 C 
BRANCH  12  14
ATOM     13  C   UNL     1      -2.139  10.511  17.691  0.00  0.00    +0.000 C 
ATOM     14  C   UNL     1      -2.344  11.504  18.827  0.00  0.00    +0.000 C 
ENDBRANCH  12  14
ENDBRANCH   7  12
ENDBRANCH   1  11
BRANCH   4  15
ATOM     15  O   UNL     1       3.002   6.980  17.812  0.00  0.00    +0.000 OA
ATOM     16  C   UNL     1       4.216   7.461  17.238  0.00  0.00    +0.000 C 
ENDBRANCH   4  15
BRANCH   5  17
ATOM     17  C   UNL     1       2.070   6.163  20.389  0.00  0.00    +0.000 C 
BRANCH  17  18
ATOM     18  N   UNL     1       3.381   5.573  20.094  0.00  0.00    +0.000 NA
ATOM     19  H   UNL     1       3.991   5.775  20.889  0.00  0.00    +0.000 HD
BRANCH  18  20
ATOM     20  C   UNL     1       3.366   4.110  19.870  0.00  0.00    +0.000 C 
ATOM     21  C   UNL     1       2.203   3.624  18.982  0.00  0.00    +0.000 C 
ATOM     22  C   UNL     1       2.215   2.108  18.834  0.00  0.00    +0.000 C 
ATOM     23  C   UNL     1       3.595   1.528  18.532  0.00  0.00    +0.000 C 
ATOM     24  N   UNL     1       4.646   2.055  19.400  0.00  0.00    +0.000 NA
ATOM     25  C   UNL     1       4.741   3.536  19.350  0.00  0.00    +0.000 C 
ATOM     26  H   UNL     1       5.538   1.647  19.131  0.00  0.00    +0.000 HD
BRANCH  25  27
ATOM     27  C   UNL     1       5.319   4.030  18.017  0.00  0.00    +0.000 A 
ATOM     28  C   UNL     1       4.663   3.888  16.787  0.00  0.00    +0.000 A 
ATOM     29  C   UNL     1       5.266   4.277  15.586  0.00  0.00    +0.000 A 
ATOM     30  C   UNL     1       6.527   4.861  15.597  0.00  0.00    +0.000 A 
ATOM     31  C   UNL     1       7.175   5.073  16.807  0.00  0.00    +0.000 A 
ATOM     32  C   UNL     1       6.576   4.666  18.005  0.00  0.00    +0.000 A 
ENDBRANCH  25  27
ENDBRANCH  18  20
ENDBRANCH  17  18
ENDBRANCH   5  17
TORSDOF 8
ENDMDL
MODEL 2
REMARK VINA RESULT:      -8.3      2.600      8.798
REMARK  Name = 
REMARK  10 active torsions:
REMARK  status: ('A' for Active; 'I' for Inactive)
REMARK    1  A    between atoms: C_1  and  C_2
REMARK    2  A    between atoms: C_2  and  C_3
REMARK    3  A    between atoms: C_3  and  C_4
REMARK    4  A    between atoms: N_8  and  C_9
REMARK    5  A    between atoms: C_12  and  O_13
REMARK    6  A    between atoms: O_13  and  C_14
REMARK    7  A    between atoms: C_15  and  C_16
REMARK    8  A    between atoms: C_16  and  N_17
REMARK    9  A    between atoms: N_17  and  C_18
REMARK   10  A    between atoms: C_23  and  C_24
REMARK                            x       y       z     vdW  Elec       q    Type
REMARK                         _______ _______ _______ _____ _____    ______ ____
ROOT
ATOM      1  C   UNL     1       4.426   5.130  17.241  0.00  0.00    +0.000 A 
ATOM      2  C   UNL     1       3.863   3.895  17.521  0.00  0.00    +0.000 A 
ATOM      3  C   UNL     1       2.813   3.792  18.432  0.00  0.00    +0.000 A 
ATOM      4  C   UNL     1       2.295   4.926  19.067  0.00  0.00    +0.000 A 
ATOM      5  C   UNL     1       2.855   6.187  18.792  0.00  0.00    +0.000 A 
ATOM      6  C   UNL     1       3.930   6.276  17.880  0.00  0.00    +0.000 A 
ENDROOT
BRANCH   1  11
ATOM      7  C   UNL     1       6.901   5.248  16.619  0.00  0.00    +0.000 A 
ATOM      8  N   UNL     1       7.515   5.583  15.501  0.00  0.00    +0.000 NA
ATOM      9  N   UNL     1       6.549   5.674  14.540  0.00  0.00    +0.000 NA
ATOM     10  N   UNL     1       5.359   5.381  15.032  0.00  0.00    +0.000 NA
ATOM     11  N   UNL     1       5.538   5.230  16.366  0.00  0.00    +0.000 N 
BRANCH   7  12
ATOM     12  C   UNL     1       7.601   4.835  17.870  0.00  0.00    +0.000 C 
BRANCH  12  14
ATOM     13  C   UNL     1       7.954   7.324  18.300  0.00  0.00    +0.000 C 
ATOM     14  C   UNL     1       7.747   5.946  18.915  0.00  0.00    +0.000 C 
ENDBRANCH  12  14
ENDBRANCH   7  12
ENDBRANCH   1  11
BRANCH   4  15
ATOM     15  O   UNL     1       1.294   4.863  20.001  0.00  0.00    +0.000 OA
ATOM     16  C   UNL     1       0.845   3.551  20.335  0.00  0.00    +0.000 C 
ENDBRANCH   4  15
BRANCH   5  17
ATOM     17  C   UNL     1       2.347   7.463  19.443  0.00  0.00    +0.000 C 
BRANCH  17  18
ATOM     18  N   UNL     1       1.622   8.379  18.555  0.00  0.00    +0.000 NA
ATOM     19  H   UNL     1       0.635   8.118  18.589  0.00  0.00    +0.000 HD
BRANCH  18  20
ATOM     20  C   UNL     1       1.744   9.811  18.908  0.00  0.00    +0.000 C 
ATOM     21  C   UNL     1       2.285  10.694  17.766  0.00  0.00    +0.000 C 
ATOM     22  C   UNL     1       2.435  12.144  18.210  0.00  0.00    +0.000 C 
ATOM     23  C   UNL     1       1.232  12.682  18.979  0.00  0.00    +0.000 C 
ATOM     24  N   UNL     1       0.764  11.778  20.027  0.00  0.00    +0.000 NA
ATOM     25  C   UNL     1       0.422  10.429  19.511  0.00  0.00    +0.000 C 
ATOM     26  H   UNL     1      -0.050  12.185  20.482  0.00  0.00    +0.000 HD
BRANCH  25  27
ATOM     27  C   UNL     1      -0.864  10.442  18.674  0.00  0.00    +0.000 A 
ATOM     28  C   UNL     1      -1.023   9.721  17.483  0.00  0.00    +0.000 A 
ATOM     29  C   UNL     1      -2.182   9.832  16.709  0.00  0.00    +0.000 A 
ATOM     30  C   UNL     1      -3.231  10.636  17.137  0.00  0.00    +0.000 A 
ATOM     31  C   UNL     1      -3.129  11.314  18.346  0.00  0.00    +0.000 A 
ATOM     32  C   UNL     1      -1.959  11.215  19.108  0.00  0.00    +0.000 A 
ENDBRANCH  25  27
ENDBRANCH  18  20
ENDBRANCH  17  18
ENDBRANCH   5  17
TORSDOF 8
ENDMDL
MODEL 3
REMARK VINA RESULT:      -8.2      1.777      3.485
REMARK  Name = 
REMARK  10 active torsions:
REMARK  status: ('A' for Active; 'I' for Inactive)
REMARK    1  A    between atoms: C_1  and  C_2
REMARK    2  A    between atoms: C_2  and  C_3
REMARK    3  A    between atoms: C_3  and  C_4
REMARK    4  A    between atoms: N_8  and  C_9
REMARK    5  A    between atoms: C_12  and  O_13
REMARK    6  A    between atoms: O_13  and  C_14
REMARK    7  A    between atoms: C_15  and  C_16
REMARK    8  A    between atoms: C_16  and  N_17
REMARK    9  A    between atoms: N_17  and  C_18
REMARK   10  A    between atoms: C_23  and  C_24
REMARK                            x       y       z     vdW  Elec       q    Type
REMARK                         _______ _______ _______ _____ _____    ______ ____
ROOT
ATOM      1  C   UNL     1       0.802   9.853  19.335  0.00  0.00    +0.000 A 
ATOM      2  C   UNL     1       0.644   9.239  20.567  0.00  0.00    +0.000 A 
ATOM      3  C   UNL     1       1.283   8.029  20.835  0.00  0.00    +0.000 A 
ATOM      4  C   UNL     1       2.105   7.420  19.881  0.00  0.00    +0.000 A 
ATOM      5  C   UNL     1       2.276   8.032  18.625  0.00  0.00    +0.000 A 
ATOM      6  C   UNL     1       1.610   9.249  18.360  0.00  0.00    +0.000 A 
ENDROOT
BRANCH   1  11
ATOM      7  C   UNL     1      -0.969  11.292  18.188  0.00  0.00    +0.000 A 
ATOM      8  N   UNL     1      -1.112  12.600  18.082  0.00  0.00    +0.000 NA
ATOM      9  N   UNL     1      -0.202  13.159  18.933  0.00  0.00    +0.000 NA
ATOM     10  N   UNL     1       0.481  12.231  19.577  0.00  0.00    +0.000 NA
ATOM     11  N   UNL     1       0.101  11.049  19.034  0.00  0.00    +0.000 N 
BRANCH   7  12
ATOM     12  C   UNL     1      -1.908  10.295  17.594  0.00  0.00    +0.000 C 
BRANCH  12  14
ATOM     13  C   UNL     1      -2.880  10.534  15.249  0.00  0.00    +0.000 C 
ATOM     14  C   UNL     1      -3.010  10.902  16.721  0.00  0.00    +0.000 C 
ENDBRANCH  12  14
ENDBRANCH   7  12
ENDBRANCH   1  11
BRANCH   4  15
ATOM     15  O   UNL     1       2.714   6.210  20.088  0.00  0.00    +0.000 OA
ATOM     16  C   UNL     1       1.881   5.184  20.623  0.00  0.00    +0.000 C 
ENDBRANCH   4  15
BRANCH   5  17
ATOM     17  C   UNL     1       3.152   7.430  17.539  0.00  0.00    +0.000 C 
BRANCH  17  18
ATOM     18  N   UNL     1       4.504   7.044  17.960  0.00  0.00    +0.000 NA
ATOM     19  H   UNL     1       4.412   6.512  18.827  0.00  0.00    +0.000 HD
BRANCH  18  20
ATOM     20  C   UNL     1       5.248   6.225  16.979  0.00  0.00    +0.000 C 
ATOM     21  C   UNL     1       6.631   5.756  17.475  0.00  0.00    +0.000 C 
ATOM     22  C   UNL     1       7.366   4.962  16.402  0.00  0.00    +0.000 C 
ATOM     23  C   UNL     1       6.499   3.918  15.705  0.00  0.00    +0.000 C 
ATOM     24  N   UNL     1       5.197   4.432  15.286  0.00  0.00    +0.000 NA
ATOM     25  C   UNL     1       4.419   5.008  16.412  0.00  0.00    +0.000 C 
ATOM     26  H   UNL     1       4.664   3.683  14.852  0.00  0.00    +0.000 HD
BRANCH  25  27
ATOM     27  C   UNL     1       3.904   3.923  17.368  0.00  0.00    +0.000 A 
ATOM     28  C   UNL     1       2.713   3.213  17.168  0.00  0.00    +0.000 A 
ATOM     29  C   UNL     1       2.241   2.295  18.111  0.00  0.00    +0.000 A 
ATOM     30  C   UNL     1       2.979   2.033  19.259  0.00  0.00    +0.000 A 
ATOM     31  C   UNL     1       4.196   2.674  19.454  0.00  0.00    +0.000 A 
ATOM     32  C   UNL     1       4.656   3.607  18.518  0.00  0.00    +0.000 A 
ENDBRANCH  25  27
ENDBRANCH  18  20
ENDBRANCH  17  18
ENDBRANCH   5  17
TORSDOF 8
ENDMDL
MODEL 4
REMARK VINA RESULT:      -8.1      2.721      8.481
REMARK  Name = 
REMARK  10 active torsions:
REMARK  status: ('A' for Active; 'I' for Inactive)
REMARK    1  A    between atoms: C_1  and  C_2
REMARK    2  A    between atoms: C_2  and  C_3
REMARK    3  A    between atoms: C_3  and  C_4
REMARK    4  A    between atoms: N_8  and  C_9
REMARK    5  A    between atoms: C_12  and  O_13
REMARK    6  A    between atoms: O_13  and  C_14
REMARK    7  A    between atoms: C_15  and  C_16
REMARK    8  A    between atoms: C_16  and  N_17
REMARK    9  A    between atoms: N_17  and  C_18
REMARK   10  A    between atoms: C_23  and  C_24
REMARK                            x       y       z     vdW  Elec       q    Type
REMARK                         _______ _______ _______ _____ _____    ______ ____
ROOT
ATOM      1  C   UNL     1       4.579   5.443  17.284  0.00  0.00    +0.000 A 
ATOM      2  C   UNL     1       4.208   4.167  17.674  0.00  0.00    +0.000 A 
ATOM      3  C   UNL     1       3.100   3.979  18.499  0.00  0.00    +0.000 A 
ATOM      4  C   UNL     1       2.332   5.064  18.935  0.00  0.00    +0.000 A 
ATOM      5  C   UNL     1       2.696   6.367  18.547  0.00  0.00    +0.000 A 
ATOM      6  C   UNL     1       3.831   6.545  17.725  0.00  0.00    +0.000 A 
ENDROOT
BRANCH   1  11
ATOM      7  C   UNL     1       6.191   5.014  15.350  0.00  0.00    +0.000 A 
ATOM      8  N   UNL     1       7.433   5.403  15.132  0.00  0.00    +0.000 NA
ATOM      9  N   UNL     1       7.717   6.341  16.083  0.00  0.00    +0.000 NA
ATOM     10  N   UNL     1       6.677   6.557  16.865  0.00  0.00    +0.000 NA
ATOM     11  N   UNL     1       5.745   5.644  16.500  0.00  0.00    +0.000 N 
BRANCH   7  12
ATOM     12  C   UNL     1       5.405   4.156  14.416  0.00  0.00    +0.000 C 
BRANCH  12  14
ATOM     13  C   UNL     1       5.272   3.257  12.033  0.00  0.00    +0.000 C 
ATOM     14  C   UNL     1       6.178   3.690  13.178  0.00  0.00    +0.000 C 
ENDBRANCH  12  14
ENDBRANCH   7  12
ENDBRANCH   1  11
BRANCH   4  15
ATOM     15  O   UNL     1       1.264   4.926  19.782  0.00  0.00    +0.000 OA
ATOM     16  C   UNL     1       1.363   3.868  20.733  0.00  0.00    +0.000 C 
ENDBRANCH   4  15
BRANCH   5  17
ATOM     17  C   UNL     1       1.913   7.594  18.981  0.00  0.00    +0.000 C 
BRANCH  17  18
ATOM     18  N   UNL     1       2.105   8.004  20.377  0.00  0.00    +0.000 NA
ATOM     19  H   UNL     1       2.882   8.669  20.394  0.00  0.00    +0.000 HD
BRANCH  18  20
ATOM     20  C   UNL     1       0.926   8.640  21.005  0.00  0.00    +0.000 C 
ATOM     21  C   UNL     1       1.167   9.118  22.451  0.00  0.00    +0.000 C 
ATOM     22  C   UNL     1      -0.097   9.715  23.056  0.00  0.00    +0.000 C 
ATOM     23  C   UNL     1      -0.827  10.683  22.128  0.00  0.00    +0.000 C 
ATOM     24  N   UNL     1      -0.996  10.169  20.772  0.00  0.00    +0.000 NA
ATOM     25  C   UNL     1       0.293   9.796  20.135  0.00  0.00    +0.000 C 
ATOM     26  H   UNL     1      -1.466  10.869  20.203  0.00  0.00    +0.000 HD
BRANCH  25  27
ATOM     27  C   UNL     1       1.134  11.029  19.777  0.00  0.00    +0.000 A 
ATOM     28  C   UNL     1       1.361  12.096  20.656  0.00  0.00    +0.000 A 
ATOM     29  C   UNL     1       2.063  13.237  20.256  0.00  0.00    +0.000 A 
ATOM     30  C   UNL     1       2.595  13.316  18.974  0.00  0.00    +0.000 A 
ATOM     31  C   UNL     1       2.441  12.245  18.101  0.00  0.00    +0.000 A 
ATOM     32  C   UNL     1       1.722  11.113  18.499  0.00  0.00    +0.000 A 
ENDBRANCH  25  27
ENDBRANCH  18  20
ENDBRANCH  17  18
ENDBRANCH   5  17
TORSDOF 8
ENDMDL
MODEL 5
REMARK VINA RESULT:      -8.1      2.806      8.326
REMARK  Name = 
REMARK  10 active torsions:
REMARK  status: ('A' for Active; 'I' for Inactive)
REMARK    1  A    between atoms: C_1  and  C_2
REMARK    2  A    between atoms: C_2  and  C_3
REMARK    3  A    between atoms: C_3  and  C_4
REMARK    4  A    between atoms: N_8  and  C_9
REMARK    5  A    between atoms: C_12  and  O_13
REMARK    6  A    between atoms: O_13  and  C_14
REMARK    7  A    between atoms: C_15  and  C_16
REMARK    8  A    between atoms: C_16  and  N_17
REMARK    9  A    between atoms: N_17  and  C_18
REMARK   10  A    between atoms: C_23  and  C_24
REMARK                            x       y       z     vdW  Elec       q    Type
REMARK                         _______ _______ _______ _____ _____    ______ ____
ROOT
ATOM      1  C   UNL     1       4.981   5.135  17.919  0.00  0.00    +0.000 A 
ATOM      2  C   UNL     1       4.858   3.975  18.666  0.00  0.00    +0.000 A 
ATOM      3  C   UNL     1       3.855   3.862  19.629  0.00  0.00    +0.000 A 
ATOM      4  C   UNL     1       2.946   4.902  19.848  0.00  0.00    +0.000 A 
ATOM      5  C   UNL     1       3.057   6.086  19.097  0.00  0.00    +0.000 A 
ATOM      6  C   UNL     1       4.088   6.195  18.137  0.00  0.00    +0.000 A 
ENDROOT
BRANCH   1  11
ATOM      7  C   UNL     1       7.095   6.177  16.935  0.00  0.00    +0.000 A 
ATOM      8  N   UNL     1       7.677   6.049  15.759  0.00  0.00    +0.000 NA
ATOM      9  N   UNL     1       7.050   5.014  15.126  0.00  0.00    +0.000 NA
ATOM     10  N   UNL     1       6.114   4.486  15.891  0.00  0.00    +0.000 NA
ATOM     11  N   UNL     1       6.040   5.280  16.986  0.00  0.00    +0.000 N 
BRANCH   7  12
ATOM     12  C   UNL     1       7.607   7.047  18.035  0.00  0.00    +0.000 C 
BRANCH  12  14
ATOM     13  C   UNL     1       8.678   9.281  18.640  0.00  0.00    +0.000 C 
ATOM     14  C   UNL     1       7.834   8.509  17.635  0.00  0.00    +0.000 C 
ENDBRANCH  12  14
ENDBRANCH   7  12
ENDBRANCH   1  11
BRANCH   4  15
ATOM     15  O   UNL     1       1.975   4.848  20.814  0.00  0.00    +0.000 OA
ATOM     16  C   UNL     1       1.088   3.735  20.735  0.00  0.00    +0.000 C 
ENDBRANCH   4  15
BRANCH   5  17
ATOM     17  C   UNL     1       2.107   7.258  19.280  0.00  0.00    +0.000 C 
BRANCH  17  18
ATOM     18  N   UNL     1       2.249   7.994  20.541  0.00  0.00    +0.000 NA
ATOM     19  H   UNL     1       2.940   8.731  20.387  0.00  0.00    +0.000 HD
BRANCH  18  20
ATOM     20  C   UNL     1       1.002   8.614  21.041  0.00  0.00    +0.000 C 
ATOM     21  C   UNL     1       1.120   9.202  22.462  0.00  0.00    +0.000 C 
ATOM     22  C   UNL     1      -0.209   9.778  22.936  0.00  0.00    +0.000 C 
ATOM     23  C   UNL     1      -0.914  10.642  21.894  0.00  0.00    +0.000 C 
ATOM     24  N   UNL     1      -0.965  10.027  20.570  0.00  0.00    +0.000 NA
ATOM     25  C   UNL     1       0.381   9.674  20.050  0.00  0.00    +0.000 C 
ATOM     26  H   UNL     1      -1.424  10.662  19.922  0.00  0.00    +0.000 HD
BRANCH  25  27
ATOM     27  C   UNL     1       1.190  10.919  19.659  0.00  0.00    +0.000 A 
ATOM     28  C   UNL     1       1.354  12.032  20.494  0.00  0.00    +0.000 A 
ATOM     29  C   UNL     1       2.028  13.178  20.063  0.00  0.00    +0.000 A 
ATOM     30  C   UNL     1       2.594  13.217  18.794  0.00  0.00    +0.000 A 
ATOM     31  C   UNL     1       2.503  12.105  17.967  0.00  0.00    +0.000 A 
ATOM     32  C   UNL     1       1.812  10.966  18.396  0.00  0.00    +0.000 A 
ENDBRANCH  25  27
ENDBRANCH  18  20
ENDBRANCH  17  18
ENDBRANCH   5  17
TORSDOF 8
ENDMDL
MODEL 6
REMARK VINA RESULT:      -8.0      2.435      8.999
REMARK  Name = 
REMARK  10 active torsions:
REMARK  status: ('A' for Active; 'I' for Inactive)
REMARK    1  A    between atoms: C_1  and  C_2
REMARK    2  A    between atoms: C_2  and  C_3
REMARK    3  A    between atoms: C_3  and  C_4
REMARK    4  A    between atoms: N_8  and  C_9
REMARK    5  A    between atoms: C_12  and  O_13
REMARK    6  A    between atoms: O_13  and  C_14
REMARK    7  A    between atoms: C_15  and  C_16
REMARK    8  A    between atoms: C_16  and  N_17
REMARK    9  A    between atoms: N_17  and  C_18
REMARK   10  A    between atoms: C_23  and  C_24
REMARK                            x       y       z     vdW  Elec       q    Type
REMARK                         _______ _______ _______ _____ _____    ______ ____
ROOT
ATOM      1  C   UNL     1       4.296   6.019  17.778  0.00  0.00    +0.000 A 
ATOM      2  C   UNL     1       3.724   5.311  18.823  0.00  0.00    +0.000 A 
ATOM      3  C   UNL     1       2.711   5.886  19.590  0.00  0.00    +0.000 A 
ATOM      4  C   UNL     1       2.240   7.174  19.313  0.00  0.00    +0.000 A 
ATOM      5  C   UNL     1       2.809   7.905  18.255  0.00  0.00    +0.000 A 
ATOM      6  C   UNL     1       3.847   7.318  17.496  0.00  0.00    +0.000 A 
ENDROOT
BRANCH   1  11
ATOM      7  C   UNL     1       6.705   5.833  16.950  0.00  0.00    +0.000 A 
ATOM      8  N   UNL     1       7.249   5.147  15.963  0.00  0.00    +0.000 NA
ATOM      9  N   UNL     1       6.286   4.290  15.510  0.00  0.00    +0.000 NA
ATOM     10  N   UNL     1       5.173   4.413  16.208  0.00  0.00    +0.000 NA
ATOM     11  N   UNL     1       5.372   5.464  17.039  0.00  0.00    +0.000 N 
BRANCH   7  12
ATOM     12  C   UNL     1       7.466   6.729  17.868  0.00  0.00    +0.000 C 
BRANCH  12  14
ATOM     13  C   UNL     1       8.444   9.052  18.259  0.00  0.00    +0.000 C 
ATOM     14  C   UNL     1       7.455   8.208  17.468  0.00  0.00    +0.000 C 
ENDBRANCH  12  14
ENDBRANCH   7  12
ENDBRANCH   1  11
BRANCH   4  15
ATOM     15  O   UNL     1       1.278   7.792  20.069  0.00  0.00    +0.000 OA
ATOM     16  C   UNL     1       1.680   8.180  21.381  0.00  0.00    +0.000 C 
ENDBRANCH   4  15
BRANCH   5  17
ATOM     17  C   UNL     1       2.350   9.308  17.895  0.00  0.00    +0.000 C 
BRANCH  17  18
ATOM     18  N   UNL     1       0.898   9.517  17.896  0.00  0.00    +0.000 NA
ATOM     19  H   UNL     1       0.465   8.642  18.198  0.00  0.00    +0.000 HD
BRANCH  18  20
ATOM     20  C   UNL     1       0.429  10.605  18.782  0.00  0.00    +0.000 C 
ATOM     21  C   UNL     1       0.810  12.018  18.294  0.00  0.00    +0.000 C 
ATOM     22  C   UNL     1       0.344  13.087  19.274  0.00  0.00    +0.000 C 
ATOM     23  C   UNL     1      -1.089  12.896  19.761  0.00  0.00    +0.000 C 
ATOM     24  N   UNL     1      -1.379  11.528  20.183  0.00  0.00    +0.000 NA
ATOM     25  C   UNL     1      -1.112  10.530  19.117  0.00  0.00    +0.000 C 
ATOM     26  H   UNL     1      -2.352  11.465  20.472  0.00  0.00    +0.000 HD
BRANCH  25  27
ATOM     27  C   UNL     1      -2.143  10.610  17.983  0.00  0.00    +0.000 A 
ATOM     28  C   UNL     1      -1.982   9.983  16.740  0.00  0.00    +0.000 A 
ATOM     29  C   UNL     1      -2.908  10.154  15.708  0.00  0.00    +0.000 A 
ATOM     30  C   UNL     1      -4.046  10.925  15.913  0.00  0.00    +0.000 A 
ATOM     31  C   UNL     1      -4.266  11.507  17.156  0.00  0.00    +0.000 A 
ATOM     32  C   UNL     1      -3.327  11.349  18.181  0.00  0.00    +0.000 A 
ENDBRANCH  25  27
ENDBRANCH  18  20
ENDBRANCH  17  18
ENDBRANCH   5  17
TORSDOF 8
ENDMDL
MODEL 7
REMARK VINA RESULT:      -7.9      2.488      4.562
REMARK  Name = 
REMARK  10 active torsions:
REMARK  status: ('A' for Active; 'I' for Inactive)
REMARK    1  A    between atoms: C_1  and  C_2
REMARK    2  A    between atoms: C_2  and  C_3
REMARK    3  A    between atoms: C_3  and  C_4
REMARK    4  A    between atoms: N_8  and  C_9
REMARK    5  A    between atoms: C_12  and  O_13
REMARK    6  A    between atoms: O_13  and  C_14
REMARK    7  A    between atoms: C_15  and  C_16
REMARK    8  A    between atoms: C_16  and  N_17
REMARK    9  A    between atoms: N_17  and  C_18
REMARK   10  A    between atoms: C_23  and  C_24
REMARK                            x       y       z     vdW  Elec       q    Type
REMARK                         _______ _______ _______ _____ _____    ______ ____
ROOT
ATOM      1  C   UNL     1       1.986   6.650  19.513  0.00  0.00    +0.000 A 
ATOM      2  C   UNL     1       1.692   6.008  20.705  0.00  0.00    +0.000 A 
ATOM      3  C   UNL     1       1.870   4.629  20.823  0.00  0.00    +0.000 A 
ATOM      4  C   UNL     1       2.363   3.872  19.755  0.00  0.00    +0.000 A 
ATOM      5  C   UNL     1       2.667   4.510  18.538  0.00  0.00    +0.000 A 
ATOM      6  C   UNL     1       2.466   5.904  18.426  0.00  0.00    +0.000 A 
ENDROOT
BRANCH   1  11
ATOM      7  C   UNL     1       1.235   8.976  20.255  0.00  0.00    +0.000 A 
ATOM      8  N   UNL     1       0.992  10.083  19.579  0.00  0.00    +0.000 NA
ATOM      9  N   UNL     1       1.438   9.865  18.307  0.00  0.00    +0.000 NA
ATOM     10  N   UNL     1       1.971   8.664  18.187  0.00  0.00    +0.000 NA
ATOM     11  N   UNL     1       1.743   8.040  19.368  0.00  0.00    +0.000 N 
BRANCH   7  12
ATOM     12  C   UNL     1       1.103   8.851  21.736  0.00  0.00    +0.000 C 
BRANCH  12  14
ATOM     13  C   UNL     1      -0.688  10.267  22.873  0.00  0.00    +0.000 C 
ATOM     14  C   UNL     1      -0.338   8.921  22.254  0.00  0.00    +0.000 C 
ENDBRANCH  12  14
ENDBRANCH   7  12
ENDBRANCH   1  11
BRANCH   4  15
ATOM     15  O   UNL     1       2.510   2.511  19.815  0.00  0.00    +0.000 OA
ATOM     16  C   UNL     1       1.404   1.749  19.336  0.00  0.00    +0.000 C 
ENDBRANCH   4  15
BRANCH   5  17
ATOM     17  C   UNL     1       3.205   3.754  17.335  0.00  0.00    +0.000 C 
BRANCH  17  18
ATOM     18  N   UNL     1       4.658   3.546  17.318  0.00  0.00    +0.000 NA
ATOM     19  H   UNL     1       4.890   3.095  16.431  0.00  0.00    +0.000 HD
BRANCH  18  20
ATOM     20  C   UNL     1       5.462   4.782  17.443  0.00  0.00    +0.000 C 
ATOM     21  C   UNL     1       6.892   4.547  17.970  0.00  0.00    +0.000 C 
ATOM     22  C   UNL     1       7.648   5.861  18.125  0.00  0.00    +0.000 C 
ATOM     23  C   UNL     1       7.505   6.800  16.930  0.00  0.00    +0.000 C 
ATOM     24  N   UNL     1       6.125   6.951  16.476  0.00  0.00    +0.000 NA
ATOM     25  C   UNL     1       5.490   5.655  16.129  0.00  0.00    +0.000 C 
ATOM     26  H   UNL     1       6.104   7.568  15.667  0.00  0.00    +0.000 HD
BRANCH  25  27
ATOM     27  C   UNL     1       6.061   5.064  14.832  0.00  0.00    +0.000 A 
ATOM     28  C   UNL     1       7.308   5.421  14.300  0.00  0.00    +0.000 A 
ATOM     29  C   UNL     1       7.750   4.920  13.072  0.00  0.00    +0.000 A 
ATOM     30  C   UNL     1       6.969   4.011  12.368  0.00  0.00    +0.000 A 
ATOM     31  C   UNL     1       5.757   3.589  12.902  0.00  0.00    +0.000 A 
ATOM     32  C   UNL     1       5.309   4.107  14.122  0.00  0.00    +0.000 A 
ENDBRANCH  25  27
ENDBRANCH  18  20
ENDBRANCH  17  18
ENDBRANCH   5  17
TORSDOF 8
ENDMDL
MODEL 8
REMARK VINA RESULT:      -7.9      2.060      3.881
REMARK  Name = 
REMARK  10 active torsions:
REMARK  status: ('A' for Active; 'I' for Inactive)
REMARK    1  A    between atoms: C_1  and  C_2
REMARK    2  A    between atoms: C_2  and  C_3
REMARK    3  A    between atoms: C_3  and  C_4
REMARK    4  A    between atoms: N_8  and  C_9
REMARK    5  A    between atoms: C_12  and  O_13
REMARK    6  A    between atoms: O_13  and  C_14
REMARK    7  A    between atoms: C_15  and  C_16
REMARK    8  A    between atoms: C_16  and  N_17
REMARK    9  A    between atoms: N_17  and  C_18
REMARK   10  A    between atoms: C_23  and  C_24
REMARK                            x       y       z     vdW  Elec       q    Type
REMARK                         _______ _______ _______ _____ _____    ______ ____
ROOT
ATOM      1  C   UNL     1       0.740   9.910  19.312  0.00  0.00    +0.000 A 
ATOM      2  C   UNL     1       0.574   9.293  20.541  0.00  0.00    +0.000 A 
ATOM      3  C   UNL     1       1.225   8.091  20.818  0.00  0.00    +0.000 A 
ATOM      4  C   UNL     1       2.069   7.494  19.875  0.00  0.00    +0.000 A 
ATOM      5  C   UNL     1       2.248   8.109  18.622  0.00  0.00    +0.000 A 
ATOM      6  C   UNL     1       1.570   9.318  18.348  0.00  0.00    +0.000 A 
ENDROOT
BRANCH   1  11
ATOM      7  C   UNL     1       0.352  12.432  19.187  0.00  0.00    +0.000 A 
ATOM      8  N   UNL     1      -0.728  13.148  18.943  0.00  0.00    +0.000 NA
ATOM      9  N   UNL     1      -1.686  12.272  18.517  0.00  0.00    +0.000 NA
ATOM     10  N   UNL     1      -1.216  11.040  18.468  0.00  0.00    +0.000 NA
ATOM     11  N   UNL     1       0.027  11.097  19.002  0.00  0.00    +0.000 N 
BRANCH   7  12
ATOM     12  C   UNL     1       1.698  13.012  19.468  0.00  0.00    +0.000 C 
BRANCH  12  14
ATOM     13  C   UNL     1       3.539  14.294  18.254  0.00  0.00    +0.000 C 
ATOM     14  C   UNL     1       2.631  13.072  18.254  0.00  0.00    +0.000 C 
ENDBRANCH  12  14
ENDBRANCH   7  12
ENDBRANCH   1  11
BRANCH   4  15
ATOM     15  O   UNL     1       2.691   6.293  20.090  0.00  0.00    +0.000 OA
ATOM     16  C   UNL     1       1.857   5.245  20.581  0.00  0.00    +0.000 C 
ENDBRANCH   4  15
BRANCH   5  17
ATOM     17  C   UNL     1       3.147   7.521  17.548  0.00  0.00    +0.000 C 
BRANCH  17  18
ATOM     18  N   UNL     1       4.479   7.100  18.000  0.00  0.00    +0.000 NA
ATOM     19  H   UNL     1       4.352   6.564  18.861  0.00  0.00    +0.000 HD
BRANCH  18  20
ATOM     20  C   UNL     1       5.228   6.269  17.032  0.00  0.00    +0.000 C 
ATOM     21  C   UNL     1       6.614   5.816  17.536  0.00  0.00    +0.000 C 
ATOM     22  C   UNL     1       7.352   5.010  16.475  0.00  0.00    +0.000 C 
ATOM     23  C   UNL     1       6.492   3.948  15.796  0.00  0.00    +0.000 C 
ATOM     24  N   UNL     1       5.187   4.447  15.369  0.00  0.00    +0.000 NA
ATOM     25  C   UNL     1       4.405   5.037  16.486  0.00  0.00    +0.000 C 
ATOM     26  H   UNL     1       4.658   3.688  14.948  0.00  0.00    +0.000 HD
BRANCH  25  27
ATOM     27  C   UNL     1       3.898   3.966  17.461  0.00  0.00    +0.000 A 
ATOM     28  C   UNL     1       4.574   3.601  18.633  0.00  0.00    +0.000 A 
ATOM     29  C   UNL     1       4.117   2.559  19.447  0.00  0.00    +0.000 A 
ATOM     30  C   UNL     1       2.944   1.887  19.126  0.00  0.00    +0.000 A 
ATOM     31  C   UNL     1       2.218   2.270  18.005  0.00  0.00    +0.000 A 
ATOM     32  C   UNL     1       2.688   3.300  17.183  0.00  0.00    +0.000 A 
ENDBRANCH  25  27
ENDBRANCH  18  20
ENDBRANCH  17  18
ENDBRANCH   5  17
TORSDOF 8
ENDMDL
MODEL 9
REMARK VINA RESULT:      -7.9      2.534      4.507
REMARK  Name = 
REMARK  10 active torsions:
REMARK  status: ('A' for Active; 'I' for Inactive)
REMARK    1  A    between atoms: C_1  and  C_2
REMARK    2  A    between atoms: C_2  and  C_3
REMARK    3  A    between atoms: C_3  and  C_4
REMARK    4  A    between atoms: N_8  and  C_9
REMARK    5  A    between atoms: C_12  and  O_13
REMARK    6  A    between atoms: O_13  and  C_14
REMARK    7  A    between atoms: C_15  and  C_16
REMARK    8  A    between atoms: C_16  and  N_17
REMARK    9  A    between atoms: N_17  and  C_18
REMARK   10  A    between atoms: C_23  and  C_24
REMARK                            x       y       z     vdW  Elec       q    Type
REMARK                         _______ _______ _______ _____ _____    ______ ____
ROOT
ATOM      1  C   UNL     1       2.044   6.575  19.468  0.00  0.00    +0.000 A 
ATOM      2  C   UNL     1       1.838   6.010  20.716  0.00  0.00    +0.000 A 
ATOM      3  C   UNL     1       2.070   4.649  20.916  0.00  0.00    +0.000 A 
ATOM      4  C   UNL     1       2.528   3.834  19.876  0.00  0.00    +0.000 A 
ATOM      5  C   UNL     1       2.742   4.394  18.603  0.00  0.00    +0.000 A 
ATOM      6  C   UNL     1       2.487   5.770  18.408  0.00  0.00    +0.000 A 
ENDROOT
BRANCH   1  11
ATOM      7  C   UNL     1       1.225   8.916  20.082  0.00  0.00    +0.000 A 
ATOM      8  N   UNL     1       0.925   9.968  19.345  0.00  0.00    +0.000 NA
ATOM      9  N   UNL     1       1.347   9.686  18.078  0.00  0.00    +0.000 NA
ATOM     10  N   UNL     1       1.921   8.500  18.019  0.00  0.00    +0.000 NA
ATOM     11  N   UNL     1       1.746   7.944  19.242  0.00  0.00    +0.000 N 
BRANCH   7  12
ATOM     12  C   UNL     1       1.133   8.881  21.571  0.00  0.00    +0.000 C 
BRANCH  12  14
ATOM     13  C   UNL     1      -0.613  10.137  22.941  0.00  0.00    +0.000 C 
ATOM     14  C   UNL     1      -0.297   8.894  22.120  0.00  0.00    +0.000 C 
ENDBRANCH  12  14
ENDBRANCH   7  12
ENDBRANCH   1  11
BRANCH   4  15
ATOM     15  O   UNL     1       2.724   2.486  20.020  0.00  0.00    +0.000 OA
ATOM     16  C   UNL     1       3.856   2.107  20.802  0.00  0.00    +0.000 C 
ENDBRANCH   4  15
BRANCH   5  17
ATOM     17  C   UNL     1       3.237   3.572  17.425  0.00  0.00    +0.000 C 
BRANCH  17  18
ATOM     18  N   UNL     1       4.693   3.415  17.332  0.00  0.00    +0.000 NA
ATOM     19  H   UNL     1       4.896   2.989  16.426  0.00  0.00    +0.000 HD
BRANCH  18  20
ATOM     20  C   UNL     1       5.461   4.675  17.445  0.00  0.00    +0.000 C 
ATOM     21  C   UNL     1       6.923   4.480  17.895  0.00  0.00    +0.000 C 
ATOM     22  C   UNL     1       7.641   5.816  18.040  0.00  0.00    +0.000 C 
ATOM     23  C   UNL     1       7.406   6.773  16.875  0.00  0.00    +0.000 C 
ATOM     24  N   UNL     1       6.000   6.886  16.493  0.00  0.00    +0.000 NA
ATOM     25  C   UNL     1       5.392   5.575  16.150  0.00  0.00    +0.000 C 
ATOM     26  H   UNL     1       5.917   7.517  15.700  0.00  0.00    +0.000 HD
BRANCH  25  27
ATOM     27  C   UNL     1       5.917   5.031  14.814  0.00  0.00    +0.000 A 
ATOM     28  C   UNL     1       5.231   4.088  14.036  0.00  0.00    +0.000 A 
ATOM     29  C   UNL     1       5.788   3.558  12.869  0.00  0.00    +0.000 A 
ATOM     30  C   UNL     1       7.031   3.995  12.428  0.00  0.00    +0.000 A 
ATOM     31  C   UNL     1       7.707   4.976  13.144  0.00  0.00    +0.000 A 
ATOM     32  C   UNL     1       7.155   5.491  14.322  0.00  0.00    +0.000 A 
ENDBRANCH  25  27
ENDBRANCH  18  20
ENDBRANCH  17  18
ENDBRANCH   5  17
TORSDOF 8
ENDMDL
