MODEL 1
REMARK VINA RESULT:      -6.8      0.000      0.000
REMARK  Name = 
REMARK  4 active torsions:
REMARK  status: ('A' for Active; 'I' for Inactive)
REMARK    1  A    between atoms: C_2  and  N_3
REMARK    2  A    between atoms: C_7  and  C_8
REMARK    3  A    between atoms: C_8  and  N_9
REMARK    4  A    between atoms: C_10  and  C_12
REMARK                            x       y       z     vdW  Elec       q    Type
REMARK                         _______ _______ _______ _____ _____    ______ ____
ROOT
ATOM      1  N   UNL     1       6.204   4.294  16.855  0.00  0.00    +0.000 N 
ATOM      2  C   UNL     1       6.867   5.144  15.994  0.00  0.00    +0.000 C 
ATOM      3  O   UNL     1       7.394   6.190  16.352  0.00  0.00    +0.000 OA
ATOM      4  H   UNL     1       5.691   3.505  16.491  0.00  0.00    +0.000 HD
ENDROOT
BRANCH   2   5
ATOM      5  C   UNL     1       6.862   4.763  14.556  0.00  0.00    +0.000 A 
ATOM      6  C   UNL     1       5.935   3.807  14.124  0.00  0.00    +0.000 A 
ATOM      7  C   UNL     1       5.901   3.414  12.786  0.00  0.00    +0.000 A 
ATOM      8  C   UNL     1       6.791   3.987  11.873  0.00  0.00    +0.000 A 
ATOM      9  C   UNL     1       7.704   4.953  12.295  0.00  0.00    +0.000 A 
ATOM     10  C   UNL     1       7.740   5.345  13.634  0.00  0.00    +0.000 A 
ENDBRANCH   2   5
BRANCH   1  11
ATOM     11  C   UNL     1       6.105   4.573  18.279  0.00  0.00    +0.000 C 
BRANCH  11  16
ATOM     12  N   UNL     1       4.052   3.375  19.112  0.00  0.00    +0.000 N 
ATOM     13  C   UNL     1       2.611   3.481  18.799  0.00  0.00    +0.000 C 
ATOM     14  C   UNL     1       2.613   4.301  17.527  0.00  0.00    +0.000 C 
ATOM     15  C   UNL     1       3.708   5.335  17.757  0.00  0.00    +0.000 C 
ATOM     16  C   UNL     1       4.661   4.711  18.795  0.00  0.00    +0.000 C 
BRANCH  12  18
ATOM     17  N   UNL     1       5.020   1.682  20.668  0.00  0.00    +0.000 NA
ATOM     18  C   UNL     1       4.583   2.460  19.931  0.00  0.00    +0.000 C 
ENDBRANCH  12  18
ENDBRANCH  11  16
ENDBRANCH   1  11
TORSDOF 4
ENDMDL
MODEL 2
REMARK VINA RESULT:      -6.7      0.585      1.327
REMARK  Name = 
REMARK  4 active torsions:
REMARK  status: ('A' for Active; 'I' for Inactive)
REMARK    1  A    between atoms: C_2  and  N_3
REMARK    2  A    between atoms: C_7  and  C_8
REMARK    3  A    between atoms: C_8  and  N_9
REMARK    4  A    between atoms: C_10  and  C_12
REMARK                            x       y       z     vdW  Elec       q    Type
REMARK                         _______ _______ _______ _____ _____    ______ ____
ROOT
ATOM      1  N   UNL     1       5.900   4.105  16.854  0.00  0.00    +0.000 N 
ATOM      2  C   UNL     1       6.402   5.087  16.026  0.00  0.00    +0.000 C 
ATOM      3  O   UNL     1       6.647   6.227  16.403  0.00  0.00    +0.000 OA
ATOM      4  H   UNL     1       5.608   3.219  16.469  0.00  0.00    +0.000 HD
ENDROOT
BRANCH   2   5
ATOM      5  C   UNL     1       6.581   4.718  14.597  0.00  0.00    +0.000 A 
ATOM      6  C   UNL     1       7.588   5.357  13.865  0.00  0.00    +0.000 A 
ATOM      7  C   UNL     1       7.785   5.048  12.519  0.00  0.00    +0.000 A 
ATOM      8  C   UNL     1       6.977   4.088  11.904  0.00  0.00    +0.000 A 
ATOM      9  C   UNL     1       5.984   3.435  12.632  0.00  0.00    +0.000 A 
ATOM     10  C   UNL     1       5.785   3.745  13.979  0.00  0.00    +0.000 A 
ENDBRANCH   2   5
BRANCH   1  11
ATOM     11  C   UNL     1       5.645   4.351  18.265  0.00  0.00    +0.000 C 
BRANCH  11  16
ATOM     12  N   UNL     1       3.908   2.776  19.185  0.00  0.00    +0.000 N 
ATOM     13  C   UNL     1       2.523   2.439  18.790  0.00  0.00    +0.000 C 
ATOM     14  C   UNL     1       2.427   3.034  17.401  0.00  0.00    +0.000 C 
ATOM     15  C   UNL     1       3.189   4.348  17.509  0.00  0.00    +0.000 C 
ATOM     16  C   UNL     1       4.174   4.165  18.681  0.00  0.00    +0.000 C 
BRANCH  12  18
ATOM     17  N   UNL     1       5.196   1.641  20.994  0.00  0.00    +0.000 NA
ATOM     18  C   UNL     1       4.583   2.170  20.168  0.00  0.00    +0.000 C 
ENDBRANCH  12  18
ENDBRANCH  11  16
ENDBRANCH   1  11
TORSDOF 4
ENDMDL
MODEL 3
REMARK VINA RESULT:      -6.7      1.384      1.847
REMARK  Name = 
REMARK  4 active torsions:
REMARK  status: ('A' for Active; 'I' for Inactive)
REMARK    1  A    between atoms: C_2  and  N_3
REMARK    2  A    between atoms: C_7  and  C_8
REMARK    3  A    between atoms: C_8  and  N_9
REMARK    4  A    between atoms: C_10  and  C_12
REMARK                            x       y       z     vdW  Elec       q    Type
REMARK                         _______ _______ _______ _____ _____    ______ ____
ROOT
ATOM      1  N   UNL     1       5.167   5.931  15.879  0.00  0.00    +0.000 N 
ATOM      2  C   UNL     1       6.431   5.554  15.474  0.00  0.00    +0.000 C 
ATOM      3  O   UNL     1       7.447   5.812  16.108  0.00  0.00    +0.000 OA
ATOM      4  H   UNL     1       4.378   5.793  15.264  0.00  0.00    +0.000 HD
ENDROOT
BRANCH   2   5
ATOM      5  C   UNL     1       6.525   4.856  14.165  0.00  0.00    +0.000 A 
ATOM      6  C   UNL     1       5.553   3.899  13.849  0.00  0.00    +0.000 A 
ATOM      7  C   UNL     1       5.608   3.214  12.635  0.00  0.00    +0.000 A 
ATOM      8  C   UNL     1       6.633   3.493  11.728  0.00  0.00    +0.000 A 
ATOM      9  C   UNL     1       7.594   4.458  12.029  0.00  0.00    +0.000 A 
ATOM     10  C   UNL     1       7.541   5.142  13.245  0.00  0.00    +0.000 A 
ENDBRANCH   2   5
BRANCH   1  11
ATOM     11  C   UNL     1       4.945   6.652  17.122  0.00  0.00    +0.000 C 
BRANCH  11  16
ATOM     12  N   UNL     1       5.268   4.864  18.866  0.00  0.00    +0.000 N 
ATOM     13  C   UNL     1       4.506   3.652  19.240  0.00  0.00    +0.000 C 
ATOM     14  C   UNL     1       3.570   3.480  18.062  0.00  0.00    +0.000 C 
ATOM     15  C   UNL     1       3.158   4.903  17.708  0.00  0.00    +0.000 C 
ATOM     16  C   UNL     1       4.289   5.810  18.231  0.00  0.00    +0.000 C 
BRANCH  12  18
ATOM     17  N   UNL     1       7.452   5.491  19.895  0.00  0.00    +0.000 NA
ATOM     18  C   UNL     1       6.442   5.214  19.403  0.00  0.00    +0.000 C 
ENDBRANCH  12  18
ENDBRANCH  11  16
ENDBRANCH   1  11
TORSDOF 4
ENDMDL
MODEL 4
REMARK VINA RESULT:      -6.7      4.693      6.095
REMARK  Name = 
REMARK  4 active torsions:
REMARK  status: ('A' for Active; 'I' for Inactive)
REMARK    1  A    between atoms: C_2  and  N_3
REMARK    2  A    between atoms: C_7  and  C_8
REMARK    3  A    between atoms: C_8  and  N_9
REMARK    4  A    between atoms: C_10  and  C_12
REMARK                            x       y       z     vdW  Elec       q    Type
REMARK                         _______ _______ _______ _____ _____    ______ ____
ROOT
ATOM      1  N   UNL     1       1.690   5.053  20.539  0.00  0.00    +0.000 N 
ATOM      2  C   UNL     1       2.656   5.858  19.972  0.00  0.00    +0.000 C 
ATOM      3  O   UNL     1       3.837   5.542  19.899  0.00  0.00    +0.000 OA
ATOM      4  H   UNL     1       0.754   5.408  20.677  0.00  0.00    +0.000 HD
ENDROOT
BRANCH   2   5
ATOM      5  C   UNL     1       2.208   7.193  19.495  0.00  0.00    +0.000 A 
ATOM      6  C   UNL     1       2.485   7.555  18.172  0.00  0.00    +0.000 A 
ATOM      7  C   UNL     1       2.091   8.802  17.686  0.00  0.00    +0.000 A 
ATOM      8  C   UNL     1       1.407   9.687  18.523  0.00  0.00    +0.000 A 
ATOM      9  C   UNL     1       1.112   9.324  19.836  0.00  0.00    +0.000 A 
ATOM     10  C   UNL     1       1.508   8.078  20.325  0.00  0.00    +0.000 A 
ENDBRANCH   2   5
BRANCH   1  11
ATOM     11  C   UNL     1       2.007   3.740  21.077  0.00  0.00    +0.000 C 
BRANCH  11  16
ATOM     12  N   UNL     1       3.376   2.246  19.581  0.00  0.00    +0.000 N 
ATOM     13  C   UNL     1       3.270   1.850  18.160  0.00  0.00    +0.000 C 
ATOM     14  C   UNL     1       2.274   2.853  17.616  0.00  0.00    +0.000 C 
ATOM     15  C   UNL     1       1.252   3.001  18.735  0.00  0.00    +0.000 C 
ATOM     16  C   UNL     1       1.990   2.610  20.031  0.00  0.00    +0.000 C 
BRANCH  12  18
ATOM     17  N   UNL     1       5.276   1.593  21.059  0.00  0.00    +0.000 NA
ATOM     18  C   UNL     1       4.382   1.898  20.390  0.00  0.00    +0.000 C 
ENDBRANCH  12  18
ENDBRANCH  11  16
ENDBRANCH   1  11
TORSDOF 4
ENDMDL
MODEL 5
REMARK VINA RESULT:      -6.6      2.737      6.184
REMARK  Name = 
REMARK  4 active torsions:
REMARK  status: ('A' for Active; 'I' for Inactive)
REMARK    1  A    between atoms: C_2  and  N_3
REMARK    2  A    between atoms: C_7  and  C_8
REMARK    3  A    between atoms: C_8  and  N_9
REMARK    4  A    between atoms: C_10  and  C_12
REMARK                            x       y       z     vdW  Elec       q    Type
REMARK                         _______ _______ _______ _____ _____    ______ ____
ROOT
ATOM      1  N   UNL     1       4.011   5.678  17.180  0.00  0.00    +0.000 N 
ATOM      2  C   UNL     1       3.074   6.100  18.101  0.00  0.00    +0.000 C 
ATOM      3  O   UNL     1       2.925   7.273  18.421  0.00  0.00    +0.000 OA
ATOM      4  H   UNL     1       4.170   4.691  17.037  0.00  0.00    +0.000 HD
ENDROOT
BRANCH   2   5
ATOM      5  C   UNL     1       2.271   5.036  18.761  0.00  0.00    +0.000 A 
ATOM      6  C   UNL     1       1.821   3.963  17.984  0.00  0.00    +0.000 A 
ATOM      7  C   UNL     1       1.057   2.948  18.560  0.00  0.00    +0.000 A 
ATOM      8  C   UNL     1       0.750   3.001  19.922  0.00  0.00    +0.000 A 
ATOM      9  C   UNL     1       1.211   4.059  20.705  0.00  0.00    +0.000 A 
ATOM     10  C   UNL     1       1.973   5.076  20.129  0.00  0.00    +0.000 A 
ENDBRANCH   2   5
BRANCH   1  11
ATOM     11  C   UNL     1       4.884   6.616  16.493  0.00  0.00    +0.000 C 
BRANCH  11  16
ATOM     12  N   UNL     1       6.723   4.899  16.372  0.00  0.00    +0.000 N 
ATOM     13  C   UNL     1       7.828   4.521  17.280  0.00  0.00    +0.000 C 
ATOM     14  C   UNL     1       7.433   5.200  18.574  0.00  0.00    +0.000 C 
ATOM     15  C   UNL     1       6.863   6.540  18.129  0.00  0.00    +0.000 C 
ATOM     16  C   UNL     1       6.386   6.330  16.678  0.00  0.00    +0.000 C 
BRANCH  12  18
ATOM     17  N   UNL     1       6.200   3.740  14.227  0.00  0.00    +0.000 NA
ATOM     18  C   UNL     1       6.430   4.265  15.232  0.00  0.00    +0.000 C 
ENDBRANCH  12  18
ENDBRANCH  11  16
ENDBRANCH   1  11
TORSDOF 4
ENDMDL
MODEL 6
REMARK VINA RESULT:      -6.6      4.600      6.089
REMARK  Name = 
REMARK  4 active torsions:
REMARK  status: ('A' for Active; 'I' for Inactive)
REMARK    1  A    between atoms: C_2  and  N_3
REMARK    2  A    between atoms: C_7  and  C_8
REMARK    3  A    between atoms: C_8  and  N_9
REMARK    4  A    between atoms: C_10  and  C_12
REMARK                            x       y       z     vdW  Elec       q    Type
REMARK                         _______ _______ _______ _____ _____    ______ ____
ROOT
ATOM      1  N   UNL     1       1.716   5.195  20.462  0.00  0.00    +0.000 N 
ATOM      2  C   UNL     1       2.663   6.006  19.873  0.00  0.00    +0.000 C 
ATOM      3  O   UNL     1       3.843   5.696  19.765  0.00  0.00    +0.000 OA
ATOM      4  H   UNL     1       0.784   5.545  20.628  0.00  0.00    +0.000 HD
ENDROOT
BRANCH   2   5
ATOM      5  C   UNL     1       2.197   7.342  19.416  0.00  0.00    +0.000 A 
ATOM      6  C   UNL     1       1.479   8.141  20.314  0.00  0.00    +0.000 A 
ATOM      7  C   UNL     1       1.015   9.397  19.925  0.00  0.00    +0.000 A 
ATOM      8  C   UNL     1       1.278   9.862  18.634  0.00  0.00    +0.000 A 
ATOM      9  C   UNL     1       2.008   9.080  17.741  0.00  0.00    +0.000 A 
ATOM     10  C   UNL     1       2.471   7.821  18.129  0.00  0.00    +0.000 A 
ENDBRANCH   2   5
BRANCH   1  11
ATOM     11  C   UNL     1       2.053   3.880  20.984  0.00  0.00    +0.000 C 
BRANCH  11  16
ATOM     12  N   UNL     1       3.390   2.369  19.476  0.00  0.00    +0.000 N 
ATOM     13  C   UNL     1       3.272   1.982  18.054  0.00  0.00    +0.000 C 
ATOM     14  C   UNL     1       2.293   3.005  17.518  0.00  0.00    +0.000 C 
ATOM     15  C   UNL     1       1.277   3.166  18.642  0.00  0.00    +0.000 C 
ATOM     16  C   UNL     1       2.013   2.756  19.933  0.00  0.00    +0.000 C 
BRANCH  12  18
ATOM     17  N   UNL     1       5.236   1.661  20.997  0.00  0.00    +0.000 NA
ATOM     18  C   UNL     1       4.393   2.000  20.280  0.00  0.00    +0.000 C 
ENDBRANCH  12  18
ENDBRANCH  11  16
ENDBRANCH   1  11
TORSDOF 4
ENDMDL
MODEL 7
REMARK VINA RESULT:      -6.6      2.727      6.198
REMARK  Name = 
REMARK  4 active torsions:
REMARK  status: ('A' for Active; 'I' for Inactive)
REMARK    1  A    between atoms: C_2  and  N_3
REMARK    2  A    between atoms: C_7  and  C_8
REMARK    3  A    between atoms: C_8  and  N_9
REMARK    4  A    between atoms: C_10  and  C_12
REMARK                            x       y       z     vdW  Elec       q    Type
REMARK                         _______ _______ _______ _____ _____    ______ ____
ROOT
ATOM      1  N   UNL     1       4.000   5.676  17.128  0.00  0.00    +0.000 N 
ATOM      2  C   UNL     1       3.095   6.066  18.093  0.00  0.00    +0.000 C 
ATOM      3  O   UNL     1       2.984   7.221  18.486  0.00  0.00    +0.000 OA
ATOM      4  H   UNL     1       4.129   4.696  16.923  0.00  0.00    +0.000 HD
ENDROOT
BRANCH   2   5
ATOM      5  C   UNL     1       2.275   4.986  18.704  0.00  0.00    +0.000 A 
ATOM      6  C   UNL     1       1.971   5.072  20.068  0.00  0.00    +0.000 A 
ATOM      7  C   UNL     1       1.213   4.077  20.685  0.00  0.00    +0.000 A 
ATOM      8  C   UNL     1       0.746   2.997  19.933  0.00  0.00    +0.000 A 
ATOM      9  C   UNL     1       1.029   2.915  18.570  0.00  0.00    +0.000 A 
ATOM     10  C   UNL     1       1.791   3.909  17.952  0.00  0.00    +0.000 A 
ENDBRANCH   2   5
BRANCH   1  11
ATOM     11  C   UNL     1       4.886   6.630  16.480  0.00  0.00    +0.000 C 
BRANCH  11  16
ATOM     12  N   UNL     1       6.722   4.911  16.360  0.00  0.00    +0.000 N 
ATOM     13  C   UNL     1       7.812   4.515  17.278  0.00  0.00    +0.000 C 
ATOM     14  C   UNL     1       7.399   5.174  18.577  0.00  0.00    +0.000 C 
ATOM     15  C   UNL     1       6.840   6.523  18.144  0.00  0.00    +0.000 C 
ATOM     16  C   UNL     1       6.384   6.338  16.683  0.00  0.00    +0.000 C 
BRANCH  12  18
ATOM     17  N   UNL     1       6.238   3.743  14.210  0.00  0.00    +0.000 NA
ATOM     18  C   UNL     1       6.445   4.295  15.205  0.00  0.00    +0.000 C 
ENDBRANCH  12  18
ENDBRANCH  11  16
ENDBRANCH   1  11
TORSDOF 4
ENDMDL
MODEL 8
REMARK VINA RESULT:      -6.6      1.349      2.157
REMARK  Name = 
REMARK  4 active torsions:
REMARK  status: ('A' for Active; 'I' for Inactive)
REMARK    1  A    between atoms: C_2  and  N_3
REMARK    2  A    between atoms: C_7  and  C_8
REMARK    3  A    between atoms: C_8  and  N_9
REMARK    4  A    between atoms: C_10  and  C_12
REMARK                            x       y       z     vdW  Elec       q    Type
REMARK                         _______ _______ _______ _____ _____    ______ ____
ROOT
ATOM      1  N   UNL     1       5.029   5.895  16.001  0.00  0.00    +0.000 N 
ATOM      2  C   UNL     1       6.304   5.610  15.560  0.00  0.00    +0.000 C 
ATOM      3  O   UNL     1       7.317   5.966  16.150  0.00  0.00    +0.000 OA
ATOM      4  H   UNL     1       4.233   5.678  15.419  0.00  0.00    +0.000 HD
ENDROOT
BRANCH   2   5
ATOM      5  C   UNL     1       6.410   4.889  14.264  0.00  0.00    +0.000 A 
ATOM      6  C   UNL     1       7.499   5.171  13.431  0.00  0.00    +0.000 A 
ATOM      7  C   UNL     1       7.632   4.524  12.203  0.00  0.00    +0.000 A 
ATOM      8  C   UNL     1       6.678   3.583  11.809  0.00  0.00    +0.000 A 
ATOM      9  C   UNL     1       5.601   3.284  12.642  0.00  0.00    +0.000 A 
ATOM     10  C   UNL     1       5.465   3.933  13.871  0.00  0.00    +0.000 A 
ENDBRANCH   2   5
BRANCH   1  11
ATOM     11  C   UNL     1       4.792   6.628  17.235  0.00  0.00    +0.000 C 
BRANCH  11  16
ATOM     12  N   UNL     1       5.168   4.819  18.947  0.00  0.00    +0.000 N 
ATOM     13  C   UNL     1       4.410   3.612  19.341  0.00  0.00    +0.000 C 
ATOM     14  C   UNL     1       3.424   3.461  18.201  0.00  0.00    +0.000 C 
ATOM     15  C   UNL     1       3.012   4.891  17.878  0.00  0.00    +0.000 C 
ATOM     16  C   UNL     1       4.174   5.781  18.362  0.00  0.00    +0.000 C 
BRANCH  12  18
ATOM     17  N   UNL     1       7.386   5.468  19.886  0.00  0.00    +0.000 NA
ATOM     18  C   UNL     1       6.366   5.153  19.438  0.00  0.00    +0.000 C 
ENDBRANCH  12  18
ENDBRANCH  11  16
ENDBRANCH   1  11
TORSDOF 4
ENDMDL
MODEL 9
REMARK VINA RESULT:      -6.6      3.151      4.473
REMARK  Name = 
REMARK  4 active torsions:
REMARK  status: ('A' for Active; 'I' for Inactive)
REMARK    1  A    between atoms: C_2  and  N_3
REMARK    2  A    between atoms: C_7  and  C_8
REMARK    3  A    between atoms: C_8  and  N_9
REMARK    4  A    between atoms: C_10  and  C_12
REMARK                            x       y       z     vdW  Elec       q    Type
REMARK                         _______ _______ _______ _____ _____    ______ ____
ROOT
ATOM      1  N   UNL     1       4.741   3.290  18.925  0.00  0.00    +0.000 N 
ATOM      2  C   UNL     1       5.038   4.018  17.791  0.00  0.00    +0.000 C 
ATOM      3  O   UNL     1       4.568   3.768  16.688  0.00  0.00    +0.000 OA
ATOM      4  H   UNL     1       5.242   3.466  19.783  0.00  0.00    +0.000 HD
ENDROOT
BRANCH   2   5
ATOM      5  C   UNL     1       6.032   5.112  17.949  0.00  0.00    +0.000 A 
ATOM      6  C   UNL     1       5.944   6.220  17.098  0.00  0.00    +0.000 A 
ATOM      7  C   UNL     1       6.861   7.265  17.206  0.00  0.00    +0.000 A 
ATOM      8  C   UNL     1       7.866   7.207  18.175  0.00  0.00    +0.000 A 
ATOM      9  C   UNL     1       7.947   6.115  19.038  0.00  0.00    +0.000 A 
ATOM     10  C   UNL     1       7.031   5.067  18.929  0.00  0.00    +0.000 A 
ENDBRANCH   2   5
BRANCH   1  11
ATOM     11  C   UNL     1       3.812   2.171  18.894  0.00  0.00    +0.000 C 
BRANCH  11  16
ATOM     12  N   UNL     1       1.829   3.647  19.378  0.00  0.00    +0.000 N 
ATOM     13  C   UNL     1       1.223   4.168  20.622  0.00  0.00    +0.000 C 
ATOM     14  C   UNL     1       2.301   3.892  21.649  0.00  0.00    +0.000 C 
ATOM     15  C   UNL     1       2.851   2.529  21.249  0.00  0.00    +0.000 C 
ATOM     16  C   UNL     1       2.546   2.380  19.746  0.00  0.00    +0.000 C 
BRANCH  12  18
ATOM     17  N   UNL     1       1.041   4.265  17.094  0.00  0.00    +0.000 NA
ATOM     18  C   UNL     1       1.425   3.974  18.145  0.00  0.00    +0.000 C 
ENDBRANCH  12  18
ENDBRANCH  11  16
ENDBRANCH   1  11
TORSDOF 4
ENDMDL
