MODEL 1
REMARK VINA RESULT:      -8.8      0.000      0.000
REMARK  Name = 
REMARK  5 active torsions:
REMARK  status: ('A' for Active; 'I' for Inactive)
REMARK    1  A    between atoms: C_1  and  C_2
REMARK    2  A    between atoms: C_5  and  C_6
REMARK    3  A    between atoms: N_10  and  S_11
REMARK    4  A    between atoms: S_11  and  C_14
REMARK    5  A    between atoms: C_17  and  C_18
REMARK                            x       y       z     vdW  Elec       q    Type
REMARK                         _______ _______ _______ _____ _____    ______ ____
ROOT
ATOM      1  C   UNL     1       7.925   8.207  18.025  0.00  0.00    +0.000 A 
ATOM      2  N   UNL     1       8.286   7.067  18.714  0.00  0.00    +0.000 NA
ATOM      3  C   UNL     1       7.603   6.105  18.134  0.00  0.00    +0.000 A 
ATOM      4  N   UNL     1       7.668   4.794  18.455  0.00  0.00    +0.000 N 
ATOM      5  N   UNL     1       6.813   6.659  17.144  0.00  0.00    +0.000 N 
ATOM      6  N   UNL     1       7.051   7.990  17.035  0.00  0.00    +0.000 NA
ATOM      7  H   UNL     1       8.105   4.564  19.344  0.00  0.00    +0.000 HD
ATOM      8  H   UNL     1       6.886   4.173  18.228  0.00  0.00    +0.000 HD
ENDROOT
BRANCH   1  13
ATOM      9  C   UNL     1      10.028  13.430  19.331  0.00  0.00    +0.000 C 
ATOM     10  C   UNL     1       9.511  12.078  18.937  0.00  0.00    +0.000 A 
ATOM     11  C   UNL     1       8.707  11.898  17.805  0.00  0.00    +0.000 A 
ATOM     12  C   UNL     1       8.200  10.632  17.483  0.00  0.00    +0.000 A 
ATOM     13  C   UNL     1       8.490   9.527  18.292  0.00  0.00    +0.000 A 
ATOM     14  C   UNL     1       9.323   9.711  19.407  0.00  0.00    +0.000 A 
ATOM     15  C   UNL     1       9.826  10.971  19.728  0.00  0.00    +0.000 A 
ENDBRANCH   1  13
BRANCH   5  16
ATOM     16  S   UNL     1       5.916   5.723  16.033  0.00  0.00    +0.000 S 
ATOM     17  O   UNL     1       5.418   6.661  15.037  0.00  0.00    +0.000 OA
ATOM     18  O   UNL     1       6.749   4.594  15.664  0.00  0.00    +0.000 OA
BRANCH  16  19
ATOM     19  C   UNL     1       4.553   5.114  16.984  0.00  0.00    +0.000 A 
ATOM     20  C   UNL     1       4.295   3.742  17.006  0.00  0.00    +0.000 A 
ATOM     21  C   UNL     1       3.192   3.261  17.712  0.00  0.00    +0.000 A 
ATOM     22  C   UNL     1       2.352   4.143  18.403  0.00  0.00    +0.000 A 
ATOM     23  C   UNL     1       1.138   3.635  19.125  0.00  0.00    +0.000 C 
ATOM     24  C   UNL     1       2.647   5.514  18.406  0.00  0.00    +0.000 A 
ATOM     25  C   UNL     1       3.748   6.004  17.701  0.00  0.00    +0.000 A 
ENDBRANCH  16  19
ENDBRANCH   5  16
TORSDOF 3
ENDMDL
MODEL 2
REMARK VINA RESULT:      -8.8      0.121      1.012
REMARK  Name = 
REMARK  5 active torsions:
REMARK  status: ('A' for Active; 'I' for Inactive)
REMARK    1  A    between atoms: C_1  and  C_2
REMARK    2  A    between atoms: C_5  and  C_6
REMARK    3  A    between atoms: N_10  and  S_11
REMARK    4  A    between atoms: S_11  and  C_14
REMARK    5  A    between atoms: C_17  and  C_18
REMARK                            x       y       z     vdW  Elec       q    Type
REMARK                         _______ _______ _______ _____ _____    ______ ____
ROOT
ATOM      1  C   UNL     1       7.927   8.233  18.057  0.00  0.00    +0.000 A 
ATOM      2  N   UNL     1       8.285   7.086  18.736  0.00  0.00    +0.000 NA
ATOM      3  C   UNL     1       7.609   6.130  18.139  0.00  0.00    +0.000 A 
ATOM      4  N   UNL     1       7.674   4.815  18.444  0.00  0.00    +0.000 N 
ATOM      5  N   UNL     1       6.826   6.694  17.149  0.00  0.00    +0.000 N 
ATOM      6  N   UNL     1       7.062   8.026  17.057  0.00  0.00    +0.000 NA
ATOM      7  H   UNL     1       8.105   4.576  19.334  0.00  0.00    +0.000 HD
ATOM      8  H   UNL     1       6.896   4.195  18.204  0.00  0.00    +0.000 HD
ENDROOT
BRANCH   1  13
ATOM      9  C   UNL     1      10.261  13.447  18.941  0.00  0.00    +0.000 C 
ATOM     10  C   UNL     1       9.631  12.097  18.769  0.00  0.00    +0.000 A 
ATOM     11  C   UNL     1       9.941  11.026  19.617  0.00  0.00    +0.000 A 
ATOM     12  C   UNL     1       9.373   9.762  19.407  0.00  0.00    +0.000 A 
ATOM     13  C   UNL     1       8.487   9.552  18.345  0.00  0.00    +0.000 A 
ATOM     14  C   UNL     1       8.157  10.638  17.520  0.00  0.00    +0.000 A 
ATOM     15  C   UNL     1       8.723  11.895  17.727  0.00  0.00    +0.000 A 
ENDBRANCH   1  13
BRANCH   5  16
ATOM     16  S   UNL     1       5.940   5.769  16.019  0.00  0.00    +0.000 S 
ATOM     17  O   UNL     1       5.445   6.718  15.033  0.00  0.00    +0.000 OA
ATOM     18  O   UNL     1       6.781   4.648  15.640  0.00  0.00    +0.000 OA
BRANCH  16  19
ATOM     19  C   UNL     1       4.574   5.141  16.953  0.00  0.00    +0.000 A 
ATOM     20  C   UNL     1       4.315   3.769  16.945  0.00  0.00    +0.000 A 
ATOM     21  C   UNL     1       3.210   3.274  17.639  0.00  0.00    +0.000 A 
ATOM     22  C   UNL     1       2.368   4.142  18.345  0.00  0.00    +0.000 A 
ATOM     23  C   UNL     1       1.152   3.620  19.052  0.00  0.00    +0.000 C 
ATOM     24  C   UNL     1       2.664   5.513  18.377  0.00  0.00    +0.000 A 
ATOM     25  C   UNL     1       3.767   6.016  17.685  0.00  0.00    +0.000 A 
ENDBRANCH  16  19
ENDBRANCH   5  16
TORSDOF 3
ENDMDL
MODEL 3
REMARK VINA RESULT:      -8.8      0.169      1.021
REMARK  Name = 
REMARK  5 active torsions:
REMARK  status: ('A' for Active; 'I' for Inactive)
REMARK    1  A    between atoms: C_1  and  C_2
REMARK    2  A    between atoms: C_5  and  C_6
REMARK    3  A    between atoms: N_10  and  S_11
REMARK    4  A    between atoms: S_11  and  C_14
REMARK    5  A    between atoms: C_17  and  C_18
REMARK                            x       y       z     vdW  Elec       q    Type
REMARK                         _______ _______ _______ _____ _____    ______ ____
ROOT
ATOM      1  C   UNL     1       7.902   8.203  18.022  0.00  0.00    +0.000 A 
ATOM      2  N   UNL     1       8.274   7.058  18.696  0.00  0.00    +0.000 NA
ATOM      3  C   UNL     1       7.573   6.103  18.127  0.00  0.00    +0.000 A 
ATOM      4  N   UNL     1       7.639   4.789  18.439  0.00  0.00    +0.000 N 
ATOM      5  N   UNL     1       6.762   6.666  17.160  0.00  0.00    +0.000 N 
ATOM      6  N   UNL     1       7.003   7.997  17.053  0.00  0.00    +0.000 NA
ATOM      7  H   UNL     1       8.097   4.552  19.315  0.00  0.00    +0.000 HD
ATOM      8  H   UNL     1       6.849   4.173  18.228  0.00  0.00    +0.000 HD
ENDROOT
BRANCH   1  13
ATOM      9  C   UNL     1      10.058  13.411  19.304  0.00  0.00    +0.000 C 
ATOM     10  C   UNL     1       9.527  12.063  18.916  0.00  0.00    +0.000 A 
ATOM     11  C   UNL     1       8.709  11.888  17.793  0.00  0.00    +0.000 A 
ATOM     12  C   UNL     1       8.190  10.626  17.477  0.00  0.00    +0.000 A 
ATOM     13  C   UNL     1       8.480   9.520  18.283  0.00  0.00    +0.000 A 
ATOM     14  C   UNL     1       9.326   9.697  19.389  0.00  0.00    +0.000 A 
ATOM     15  C   UNL     1       9.842  10.953  19.704  0.00  0.00    +0.000 A 
ENDBRANCH   1  13
BRANCH   5  16
ATOM     16  S   UNL     1       5.833   5.741  16.066  0.00  0.00    +0.000 S 
ATOM     17  O   UNL     1       5.377   6.674  15.046  0.00  0.00    +0.000 OA
ATOM     18  O   UNL     1       6.622   4.571  15.728  0.00  0.00    +0.000 OA
BRANCH  16  19
ATOM     19  C   UNL     1       4.443   5.208  17.024  0.00  0.00    +0.000 A 
ATOM     20  C   UNL     1       3.759   6.137  17.810  0.00  0.00    +0.000 A 
ATOM     21  C   UNL     1       2.694   5.712  18.606  0.00  0.00    +0.000 A 
ATOM     22  C   UNL     1       2.306   4.367  18.613  0.00  0.00    +0.000 A 
ATOM     23  C   UNL     1       1.193   3.898  19.503  0.00  0.00    +0.000 C 
ATOM     24  C   UNL     1       2.977   3.453  17.788  0.00  0.00    +0.000 A 
ATOM     25  C   UNL     1       4.043   3.869  16.989  0.00  0.00    +0.000 A 
ENDBRANCH  16  19
ENDBRANCH   5  16
TORSDOF 3
ENDMDL
MODEL 4
REMARK VINA RESULT:      -8.8      0.188      1.436
REMARK  Name = 
REMARK  5 active torsions:
REMARK  status: ('A' for Active; 'I' for Inactive)
REMARK    1  A    between atoms: C_1  and  C_2
REMARK    2  A    between atoms: C_5  and  C_6
REMARK    3  A    between atoms: N_10  and  S_11
REMARK    4  A    between atoms: S_11  and  C_14
REMARK    5  A    between atoms: C_17  and  C_18
REMARK                            x       y       z     vdW  Elec       q    Type
REMARK                         _______ _______ _______ _____ _____    ______ ____
ROOT
ATOM      1  C   UNL     1       7.906   8.228  18.056  0.00  0.00    +0.000 A 
ATOM      2  N   UNL     1       8.281   7.077  18.718  0.00  0.00    +0.000 NA
ATOM      3  C   UNL     1       7.589   6.125  18.134  0.00  0.00    +0.000 A 
ATOM      4  N   UNL     1       7.662   4.808  18.430  0.00  0.00    +0.000 N 
ATOM      5  N   UNL     1       6.781   6.694  17.169  0.00  0.00    +0.000 N 
ATOM      6  N   UNL     1       7.014   8.027  17.078  0.00  0.00    +0.000 NA
ATOM      7  H   UNL     1       8.116   4.564  19.307  0.00  0.00    +0.000 HD
ATOM      8  H   UNL     1       6.877   4.189  18.207  0.00  0.00    +0.000 HD
ENDROOT
BRANCH   1  13
ATOM      9  C   UNL     1      10.267  13.435  18.908  0.00  0.00    +0.000 C 
ATOM     10  C   UNL     1       9.631  12.086  18.744  0.00  0.00    +0.000 A 
ATOM     11  C   UNL     1       9.950  11.014  19.587  0.00  0.00    +0.000 A 
ATOM     12  C   UNL     1       9.376   9.752  19.385  0.00  0.00    +0.000 A 
ATOM     13  C   UNL     1       8.473   9.545  18.336  0.00  0.00    +0.000 A 
ATOM     14  C   UNL     1       8.134  10.633  17.517  0.00  0.00    +0.000 A 
ATOM     15  C   UNL     1       8.707  11.888  17.715  0.00  0.00    +0.000 A 
ENDBRANCH   1  13
BRANCH   5  16
ATOM     16  S   UNL     1       5.864   5.776  16.058  0.00  0.00    +0.000 S 
ATOM     17  O   UNL     1       5.405   6.719  15.048  0.00  0.00    +0.000 OA
ATOM     18  O   UNL     1       6.665   4.617  15.707  0.00  0.00    +0.000 OA
BRANCH  16  19
ATOM     19  C   UNL     1       4.474   5.219  17.002  0.00  0.00    +0.000 A 
ATOM     20  C   UNL     1       3.762   6.137  17.776  0.00  0.00    +0.000 A 
ATOM     21  C   UNL     1       2.697   5.694  18.561  0.00  0.00    +0.000 A 
ATOM     22  C   UNL     1       2.337   4.341  18.570  0.00  0.00    +0.000 A 
ATOM     23  C   UNL     1       1.223   3.853  19.450  0.00  0.00    +0.000 C 
ATOM     24  C   UNL     1       3.036   3.437  17.757  0.00  0.00    +0.000 A 
ATOM     25  C   UNL     1       4.103   3.872  16.969  0.00  0.00    +0.000 A 
ENDBRANCH  16  19
ENDBRANCH   5  16
TORSDOF 3
ENDMDL
MODEL 5
REMARK VINA RESULT:      -8.5      0.990      1.046
REMARK  Name = 
REMARK  5 active torsions:
REMARK  status: ('A' for Active; 'I' for Inactive)
REMARK    1  A    between atoms: C_1  and  C_2
REMARK    2  A    between atoms: C_5  and  C_6
REMARK    3  A    between atoms: N_10  and  S_11
REMARK    4  A    between atoms: S_11  and  C_14
REMARK    5  A    between atoms: C_17  and  C_18
REMARK                            x       y       z     vdW  Elec       q    Type
REMARK                         _______ _______ _______ _____ _____    ______ ____
ROOT
ATOM      1  C   UNL     1       8.301   8.508  18.246  0.00  0.00    +0.000 A 
ATOM      2  N   UNL     1       8.519   7.653  19.307  0.00  0.00    +0.000 NA
ATOM      3  C   UNL     1       8.113   6.482  18.869  0.00  0.00    +0.000 A 
ATOM      4  N   UNL     1       8.173   5.323  19.562  0.00  0.00    +0.000 N 
ATOM      5  N   UNL     1       7.621   6.635  17.588  0.00  0.00    +0.000 N 
ATOM      6  N   UNL     1       7.784   7.913  17.164  0.00  0.00    +0.000 NA
ATOM      7  H   UNL     1       8.338   5.399  20.563  0.00  0.00    +0.000 HD
ATOM      8  H   UNL     1       7.543   4.552  19.324  0.00  0.00    +0.000 HD
ENDROOT
BRANCH   1  13
ATOM      9  C   UNL     1       9.660  14.117  18.572  0.00  0.00    +0.000 C 
ATOM     10  C   UNL     1       9.322  12.663  18.427  0.00  0.00    +0.000 A 
ATOM     11  C   UNL     1       8.333  12.221  17.540  0.00  0.00    +0.000 A 
ATOM     12  C   UNL     1       8.005  10.862  17.455  0.00  0.00    +0.000 A 
ATOM     13  C   UNL     1       8.662   9.924  18.260  0.00  0.00    +0.000 A 
ATOM     14  C   UNL     1       9.675  10.372  19.122  0.00  0.00    +0.000 A 
ATOM     15  C   UNL     1      10.000  11.724  19.208  0.00  0.00    +0.000 A 
ENDBRANCH   1  13
BRANCH   5  16
ATOM     16  S   UNL     1       7.169   5.319  16.598  0.00  0.00    +0.000 S 
ATOM     17  O   UNL     1       7.212   5.818  15.231  0.00  0.00    +0.000 OA
ATOM     18  O   UNL     1       7.969   4.183  17.017  0.00  0.00    +0.000 OA
BRANCH  16  19
ATOM     19  C   UNL     1       5.486   5.001  17.044  0.00  0.00    +0.000 A 
ATOM     20  C   UNL     1       4.916   3.767  16.722  0.00  0.00    +0.000 A 
ATOM     21  C   UNL     1       3.575   3.530  17.026  0.00  0.00    +0.000 A 
ATOM     22  C   UNL     1       2.805   4.515  17.656  0.00  0.00    +0.000 A 
ATOM     23  C   UNL     1       1.350   4.281  17.942  0.00  0.00    +0.000 C 
ATOM     24  C   UNL     1       3.402   5.734  18.009  0.00  0.00    +0.000 A 
ATOM     25  C   UNL     1       4.743   5.980  17.708  0.00  0.00    +0.000 A 
ENDBRANCH  16  19
ENDBRANCH   5  16
TORSDOF 3
ENDMDL
MODEL 6
REMARK VINA RESULT:      -8.4      4.527      5.910
REMARK  Name = 
REMARK  5 active torsions:
REMARK  status: ('A' for Active; 'I' for Inactive)
REMARK    1  A    between atoms: C_1  and  C_2
REMARK    2  A    between atoms: C_5  and  C_6
REMARK    3  A    between atoms: N_10  and  S_11
REMARK    4  A    between atoms: S_11  and  C_14
REMARK    5  A    between atoms: C_17  and  C_18
REMARK                            x       y       z     vdW  Elec       q    Type
REMARK                         _______ _______ _______ _____ _____    ______ ____
ROOT
ATOM      1  C   UNL     1       3.833   6.607  18.385  0.00  0.00    +0.000 A 
ATOM      2  N   UNL     1       4.023   5.416  19.054  0.00  0.00    +0.000 NA
ATOM      3  C   UNL     1       5.117   4.916  18.526  0.00  0.00    +0.000 A 
ATOM      4  N   UNL     1       5.713   3.762  18.901  0.00  0.00    +0.000 N 
ATOM      5  N   UNL     1       5.555   5.766  17.528  0.00  0.00    +0.000 N 
ATOM      6  N   UNL     1       4.771   6.871  17.466  0.00  0.00    +0.000 NA
ATOM      7  H   UNL     1       5.161   3.132  19.477  0.00  0.00    +0.000 HD
ATOM      8  H   UNL     1       6.323   3.265  18.247  0.00  0.00    +0.000 HD
ENDROOT
BRANCH   1  13
ATOM      9  C   UNL     1      -0.266  10.519  19.528  0.00  0.00    +0.000 C 
ATOM     10  C   UNL     1       0.756   9.459  19.244  0.00  0.00    +0.000 A 
ATOM     11  C   UNL     1       1.150   8.535  20.221  0.00  0.00    +0.000 A 
ATOM     12  C   UNL     1       2.140   7.583  19.945  0.00  0.00    +0.000 A 
ATOM     13  C   UNL     1       2.752   7.542  18.686  0.00  0.00    +0.000 A 
ATOM     14  C   UNL     1       2.328   8.451  17.704  0.00  0.00    +0.000 A 
ATOM     15  C   UNL     1       1.345   9.400  17.979  0.00  0.00    +0.000 A 
ENDBRANCH   1  13
BRANCH   5  16
ATOM     16  S   UNL     1       7.049   5.571  16.724  0.00  0.00    +0.000 S 
ATOM     17  O   UNL     1       7.551   6.917  16.489  0.00  0.00    +0.000 OA
ATOM     18  O   UNL     1       7.812   4.598  17.484  0.00  0.00    +0.000 OA
BRANCH  16  19
ATOM     19  C   UNL     1       6.612   4.838  15.173  0.00  0.00    +0.000 A 
ATOM     20  C   UNL     1       5.415   4.126  15.068  0.00  0.00    +0.000 A 
ATOM     21  C   UNL     1       5.091   3.504  13.862  0.00  0.00    +0.000 A 
ATOM     22  C   UNL     1       5.951   3.597  12.761  0.00  0.00    +0.000 A 
ATOM     23  C   UNL     1       5.628   2.889  11.477  0.00  0.00    +0.000 C 
ATOM     24  C   UNL     1       7.130   4.349  12.870  0.00  0.00    +0.000 A 
ATOM     25  C   UNL     1       7.462   4.974  14.073  0.00  0.00    +0.000 A 
ENDBRANCH  16  19
ENDBRANCH   5  16
TORSDOF 3
ENDMDL
MODEL 7
REMARK VINA RESULT:      -8.2      4.507      5.869
REMARK  Name = 
REMARK  5 active torsions:
REMARK  status: ('A' for Active; 'I' for Inactive)
REMARK    1  A    between atoms: C_1  and  C_2
REMARK    2  A    between atoms: C_5  and  C_6
REMARK    3  A    between atoms: N_10  and  S_11
REMARK    4  A    between atoms: S_11  and  C_14
REMARK    5  A    between atoms: C_17  and  C_18
REMARK                            x       y       z     vdW  Elec       q    Type
REMARK                         _______ _______ _______ _____ _____    ______ ____
ROOT
ATOM      1  C   UNL     1       3.842   6.664  18.342  0.00  0.00    +0.000 A 
ATOM      2  N   UNL     1       3.991   5.461  19.001  0.00  0.00    +0.000 NA
ATOM      3  C   UNL     1       5.074   4.934  18.477  0.00  0.00    +0.000 A 
ATOM      4  N   UNL     1       5.632   3.759  18.846  0.00  0.00    +0.000 N 
ATOM      5  N   UNL     1       5.545   5.780  17.491  0.00  0.00    +0.000 N 
ATOM      6  N   UNL     1       4.794   6.909  17.434  0.00  0.00    +0.000 NA
ATOM      7  H   UNL     1       5.057   3.141  19.412  0.00  0.00    +0.000 HD
ATOM      8  H   UNL     1       6.233   3.251  18.191  0.00  0.00    +0.000 HD
ENDROOT
BRANCH   1  13
ATOM      9  C   UNL     1      -0.507  10.264  19.582  0.00  0.00    +0.000 C 
ATOM     10  C   UNL     1       0.657   9.380  19.250  0.00  0.00    +0.000 A 
ATOM     11  C   UNL     1       1.288   9.429  18.000  0.00  0.00    +0.000 A 
ATOM     12  C   UNL     1       2.345   8.561  17.699  0.00  0.00    +0.000 A 
ATOM     13  C   UNL     1       2.787   7.629  18.645  0.00  0.00    +0.000 A 
ATOM     14  C   UNL     1       2.171   7.607  19.905  0.00  0.00    +0.000 A 
ATOM     15  C   UNL     1       1.117   8.470  20.205  0.00  0.00    +0.000 A 
ENDBRANCH   1  13
BRANCH   5  16
ATOM     16  S   UNL     1       7.039   5.549  16.697  0.00  0.00    +0.000 S 
ATOM     17  O   UNL     1       7.571   6.882  16.457  0.00  0.00    +0.000 OA
ATOM     18  O   UNL     1       7.776   4.563  17.466  0.00  0.00    +0.000 OA
BRANCH  16  19
ATOM     19  C   UNL     1       6.595   4.816  15.148  0.00  0.00    +0.000 A 
ATOM     20  C   UNL     1       5.403   4.095  15.050  0.00  0.00    +0.000 A 
ATOM     21  C   UNL     1       5.073   3.473  13.845  0.00  0.00    +0.000 A 
ATOM     22  C   UNL     1       5.923   3.575  12.737  0.00  0.00    +0.000 A 
ATOM     23  C   UNL     1       5.596   2.869  11.455  0.00  0.00    +0.000 C 
ATOM     24  C   UNL     1       7.097   4.337  12.839  0.00  0.00    +0.000 A 
ATOM     25  C   UNL     1       7.435   4.962  14.040  0.00  0.00    +0.000 A 
ENDBRANCH  16  19
ENDBRANCH   5  16
TORSDOF 3
ENDMDL
MODEL 8
REMARK VINA RESULT:      -8.2      4.559      5.909
REMARK  Name = 
REMARK  5 active torsions:
REMARK  status: ('A' for Active; 'I' for Inactive)
REMARK    1  A    between atoms: C_1  and  C_2
REMARK    2  A    between atoms: C_5  and  C_6
REMARK    3  A    between atoms: N_10  and  S_11
REMARK    4  A    between atoms: S_11  and  C_14
REMARK    5  A    between atoms: C_17  and  C_18
REMARK                            x       y       z     vdW  Elec       q    Type
REMARK                         _______ _______ _______ _____ _____    ______ ____
ROOT
ATOM      1  C   UNL     1       3.777   6.614  18.467  0.00  0.00    +0.000 A 
ATOM      2  N   UNL     1       3.930   5.423  19.147  0.00  0.00    +0.000 NA
ATOM      3  C   UNL     1       5.029   4.903  18.649  0.00  0.00    +0.000 A 
ATOM      4  N   UNL     1       5.596   3.741  19.044  0.00  0.00    +0.000 N 
ATOM      5  N   UNL     1       5.506   5.741  17.659  0.00  0.00    +0.000 N 
ATOM      6  N   UNL     1       4.741   6.858  17.572  0.00  0.00    +0.000 NA
ATOM      7  H   UNL     1       5.019   3.123  19.609  0.00  0.00    +0.000 HD
ATOM      8  H   UNL     1       6.215   3.232  18.408  0.00  0.00    +0.000 HD
ENDROOT
BRANCH   1  13
ATOM      9  C   UNL     1      -0.289  10.597  19.479  0.00  0.00    +0.000 C 
ATOM     10  C   UNL     1       0.725   9.520  19.231  0.00  0.00    +0.000 A 
ATOM     11  C   UNL     1       1.108   8.623  20.236  0.00  0.00    +0.000 A 
ATOM     12  C   UNL     1       2.089   7.653  19.992  0.00  0.00    +0.000 A 
ATOM     13  C   UNL     1       2.704   7.569  18.737  0.00  0.00    +0.000 A 
ATOM     14  C   UNL     1       2.291   8.450  17.727  0.00  0.00    +0.000 A 
ATOM     15  C   UNL     1       1.316   9.416  17.969  0.00  0.00    +0.000 A 
ENDBRANCH   1  13
BRANCH   5  16
ATOM     16  S   UNL     1       7.016   5.518  16.894  0.00  0.00    +0.000 S 
ATOM     17  O   UNL     1       7.537   6.855  16.648  0.00  0.00    +0.000 OA
ATOM     18  O   UNL     1       7.751   4.550  17.687  0.00  0.00    +0.000 OA
BRANCH  16  19
ATOM     19  C   UNL     1       6.609   4.764  15.346  0.00  0.00    +0.000 A 
ATOM     20  C   UNL     1       7.443   4.971  14.245  0.00  0.00    +0.000 A 
ATOM     21  C   UNL     1       7.100   4.420  13.010  0.00  0.00    +0.000 A 
ATOM     22  C   UNL     1       5.933   3.658  12.871  0.00  0.00    +0.000 A 
ATOM     23  C   UNL     1       5.535   3.104  11.535  0.00  0.00    +0.000 C 
ATOM     24  C   UNL     1       5.126   3.426  13.995  0.00  0.00    +0.000 A 
ATOM     25  C   UNL     1       5.462   3.973  15.235  0.00  0.00    +0.000 A 
ENDBRANCH  16  19
ENDBRANCH   5  16
TORSDOF 3
ENDMDL
MODEL 9
REMARK VINA RESULT:      -8.1      4.971      6.216
REMARK  Name = 
REMARK  5 active torsions:
REMARK  status: ('A' for Active; 'I' for Inactive)
REMARK    1  A    between atoms: C_1  and  C_2
REMARK    2  A    between atoms: C_5  and  C_6
REMARK    3  A    between atoms: N_10  and  S_11
REMARK    4  A    between atoms: S_11  and  C_14
REMARK    5  A    between atoms: C_17  and  C_18
REMARK                            x       y       z     vdW  Elec       q    Type
REMARK                         _______ _______ _______ _____ _____    ______ ____
ROOT
ATOM      1  C   UNL     1       2.288   6.322  19.733  0.00  0.00    +0.000 A 
ATOM      2  N   UNL     1       1.844   5.582  20.810  0.00  0.00    +0.000 NA
ATOM      3  C   UNL     1       2.433   4.416  20.669  0.00  0.00    +0.000 A 
ATOM      4  N   UNL     1       2.322   3.373  21.523  0.00  0.00    +0.000 N 
ATOM      5  N   UNL     1       3.182   4.436  19.508  0.00  0.00    +0.000 N 
ATOM      6  N   UNL     1       3.136   5.663  18.933  0.00  0.00    +0.000 NA
ATOM      7  H   UNL     1       1.564   3.418  22.199  0.00  0.00    +0.000 HD
ATOM      8  H   UNL     1       2.500   2.421  21.193  0.00  0.00    +0.000 HD
ENDROOT
BRANCH   1  13
ATOM      9  C   UNL     1       0.612  11.791  18.903  0.00  0.00    +0.000 C 
ATOM     10  C   UNL     1       1.105  10.389  19.104  0.00  0.00    +0.000 A 
ATOM     11  C   UNL     1       1.729   9.672  18.076  0.00  0.00    +0.000 A 
ATOM     12  C   UNL     1       2.141   8.348  18.276  0.00  0.00    +0.000 A 
ATOM     13  C   UNL     1       1.932   7.721  19.510  0.00  0.00    +0.000 A 
ATOM     14  C   UNL     1       1.335   8.457  20.545  0.00  0.00    +0.000 A 
ATOM     15  C   UNL     1       0.924   9.774  20.346  0.00  0.00    +0.000 A 
ENDBRANCH   1  13
BRANCH   5  16
ATOM     16  S   UNL     1       4.247   3.178  19.063  0.00  0.00    +0.000 S 
ATOM     17  O   UNL     1       5.175   3.031  20.175  0.00  0.00    +0.000 OA
ATOM     18  O   UNL     1       3.425   2.071  18.608  0.00  0.00    +0.000 OA
BRANCH  16  19
ATOM     19  C   UNL     1       5.119   3.826  17.665  0.00  0.00    +0.000 A 
ATOM     20  C   UNL     1       4.529   3.758  16.401  0.00  0.00    +0.000 A 
ATOM     21  C   UNL     1       5.233   4.221  15.289  0.00  0.00    +0.000 A 
ATOM     22  C   UNL     1       6.518   4.758  15.435  0.00  0.00    +0.000 A 
ATOM     23  C   UNL     1       7.297   5.213  14.235  0.00  0.00    +0.000 C 
ATOM     24  C   UNL     1       7.081   4.856  16.715  0.00  0.00    +0.000 A 
ATOM     25  C   UNL     1       6.384   4.395  17.834  0.00  0.00    +0.000 A 
ENDBRANCH  16  19
ENDBRANCH   5  16
TORSDOF 3
ENDMDL
