MODEL 1
REMARK VINA RESULT:      -7.5      0.000      0.000
REMARK  Name = 
REMARK  9 active torsions:
REMARK  status: ('A' for Active; 'I' for Inactive)
REMARK    1  A    between atoms: C_1  and  C_2
REMARK    2  A    between atoms: C_2  and  C_3
REMARK    3  A    between atoms: C_8  and  N_9
REMARK    4  A    between atoms: C_10  and  C_12
REMARK    5  A    between atoms: C_17  and  C_18
REMARK    6  A    between atoms: N_20  and  C_21
REMARK    7  A    between atoms: N_20  and  C_23
REMARK    8  A    between atoms: C_21  and  C_22
REMARK    9  A    between atoms: C_23  and  C_24
REMARK                            x       y       z     vdW  Elec       q    Type
REMARK                         _______ _______ _______ _____ _____    ______ ____
ROOT
ATOM      1  C   UNL     1       5.830   4.343  16.368  0.00  0.00    +0.000 C 
ATOM      2  C   UNL     1       5.504   5.321  15.223  0.00  0.00    +0.000 C 
ATOM      3  C   UNL     1       5.076   6.696  15.729  0.00  0.00    +0.000 C 
ATOM      4  C   UNL     1       4.201   6.588  16.940  0.00  0.00    +0.000 A 
ATOM      5  S   UNL     1       3.492   7.978  17.547  0.00  0.00    +0.000 S 
ATOM      6  C   UNL     1       2.778   7.154  18.837  0.00  0.00    +0.000 A 
ATOM      7  C   UNL     1       3.020   5.762  18.827  0.00  0.00    +0.000 A 
ATOM      8  C   UNL     1       3.935   5.458  17.702  0.00  0.00    +0.000 A 
ATOM      9  C   UNL     1       4.583   4.164  17.278  0.00  0.00    +0.000 C 
ENDROOT
BRANCH   6  10
ATOM     10  N   UNL     1       2.018   7.886  19.756  0.00  0.00    +0.000 N 
ATOM     11  C   UNL     1       1.194   8.984  19.502  0.00  0.00    +0.000 C 
ATOM     12  O   UNL     1       1.049   9.527  18.410  0.00  0.00    +0.000 OA
ATOM     13  H   UNL     1       2.122   7.599  20.726  0.00  0.00    +0.000 HD
BRANCH  11  14
ATOM     14  C   UNL     1       0.452   9.491  20.656  0.00  0.00    +0.000 A 
ATOM     15  C   UNL     1       0.342   8.864  21.888  0.00  0.00    +0.000 A 
ATOM     16  C   UNL     1      -0.412   9.620  22.830  0.00  0.00    +0.000 A 
ATOM     17  C   UNL     1      -0.863  10.801  22.287  0.00  0.00    +0.000 A 
ATOM     18  S   UNL     1      -0.381  10.987  20.655  0.00  0.00    +0.000 S 
ENDBRANCH  11  14
ENDBRANCH   6  10
BRANCH   7  19
ATOM     19  C   UNL     1       2.410   4.944  19.930  0.00  0.00    +0.000 C 
ATOM     20  O   UNL     1       2.552   5.364  21.087  0.00  0.00    +0.000 OA
ATOM     21  N   UNL     1       1.618   3.786  19.755  0.00  0.00    +0.000 N 
BRANCH  21  22
ATOM     22  C   UNL     1       1.228   3.136  18.510  0.00  0.00    +0.000 C 
ATOM     23  C   UNL     1       2.134   2.011  18.056  0.00  0.00    +0.000 C 
ENDBRANCH  21  22
BRANCH  21  24
ATOM     24  C   UNL     1       1.074   3.146  20.971  0.00  0.00    +0.000 C 
ATOM     25  C   UNL     1       2.121   2.348  21.740  0.00  0.00    +0.000 C 
ENDBRANCH  21  24
ENDBRANCH   7  19
BRANCH   1  27
ATOM     26  C   UNL     1       6.808   4.741  18.705  0.00  0.00    +0.000 C 
ATOM     27  C   UNL     1       7.062   4.741  17.204  0.00  0.00    +0.000 C 
ENDBRANCH   1  27
TORSDOF 6
ENDMDL
MODEL 2
REMARK VINA RESULT:      -6.6      1.742      2.069
REMARK  Name = 
REMARK  9 active torsions:
REMARK  status: ('A' for Active; 'I' for Inactive)
REMARK    1  A    between atoms: C_1  and  C_2
REMARK    2  A    between atoms: C_2  and  C_3
REMARK    3  A    between atoms: C_8  and  N_9
REMARK    4  A    between atoms: C_10  and  C_12
REMARK    5  A    between atoms: C_17  and  C_18
REMARK    6  A    between atoms: N_20  and  C_21
REMARK    7  A    between atoms: N_20  and  C_23
REMARK    8  A    between atoms: C_21  and  C_22
REMARK    9  A    between atoms: C_23  and  C_24
REMARK                            x       y       z     vdW  Elec       q    Type
REMARK                         _______ _______ _______ _____ _____    ______ ____
ROOT
ATOM      1  C   UNL     1       7.043   4.719  18.198  0.00  0.00    +0.000 C 
ATOM      2  C   UNL     1       7.203   5.207  16.745  0.00  0.00    +0.000 C 
ATOM      3  C   UNL     1       6.455   6.510  16.478  0.00  0.00    +0.000 C 
ATOM      4  C   UNL     1       5.127   6.534  17.171  0.00  0.00    +0.000 A 
ATOM      5  S   UNL     1       4.083   7.808  16.868  0.00  0.00    +0.000 S 
ATOM      6  C   UNL     1       2.929   7.235  17.960  0.00  0.00    +0.000 A 
ATOM      7  C   UNL     1       3.282   6.011  18.571  0.00  0.00    +0.000 A 
ATOM      8  C   UNL     1       4.644   5.642  18.120  0.00  0.00    +0.000 A 
ATOM      9  C   UNL     1       5.538   4.494  18.514  0.00  0.00    +0.000 C 
ENDROOT
BRANCH   6  10
ATOM     10  N   UNL     1       1.758   7.978  18.143  0.00  0.00    +0.000 N 
ATOM     11  C   UNL     1       1.621   9.368  18.160  0.00  0.00    +0.000 C 
ATOM     12  O   UNL     1       2.543  10.175  18.068  0.00  0.00    +0.000 OA
ATOM     13  H   UNL     1       0.923   7.428  18.329  0.00  0.00    +0.000 HD
BRANCH  11  14
ATOM     14  C   UNL     1       0.250   9.861  18.285  0.00  0.00    +0.000 A 
ATOM     15  C   UNL     1      -0.811   9.526  17.457  0.00  0.00    +0.000 A 
ATOM     16  C   UNL     1      -2.037  10.132  17.854  0.00  0.00    +0.000 A 
ATOM     17  C   UNL     1      -1.876  10.918  18.972  0.00  0.00    +0.000 A 
ATOM     18  S   UNL     1      -0.257  10.925  19.528  0.00  0.00    +0.000 S 
ENDBRANCH  11  14
ENDBRANCH   6  10
BRANCH   7  19
ATOM     19  C   UNL     1       2.307   5.417  19.547  0.00  0.00    +0.000 C 
ATOM     20  O   UNL     1       2.040   6.086  20.555  0.00  0.00    +0.000 OA
ATOM     21  N   UNL     1       1.604   4.202  19.374  0.00  0.00    +0.000 N 
BRANCH  21  22
ATOM     22  C   UNL     1       1.664   3.274  18.251  0.00  0.00    +0.000 C 
ATOM     23  C   UNL     1       2.758   2.231  18.332  0.00  0.00    +0.000 C 
ENDBRANCH  21  22
BRANCH  21  24
ATOM     24  C   UNL     1       0.654   3.810  20.436  0.00  0.00    +0.000 C 
ATOM     25  C   UNL     1       1.256   2.830  21.438  0.00  0.00    +0.000 C 
ENDBRANCH  21  24
ENDBRANCH   7  19
BRANCH   1  27
ATOM     26  C   UNL     1       8.232   6.942  18.666  0.00  0.00    +0.000 C 
ATOM     27  C   UNL     1       7.689   5.644  19.248  0.00  0.00    +0.000 C 
ENDBRANCH   1  27
TORSDOF 6
ENDMDL
MODEL 3
REMARK VINA RESULT:      -6.6      1.353      1.537
REMARK  Name = 
REMARK  9 active torsions:
REMARK  status: ('A' for Active; 'I' for Inactive)
REMARK    1  A    between atoms: C_1  and  C_2
REMARK    2  A    between atoms: C_2  and  C_3
REMARK    3  A    between atoms: C_8  and  N_9
REMARK    4  A    between atoms: C_10  and  C_12
REMARK    5  A    between atoms: C_17  and  C_18
REMARK    6  A    between atoms: N_20  and  C_21
REMARK    7  A    between atoms: N_20  and  C_23
REMARK    8  A    between atoms: C_21  and  C_22
REMARK    9  A    between atoms: C_23  and  C_24
REMARK                            x       y       z     vdW  Elec       q    Type
REMARK                         _______ _______ _______ _____ _____    ______ ____
ROOT
ATOM      1  C   UNL     1       6.555   4.221  17.011  0.00  0.00    +0.000 C 
ATOM      2  C   UNL     1       6.385   4.769  15.581  0.00  0.00    +0.000 C 
ATOM      3  C   UNL     1       5.775   6.167  15.557  0.00  0.00    +0.000 C 
ATOM      4  C   UNL     1       4.695   6.314  16.585  0.00  0.00    +0.000 A 
ATOM      5  S   UNL     1       3.788   7.722  16.606  0.00  0.00    +0.000 S 
ATOM      6  C   UNL     1       2.901   7.232  17.957  0.00  0.00    +0.000 A 
ATOM      7  C   UNL     1       3.237   5.941  18.421  0.00  0.00    +0.000 A 
ATOM      8  C   UNL     1       4.368   5.434  17.609  0.00  0.00    +0.000 A 
ATOM      9  C   UNL     1       5.172   4.164  17.719  0.00  0.00    +0.000 C 
ENDROOT
BRANCH   6  10
ATOM     10  N   UNL     1       1.931   8.102  18.468  0.00  0.00    +0.000 N 
ATOM     11  C   UNL     1       1.795   9.469  18.222  0.00  0.00    +0.000 C 
ATOM     12  O   UNL     1       2.559  10.150  17.543  0.00  0.00    +0.000 OA
ATOM     13  H   UNL     1       1.283   7.682  19.130  0.00  0.00    +0.000 HD
BRANCH  11  14
ATOM     14  C   UNL     1       0.624  10.101  18.831  0.00  0.00    +0.000 A 
ATOM     15  C   UNL     1      -0.661  10.100  18.311  0.00  0.00    +0.000 A 
ATOM     16  C   UNL     1      -1.600  10.763  19.151  0.00  0.00    +0.000 A 
ATOM     17  C   UNL     1      -1.003  11.257  20.288  0.00  0.00    +0.000 A 
ATOM     18  S   UNL     1       0.675  10.926  20.332  0.00  0.00    +0.000 S 
ENDBRANCH  11  14
ENDBRANCH   6  10
BRANCH   7  19
ATOM     19  C   UNL     1       2.486   5.415  19.612  0.00  0.00    +0.000 C 
ATOM     20  O   UNL     1       2.294   6.202  20.550  0.00  0.00    +0.000 OA
ATOM     21  N   UNL     1       1.908   4.129  19.719  0.00  0.00    +0.000 N 
BRANCH  21  22
ATOM     22  C   UNL     1       1.909   3.051  18.738  0.00  0.00    +0.000 C 
ATOM     23  C   UNL     1       0.631   2.243  18.663  0.00  0.00    +0.000 C 
ENDBRANCH  21  22
BRANCH  21  24
ATOM     24  C   UNL     1       1.172   3.818  20.963  0.00  0.00    +0.000 C 
ATOM     25  C   UNL     1       1.939   2.878  21.886  0.00  0.00    +0.000 C 
ENDBRANCH  21  24
ENDBRANCH   7  19
BRANCH   1  27
ATOM     26  C   UNL     1       7.080   5.310  19.272  0.00  0.00    +0.000 C 
ATOM     27  C   UNL     1       7.575   4.997  17.866  0.00  0.00    +0.000 C 
ENDBRANCH   1  27
TORSDOF 6
ENDMDL
MODEL 4
REMARK VINA RESULT:      -6.5      2.240      4.826
REMARK  Name = 
REMARK  9 active torsions:
REMARK  status: ('A' for Active; 'I' for Inactive)
REMARK    1  A    between atoms: C_1  and  C_2
REMARK    2  A    between atoms: C_2  and  C_3
REMARK    3  A    between atoms: C_8  and  N_9
REMARK    4  A    between atoms: C_10  and  C_12
REMARK    5  A    between atoms: C_17  and  C_18
REMARK    6  A    between atoms: N_20  and  C_21
REMARK    7  A    between atoms: N_20  and  C_23
REMARK    8  A    between atoms: C_21  and  C_22
REMARK    9  A    between atoms: C_23  and  C_24
REMARK                            x       y       z     vdW  Elec       q    Type
REMARK                         _______ _______ _______ _____ _____    ______ ____
ROOT
ATOM      1  C   UNL     1       3.290   2.239  19.972  0.00  0.00    +0.000 C 
ATOM      2  C   UNL     1       2.737   2.457  21.394  0.00  0.00    +0.000 C 
ATOM      3  C   UNL     1       1.782   3.644  21.476  0.00  0.00    +0.000 C 
ATOM      4  C   UNL     1       2.255   4.791  20.636  0.00  0.00    +0.000 A 
ATOM      5  S   UNL     1       1.432   6.247  20.722  0.00  0.00    +0.000 S 
ATOM      6  C   UNL     1       2.411   6.968  19.551  0.00  0.00    +0.000 A 
ATOM      7  C   UNL     1       3.444   6.129  19.076  0.00  0.00    +0.000 A 
ATOM      8  C   UNL     1       3.287   4.797  19.706  0.00  0.00    +0.000 A 
ATOM      9  C   UNL     1       4.049   3.512  19.503  0.00  0.00    +0.000 C 
ENDROOT
BRANCH   6  10
ATOM     10  N   UNL     1       2.143   8.291  19.181  0.00  0.00    +0.000 N 
ATOM     11  C   UNL     1       1.235   9.175  19.767  0.00  0.00    +0.000 C 
ATOM     12  O   UNL     1       0.471   8.903  20.689  0.00  0.00    +0.000 OA
ATOM     13  H   UNL     1       2.644   8.618  18.359  0.00  0.00    +0.000 HD
BRANCH  11  14
ATOM     14  C   UNL     1       1.235  10.530  19.216  0.00  0.00    +0.000 A 
ATOM     15  C   UNL     1       2.203  11.064  18.378  0.00  0.00    +0.000 A 
ATOM     16  C   UNL     1       1.909  12.397  17.971  0.00  0.00    +0.000 A 
ATOM     17  C   UNL     1       0.727  12.844  18.515  0.00  0.00    +0.000 A 
ATOM     18  S   UNL     1      -0.013  11.665  19.511  0.00  0.00    +0.000 S 
ENDBRANCH  11  14
ENDBRANCH   6  10
BRANCH   7  19
ATOM     19  C   UNL     1       4.376   6.693  18.041  0.00  0.00    +0.000 C 
ATOM     20  O   UNL     1       3.898   7.505  17.236  0.00  0.00    +0.000 OA
ATOM     21  N   UNL     1       5.765   6.443  17.960  0.00  0.00    +0.000 N 
BRANCH  21  22
ATOM     22  C   UNL     1       6.587   5.607  18.826  0.00  0.00    +0.000 C 
ATOM     23  C   UNL     1       7.543   4.677  18.109  0.00  0.00    +0.000 C 
ENDBRANCH  21  22
BRANCH  21  24
ATOM     24  C   UNL     1       6.516   7.130  16.888  0.00  0.00    +0.000 C 
ATOM     25  C   UNL     1       7.565   8.098  17.426  0.00  0.00    +0.000 C 
ENDBRANCH  21  24
ENDBRANCH   7  19
BRANCH   1  27
ATOM     26  C   UNL     1       2.519   2.320  17.528  0.00  0.00    +0.000 C 
ATOM     27  C   UNL     1       2.225   1.827  18.938  0.00  0.00    +0.000 C 
ENDBRANCH   1  27
TORSDOF 6
ENDMDL
MODEL 5
REMARK VINA RESULT:      -6.4      3.131      6.205
REMARK  Name = 
REMARK  9 active torsions:
REMARK  status: ('A' for Active; 'I' for Inactive)
REMARK    1  A    between atoms: C_1  and  C_2
REMARK    2  A    between atoms: C_2  and  C_3
REMARK    3  A    between atoms: C_8  and  N_9
REMARK    4  A    between atoms: C_10  and  C_12
REMARK    5  A    between atoms: C_17  and  C_18
REMARK    6  A    between atoms: N_20  and  C_21
REMARK    7  A    between atoms: N_20  and  C_23
REMARK    8  A    between atoms: C_21  and  C_22
REMARK    9  A    between atoms: C_23  and  C_24
REMARK                            x       y       z     vdW  Elec       q    Type
REMARK                         _______ _______ _______ _____ _____    ______ ____
ROOT
ATOM      1  C   UNL     1       1.476   2.945  18.199  0.00  0.00    +0.000 C 
ATOM      2  C   UNL     1       2.525   2.043  17.520  0.00  0.00    +0.000 C 
ATOM      3  C   UNL     1       3.955   2.442  17.868  0.00  0.00    +0.000 C 
ATOM      4  C   UNL     1       4.115   3.931  17.915  0.00  0.00    +0.000 A 
ATOM      5  S   UNL     1       5.650   4.571  18.116  0.00  0.00    +0.000 S 
ATOM      6  C   UNL     1       5.079   6.159  18.142  0.00  0.00    +0.000 A 
ATOM      7  C   UNL     1       3.683   6.265  17.951  0.00  0.00    +0.000 A 
ATOM      8  C   UNL     1       3.119   4.897  17.877  0.00  0.00    +0.000 A 
ATOM      9  C   UNL     1       1.692   4.422  17.765  0.00  0.00    +0.000 C 
ENDROOT
BRANCH   6  10
ATOM     10  N   UNL     1       6.001   7.197  18.320  0.00  0.00    +0.000 N 
ATOM     11  C   UNL     1       7.129   7.479  17.547  0.00  0.00    +0.000 C 
ATOM     12  O   UNL     1       7.528   6.808  16.598  0.00  0.00    +0.000 OA
ATOM     13  H   UNL     1       5.842   7.779  19.139  0.00  0.00    +0.000 HD
BRANCH  11  14
ATOM     14  C   UNL     1       7.860   8.688  17.925  0.00  0.00    +0.000 A 
ATOM     15  C   UNL     1       8.898   8.755  18.843  0.00  0.00    +0.000 A 
ATOM     16  C   UNL     1       9.442  10.064  18.971  0.00  0.00    +0.000 A 
ATOM     17  C   UNL     1       8.799  10.963  18.151  0.00  0.00    +0.000 A 
ATOM     18  S   UNL     1       7.549  10.227  17.242  0.00  0.00    +0.000 S 
ENDBRANCH  11  14
ENDBRANCH   6  10
BRANCH   7  19
ATOM     19  C   UNL     1       3.086   7.645  17.943  0.00  0.00    +0.000 C 
ATOM     20  O   UNL     1       3.327   8.357  16.958  0.00  0.00    +0.000 OA
ATOM     21  N   UNL     1       2.207   8.167  18.919  0.00  0.00    +0.000 N 
BRANCH  21  22
ATOM     22  C   UNL     1       1.696   7.516  20.119  0.00  0.00    +0.000 C 
ATOM     23  C   UNL     1       1.349   8.447  21.262  0.00  0.00    +0.000 C 
ENDBRANCH  21  22
BRANCH  21  24
ATOM     24  C   UNL     1       1.695   9.537  18.707  0.00  0.00    +0.000 C 
ATOM     25  C   UNL     1       0.340   9.563  18.009  0.00  0.00    +0.000 C 
ENDBRANCH  21  24
ENDBRANCH   7  19
BRANCH   1  27
ATOM     26  C   UNL     1       0.781   4.012  20.425  0.00  0.00    +0.000 C 
ATOM     27  C   UNL     1       1.444   2.828  19.736  0.00  0.00    +0.000 C 
ENDBRANCH   1  27
TORSDOF 6
ENDMDL
MODEL 6
REMARK VINA RESULT:      -6.2      4.372      7.718
REMARK  Name = 
REMARK  9 active torsions:
REMARK  status: ('A' for Active; 'I' for Inactive)
REMARK    1  A    between atoms: C_1  and  C_2
REMARK    2  A    between atoms: C_2  and  C_3
REMARK    3  A    between atoms: C_8  and  N_9
REMARK    4  A    between atoms: C_10  and  C_12
REMARK    5  A    between atoms: C_17  and  C_18
REMARK    6  A    between atoms: N_20  and  C_21
REMARK    7  A    between atoms: N_20  and  C_23
REMARK    8  A    between atoms: C_21  and  C_22
REMARK    9  A    between atoms: C_23  and  C_24
REMARK                            x       y       z     vdW  Elec       q    Type
REMARK                         _______ _______ _______ _____ _____    ______ ____
ROOT
ATOM      1  C   UNL     1      -3.779  10.108  17.045  0.00  0.00    +0.000 C 
ATOM      2  C   UNL     1      -4.603  10.807  18.144  0.00  0.00    +0.000 C 
ATOM      3  C   UNL     1      -3.896  12.031  18.719  0.00  0.00    +0.000 C 
ATOM      4  C   UNL     1      -2.425  11.793  18.874  0.00  0.00    +0.000 A 
ATOM      5  S   UNL     1      -1.498  12.957  19.644  0.00  0.00    +0.000 S 
ATOM      6  C   UNL     1      -0.064  12.100  19.399  0.00  0.00    +0.000 A 
ATOM      7  C   UNL     1      -0.246  10.857  18.752  0.00  0.00    +0.000 A 
ATOM      8  C   UNL     1      -1.678  10.727  18.392  0.00  0.00    +0.000 A 
ATOM      9  C   UNL     1      -2.409   9.656  17.623  0.00  0.00    +0.000 C 
ENDROOT
BRANCH   6  10
ATOM     10  N   UNL     1       1.134  12.659  19.860  0.00  0.00    +0.000 N 
ATOM     11  C   UNL     1       2.034  13.454  19.149  0.00  0.00    +0.000 C 
ATOM     12  O   UNL     1       1.939  13.749  17.960  0.00  0.00    +0.000 OA
ATOM     13  H   UNL     1       1.386  12.411  20.813  0.00  0.00    +0.000 HD
BRANCH  11  14
ATOM     14  C   UNL     1       3.163  13.968  19.924  0.00  0.00    +0.000 A 
ATOM     15  C   UNL     1       3.360  13.790  21.286  0.00  0.00    +0.000 A 
ATOM     16  C   UNL     1       4.573  14.372  21.751  0.00  0.00    +0.000 A 
ATOM     17  C   UNL     1       5.265  14.985  20.732  0.00  0.00    +0.000 A 
ATOM     18  S   UNL     1       4.451  14.860  19.232  0.00  0.00    +0.000 S 
ENDBRANCH  11  14
ENDBRANCH   6  10
BRANCH   7  19
ATOM     19  C   UNL     1       0.975  10.017  18.506  0.00  0.00    +0.000 C 
ATOM     20  O   UNL     1       1.698  10.340  17.553  0.00  0.00    +0.000 OA
ATOM     21  N   UNL     1       1.415   8.945  19.317  0.00  0.00    +0.000 N 
BRANCH  21  22
ATOM     22  C   UNL     1       0.807   8.421  20.533  0.00  0.00    +0.000 C 
ATOM     23  C   UNL     1       1.158   9.165  21.804  0.00  0.00    +0.000 C 
ENDBRANCH  21  22
BRANCH  21  24
ATOM     24  C   UNL     1       2.670   8.270  18.925  0.00  0.00    +0.000 C 
ATOM     25  C   UNL     1       2.435   6.896  18.306  0.00  0.00    +0.000 C 
ENDBRANCH  21  24
ENDBRANCH   7  19
BRANCH   1  27
ATOM     26  C   UNL     1      -3.019  10.166  14.597  0.00  0.00    +0.000 C 
ATOM     27  C   UNL     1      -3.581  10.954  15.772  0.00  0.00    +0.000 C 
ENDBRANCH   1  27
TORSDOF 6
ENDMDL
MODEL 7
REMARK VINA RESULT:      -6.1      5.752      9.843
REMARK  Name = 
REMARK  9 active torsions:
REMARK  status: ('A' for Active; 'I' for Inactive)
REMARK    1  A    between atoms: C_1  and  C_2
REMARK    2  A    between atoms: C_2  and  C_3
REMARK    3  A    between atoms: C_8  and  N_9
REMARK    4  A    between atoms: C_10  and  C_12
REMARK    5  A    between atoms: C_17  and  C_18
REMARK    6  A    between atoms: N_20  and  C_21
REMARK    7  A    between atoms: N_20  and  C_23
REMARK    8  A    between atoms: C_21  and  C_22
REMARK    9  A    between atoms: C_23  and  C_24
REMARK                            x       y       z     vdW  Elec       q    Type
REMARK                         _______ _______ _______ _____ _____    ______ ____
ROOT
ATOM      1  C   UNL     1      -3.777  12.736  23.493  0.00  0.00    +0.000 C 
ATOM      2  C   UNL     1      -3.422  13.812  24.538  0.00  0.00    +0.000 C 
ATOM      3  C   UNL     1      -2.467  14.869  23.991  0.00  0.00    +0.000 C 
ATOM      4  C   UNL     1      -1.421  14.260  23.107  0.00  0.00    +0.000 A 
ATOM      5  S   UNL     1      -0.179  15.232  22.543  0.00  0.00    +0.000 S 
ATOM      6  C   UNL     1       0.504  13.980  21.638  0.00  0.00    +0.000 A 
ATOM      7  C   UNL     1      -0.173  12.747  21.769  0.00  0.00    +0.000 A 
ATOM      8  C   UNL     1      -1.369  12.962  22.617  0.00  0.00    +0.000 A 
ATOM      9  C   UNL     1      -2.482  12.024  23.012  0.00  0.00    +0.000 C 
ENDROOT
BRANCH   6  10
ATOM     10  N   UNL     1       1.650  14.253  20.883  0.00  0.00    +0.000 N 
ATOM     11  C   UNL     1       2.939  14.517  21.351  0.00  0.00    +0.000 C 
ATOM     12  O   UNL     1       3.262  14.608  22.533  0.00  0.00    +0.000 OA
ATOM     13  H   UNL     1       1.502  14.304  19.878  0.00  0.00    +0.000 HD
BRANCH  11  14
ATOM     14  C   UNL     1       3.960  14.680  20.316  0.00  0.00    +0.000 A 
ATOM     15  C   UNL     1       3.755  14.562  18.950  0.00  0.00    +0.000 A 
ATOM     16  C   UNL     1       4.932  14.817  18.189  0.00  0.00    +0.000 A 
ATOM     17  C   UNL     1       6.004  15.116  18.998  0.00  0.00    +0.000 A 
ATOM     18  S   UNL     1       5.589  15.082  20.658  0.00  0.00    +0.000 S 
ENDBRANCH  11  14
ENDBRANCH   6  10
BRANCH   7  19
ATOM     19  C   UNL     1       0.374  11.571  21.011  0.00  0.00    +0.000 C 
ATOM     20  O   UNL     1       1.342  10.980  21.510  0.00  0.00    +0.000 OA
ATOM     21  N   UNL     1      -0.173  11.029  19.825  0.00  0.00    +0.000 N 
BRANCH  21  22
ATOM     22  C   UNL     1      -1.348  11.473  19.085  0.00  0.00    +0.000 C 
ATOM     23  C   UNL     1      -2.095  10.383  18.345  0.00  0.00    +0.000 C 
ENDBRANCH  21  22
BRANCH  21  24
ATOM     24  C   UNL     1       0.492   9.839  19.254  0.00  0.00    +0.000 C 
ATOM     25  C   UNL     1       1.554  10.193  18.218  0.00  0.00    +0.000 C 
ENDBRANCH  21  24
ENDBRANCH   7  19
BRANCH   1  27
ATOM     26  C   UNL     1      -4.439  12.419  21.036  0.00  0.00    +0.000 C 
ATOM     27  C   UNL     1      -4.586  13.265  22.293  0.00  0.00    +0.000 C 
ENDBRANCH   1  27
TORSDOF 6
ENDMDL
MODEL 8
REMARK VINA RESULT:      -6.1      5.547      9.803
REMARK  Name = 
REMARK  9 active torsions:
REMARK  status: ('A' for Active; 'I' for Inactive)
REMARK    1  A    between atoms: C_1  and  C_2
REMARK    2  A    between atoms: C_2  and  C_3
REMARK    3  A    between atoms: C_8  and  N_9
REMARK    4  A    between atoms: C_10  and  C_12
REMARK    5  A    between atoms: C_17  and  C_18
REMARK    6  A    between atoms: N_20  and  C_21
REMARK    7  A    between atoms: N_20  and  C_23
REMARK    8  A    between atoms: C_21  and  C_22
REMARK    9  A    between atoms: C_23  and  C_24
REMARK                            x       y       z     vdW  Elec       q    Type
REMARK                         _______ _______ _______ _____ _____    ______ ____
ROOT
ATOM      1  C   UNL     1      -3.885  12.925  23.059  0.00  0.00    +0.000 C 
ATOM      2  C   UNL     1      -3.601  14.056  24.068  0.00  0.00    +0.000 C 
ATOM      3  C   UNL     1      -2.541  15.034  23.571  0.00  0.00    +0.000 C 
ATOM      4  C   UNL     1      -1.431  14.325  22.856  0.00  0.00    +0.000 A 
ATOM      5  S   UNL     1      -0.088  15.205  22.381  0.00  0.00    +0.000 S 
ATOM      6  C   UNL     1       0.634  13.869  21.644  0.00  0.00    +0.000 A 
ATOM      7  C   UNL     1      -0.111  12.675  21.773  0.00  0.00    +0.000 A 
ATOM      8  C   UNL     1      -1.385  12.995  22.459  0.00  0.00    +0.000 A 
ATOM      9  C   UNL     1      -2.578  12.131  22.780  0.00  0.00    +0.000 C 
ENDROOT
BRANCH   6  10
ATOM     10  N   UNL     1       1.871  14.043  21.013  0.00  0.00    +0.000 N 
ATOM     11  C   UNL     1       2.109  14.427  19.692  0.00  0.00    +0.000 C 
ATOM     12  O   UNL     1       1.245  14.625  18.841  0.00  0.00    +0.000 OA
ATOM     13  H   UNL     1       2.682  13.816  21.583  0.00  0.00    +0.000 HD
BRANCH  11  14
ATOM     14  C   UNL     1       3.516  14.611  19.337  0.00  0.00    +0.000 A 
ATOM     15  C   UNL     1       4.054  14.496  18.064  0.00  0.00    +0.000 A 
ATOM     16  C   UNL     1       5.450  14.773  18.024  0.00  0.00    +0.000 A 
ATOM     17  C   UNL     1       5.940  15.087  19.270  0.00  0.00    +0.000 A 
ATOM     18  S   UNL     1       4.724  15.040  20.474  0.00  0.00    +0.000 S 
ENDBRANCH  11  14
ENDBRANCH   6  10
BRANCH   7  19
ATOM     19  C   UNL     1       0.463  11.429  21.161  0.00  0.00    +0.000 C 
ATOM     20  O   UNL     1       1.139  10.699  21.899  0.00  0.00    +0.000 OA
ATOM     21  N   UNL     1       0.227  10.975  19.843  0.00  0.00    +0.000 N 
BRANCH  21  22
ATOM     22  C   UNL     1      -0.593  11.590  18.806  0.00  0.00    +0.000 C 
ATOM     23  C   UNL     1      -2.086  11.393  18.961  0.00  0.00    +0.000 C 
ENDBRANCH  21  22
BRANCH  21  24
ATOM     24  C   UNL     1       0.853   9.697  19.443  0.00  0.00    +0.000 C 
ATOM     25  C   UNL     1       1.207   9.648  17.961  0.00  0.00    +0.000 C 
ENDBRANCH  21  24
ENDBRANCH   7  19
BRANCH   1  27
ATOM     26  C   UNL     1      -5.517  12.411  21.150  0.00  0.00    +0.000 C 
ATOM     27  C   UNL     1      -4.525  13.403  21.741  0.00  0.00    +0.000 C 
ENDBRANCH   1  27
TORSDOF 6
ENDMDL
MODEL 9
REMARK VINA RESULT:      -6.0      3.740      9.473
REMARK  Name = 
REMARK  9 active torsions:
REMARK  status: ('A' for Active; 'I' for Inactive)
REMARK    1  A    between atoms: C_1  and  C_2
REMARK    2  A    between atoms: C_2  and  C_3
REMARK    3  A    between atoms: C_8  and  N_9
REMARK    4  A    between atoms: C_10  and  C_12
REMARK    5  A    between atoms: C_17  and  C_18
REMARK    6  A    between atoms: N_20  and  C_21
REMARK    7  A    between atoms: N_20  and  C_23
REMARK    8  A    between atoms: C_21  and  C_22
REMARK    9  A    between atoms: C_23  and  C_24
REMARK                            x       y       z     vdW  Elec       q    Type
REMARK                         _______ _______ _______ _____ _____    ______ ____
ROOT
ATOM      1  C   UNL     1      -3.480  14.509  21.966  0.00  0.00    +0.000 C 
ATOM      2  C   UNL     1      -3.580  13.677  23.259  0.00  0.00    +0.000 C 
ATOM      3  C   UNL     1      -2.369  12.774  23.471  0.00  0.00    +0.000 C 
ATOM      4  C   UNL     1      -1.905  12.166  22.183  0.00  0.00    +0.000 A 
ATOM      5  S   UNL     1      -0.691  11.013  22.228  0.00  0.00    +0.000 S 
ATOM      6  C   UNL     1      -0.657  10.859  20.547  0.00  0.00    +0.000 A 
ATOM      7  C   UNL     1      -1.613  11.658  19.882  0.00  0.00    +0.000 A 
ATOM      8  C   UNL     1      -2.312  12.484  20.894  0.00  0.00    +0.000 A 
ATOM      9  C   UNL     1      -3.356  13.561  20.740  0.00  0.00    +0.000 C 
ENDROOT
BRANCH   6  10
ATOM     10  N   UNL     1       0.263   9.970  19.977  0.00  0.00    +0.000 N 
ATOM     11  C   UNL     1       0.955   8.936  20.610  0.00  0.00    +0.000 C 
ATOM     12  O   UNL     1       0.903   8.673  21.808  0.00  0.00    +0.000 OA
ATOM     13  H   UNL     1       0.475  10.139  18.997  0.00  0.00    +0.000 HD
BRANCH  11  14
ATOM     14  C   UNL     1       1.789   8.113  19.733  0.00  0.00    +0.000 A 
ATOM     15  C   UNL     1       2.273   6.847  20.028  0.00  0.00    +0.000 A 
ATOM     16  C   UNL     1       3.023   6.278  18.960  0.00  0.00    +0.000 A 
ATOM     17  C   UNL     1       3.095   7.129  17.881  0.00  0.00    +0.000 A 
ATOM     18  S   UNL     1       2.269   8.601  18.163  0.00  0.00    +0.000 S 
ENDBRANCH  11  14
ENDBRANCH   6  10
BRANCH   7  19
ATOM     19  C   UNL     1      -1.666  11.574  18.382  0.00  0.00    +0.000 C 
ATOM     20  O   UNL     1      -0.595  11.702  17.773  0.00  0.00    +0.000 OA
ATOM     21  N   UNL     1      -2.816  11.277  17.614  0.00  0.00    +0.000 N 
BRANCH  21  22
ATOM     22  C   UNL     1      -4.169  10.999  18.080  0.00  0.00    +0.000 C 
ATOM     23  C   UNL     1      -5.227  11.977  17.614  0.00  0.00    +0.000 C 
ENDBRANCH  21  22
BRANCH  21  24
ATOM     24  C   UNL     1      -2.649  11.200  16.148  0.00  0.00    +0.000 C 
ATOM     25  C   UNL     1      -2.937   9.810  15.591  0.00  0.00    +0.000 C 
ENDBRANCH  21  24
ENDBRANCH   7  19
BRANCH   1  27
ATOM     26  C   UNL     1      -2.002  16.088  20.589  0.00  0.00    +0.000 C 
ATOM     27  C   UNL     1      -2.341  15.547  21.970  0.00  0.00    +0.000 C 
ENDBRANCH   1  27
TORSDOF 6
ENDMDL
