MODEL 1
REMARK VINA RESULT:      -7.1      0.000      0.000
REMARK  Name = 
REMARK  7 active torsions:
REMARK  status: ('A' for Active; 'I' for Inactive)
REMARK    1  A    between atoms: C_1  and  N_2
REMARK    2  A    between atoms: N_2  and  C_3
REMARK    3  A    between atoms: C_3  and  N_5
REMARK    4  A    between atoms: C_7  and  C_8
REMARK    5  A    between atoms: C_11  and  O_12
REMARK    6  A    between atoms: O_12  and  C_13
REMARK    7  A    between atoms: C_17  and  C_18
REMARK                            x       y       z     vdW  Elec       q    Type
REMARK                         _______ _______ _______ _____ _____    ______ ____
ROOT
ATOM      1  N   UNL     1       3.862   4.523  18.687  0.00  0.00    +0.000 N 
ATOM      2  N   UNL     1       2.768   5.316  18.923  0.00  0.00    +0.000 NA
ATOM      3  C   UNL     1       3.140   6.553  18.821  0.00  0.00    +0.000 C 
ATOM      4  C   UNL     1       4.587   6.764  18.463  0.00  0.00    +0.000 C 
ATOM      5  C   UNL     1       5.061   5.311  18.345  0.00  0.00    +0.000 C 
ENDROOT
BRANCH   5   6
ATOM      6  C   UNL     1       5.569   4.972  16.949  0.00  0.00    +0.000 A 
ATOM      7  C   UNL     1       4.669   4.992  15.862  0.00  0.00    +0.000 A 
ATOM      8  C   UNL     1       5.068   4.611  14.581  0.00  0.00    +0.000 A 
ATOM      9  C   UNL     1       6.375   4.197  14.356  0.00  0.00    +0.000 A 
ATOM     10  C   UNL     1       7.286   4.179  15.411  0.00  0.00    +0.000 A 
ATOM     11  C   UNL     1       6.891   4.567  16.698  0.00  0.00    +0.000 A 
ATOM     12 CL   UNL     1       8.092   4.509  17.939  0.00  0.00    +0.000 Cl
ENDBRANCH   5   6
BRANCH   3  13
ATOM     13  C   UNL     1       2.203   7.680  19.043  0.00  0.00    +0.000 A 
ATOM     14  C   UNL     1       1.852   8.488  17.954  0.00  0.00    +0.000 A 
ATOM     15  C   UNL     1       1.004   9.579  18.134  0.00  0.00    +0.000 A 
ATOM     16  C   UNL     1       0.481   9.865  19.393  0.00  0.00    +0.000 A 
ATOM     17  C   UNL     1       0.826   9.065  20.482  0.00  0.00    +0.000 A 
ATOM     18  C   UNL     1       1.682   7.970  20.310  0.00  0.00    +0.000 A 
BRANCH  16  19
ATOM     19  O   UNL     1      -0.316  10.979  19.449  0.00  0.00    +0.000 OA
ATOM     20  C   UNL     1      -1.086  11.252  18.282  0.00  0.00    +0.000 C 
ENDBRANCH  16  19
ENDBRANCH   3  13
BRANCH   1  21
ATOM     21  C   UNL     1       3.738   3.131  18.677  0.00  0.00    +0.000 C 
ATOM     22  S   UNL     1       2.481   2.331  17.892  0.00  0.00    +0.000 S 
BRANCH  21  24
ATOM     23  C   UNL     1       4.663   1.835  20.630  0.00  0.00    +0.000 C 
ATOM     24  N   UNL     1       4.768   2.474  19.332  0.00  0.00    +0.000 N 
ATOM     25  H   UNL     1       5.702   2.728  19.046  0.00  0.00    +0.000 HD
ENDBRANCH  21  24
ENDBRANCH   1  21
TORSDOF 5
ENDMDL
MODEL 2
REMARK VINA RESULT:      -6.9      1.032      1.236
REMARK  Name = 
REMARK  7 active torsions:
REMARK  status: ('A' for Active; 'I' for Inactive)
REMARK    1  A    between atoms: C_1  and  N_2
REMARK    2  A    between atoms: N_2  and  C_3
REMARK    3  A    between atoms: C_3  and  N_5
REMARK    4  A    between atoms: C_7  and  C_8
REMARK    5  A    between atoms: C_11  and  O_12
REMARK    6  A    between atoms: O_12  and  C_13
REMARK    7  A    between atoms: C_17  and  C_18
REMARK                            x       y       z     vdW  Elec       q    Type
REMARK                         _______ _______ _______ _____ _____    ______ ____
ROOT
ATOM      1  N   UNL     1       3.494   4.605  18.951  0.00  0.00    +0.000 N 
ATOM      2  N   UNL     1       2.432   5.464  19.076  0.00  0.00    +0.000 NA
ATOM      3  C   UNL     1       2.886   6.676  19.013  0.00  0.00    +0.000 C 
ATOM      4  C   UNL     1       4.372   6.796  18.802  0.00  0.00    +0.000 C 
ATOM      5  C   UNL     1       4.767   5.318  18.732  0.00  0.00    +0.000 C 
ENDROOT
BRANCH   5   6
ATOM      6  C   UNL     1       5.391   4.940  17.394  0.00  0.00    +0.000 A 
ATOM      7  C   UNL     1       4.552   4.680  16.289  0.00  0.00    +0.000 A 
ATOM      8  C   UNL     1       5.072   4.253  15.067  0.00  0.00    +0.000 A 
ATOM      9  C   UNL     1       6.442   4.073  14.921  0.00  0.00    +0.000 A 
ATOM     10  C   UNL     1       7.292   4.335  15.993  0.00  0.00    +0.000 A 
ATOM     11  C   UNL     1       6.775   4.769  17.221  0.00  0.00    +0.000 A 
ATOM     12 CL   UNL     1       7.909   5.066  18.491  0.00  0.00    +0.000 Cl
ENDBRANCH   5   6
BRANCH   3  13
ATOM     13  C   UNL     1       2.000   7.858  19.140  0.00  0.00    +0.000 A 
ATOM     14  C   UNL     1       1.741   8.629  18.000  0.00  0.00    +0.000 A 
ATOM     15  C   UNL     1       0.945   9.770  18.091  0.00  0.00    +0.000 A 
ATOM     16  C   UNL     1       0.383  10.141  19.311  0.00  0.00    +0.000 A 
ATOM     17  C   UNL     1       0.637   9.378  20.449  0.00  0.00    +0.000 A 
ATOM     18  C   UNL     1       1.441   8.234  20.366  0.00  0.00    +0.000 A 
BRANCH  16  19
ATOM     19  O   UNL     1      -0.355  11.296  19.278  0.00  0.00    +0.000 OA
ATOM     20  C   UNL     1      -1.312  11.394  18.228  0.00  0.00    +0.000 C 
ENDBRANCH  16  19
ENDBRANCH   3  13
BRANCH   1  21
ATOM     21  C   UNL     1       3.287   3.223  18.928  0.00  0.00    +0.000 C 
ATOM     22  S   UNL     1       4.271   2.138  19.759  0.00  0.00    +0.000 S 
BRANCH  21  24
ATOM     23  C   UNL     1       0.970   2.249  18.753  0.00  0.00    +0.000 C 
ATOM     24  N   UNL     1       2.174   2.837  18.198  0.00  0.00    +0.000 N 
ATOM     25  H   UNL     1       2.332   2.660  17.217  0.00  0.00    +0.000 HD
ENDBRANCH  21  24
ENDBRANCH   1  21
TORSDOF 5
ENDMDL
MODEL 3
REMARK VINA RESULT:      -6.9      1.076      1.627
REMARK  Name = 
REMARK  7 active torsions:
REMARK  status: ('A' for Active; 'I' for Inactive)
REMARK    1  A    between atoms: C_1  and  N_2
REMARK    2  A    between atoms: N_2  and  C_3
REMARK    3  A    between atoms: C_3  and  N_5
REMARK    4  A    between atoms: C_7  and  C_8
REMARK    5  A    between atoms: C_11  and  O_12
REMARK    6  A    between atoms: O_12  and  C_13
REMARK    7  A    between atoms: C_17  and  C_18
REMARK                            x       y       z     vdW  Elec       q    Type
REMARK                         _______ _______ _______ _____ _____    ______ ____
ROOT
ATOM      1  N   UNL     1       3.407   4.667  18.901  0.00  0.00    +0.000 N 
ATOM      2  N   UNL     1       2.357   5.545  18.984  0.00  0.00    +0.000 NA
ATOM      3  C   UNL     1       2.838   6.748  18.973  0.00  0.00    +0.000 C 
ATOM      4  C   UNL     1       4.335   6.842  18.849  0.00  0.00    +0.000 C 
ATOM      5  C   UNL     1       4.705   5.358  18.769  0.00  0.00    +0.000 C 
ENDROOT
BRANCH   5   6
ATOM      6  C   UNL     1       5.396   4.994  17.461  0.00  0.00    +0.000 A 
ATOM      7  C   UNL     1       4.614   4.682  16.329  0.00  0.00    +0.000 A 
ATOM      8  C   UNL     1       5.199   4.265  15.133  0.00  0.00    +0.000 A 
ATOM      9  C   UNL     1       6.580   4.149  15.041  0.00  0.00    +0.000 A 
ATOM     10  C   UNL     1       7.376   4.464  16.141  0.00  0.00    +0.000 A 
ATOM     11  C   UNL     1       6.792   4.887  17.342  0.00  0.00    +0.000 A 
ATOM     12 CL   UNL     1       7.861   5.252  18.650  0.00  0.00    +0.000 Cl
ENDBRANCH   5   6
BRANCH   3  13
ATOM     13  C   UNL     1       1.970   7.946  19.075  0.00  0.00    +0.000 A 
ATOM     14  C   UNL     1       1.458   8.301  20.328  0.00  0.00    +0.000 A 
ATOM     15  C   UNL     1       0.608   9.399  20.455  0.00  0.00    +0.000 A 
ATOM     16  C   UNL     1       0.276  10.164  19.338  0.00  0.00    +0.000 A 
ATOM     17  C   UNL     1       0.782   9.816  18.087  0.00  0.00    +0.000 A 
ATOM     18  C   UNL     1       1.632   8.711  17.952  0.00  0.00    +0.000 A 
BRANCH  16  19
ATOM     19  O   UNL     1      -0.591  11.197  19.584  0.00  0.00    +0.000 OA
ATOM     20  C   UNL     1      -1.751  11.246  18.758  0.00  0.00    +0.000 C 
ENDBRANCH  16  19
ENDBRANCH   3  13
BRANCH   1  21
ATOM     21  C   UNL     1       3.175   3.290  18.837  0.00  0.00    +0.000 C 
ATOM     22  S   UNL     1       4.180   2.158  19.574  0.00  0.00    +0.000 S 
BRANCH  21  24
ATOM     23  C   UNL     1       0.851   2.323  18.736  0.00  0.00    +0.000 C 
ATOM     24  N   UNL     1       2.020   2.951  18.150  0.00  0.00    +0.000 N 
ATOM     25  H   UNL     1       2.119   2.841  17.152  0.00  0.00    +0.000 HD
ENDBRANCH  21  24
ENDBRANCH   1  21
TORSDOF 5
ENDMDL
MODEL 4
REMARK VINA RESULT:      -6.7      0.548      1.177
REMARK  Name = 
REMARK  7 active torsions:
REMARK  status: ('A' for Active; 'I' for Inactive)
REMARK    1  A    between atoms: C_1  and  N_2
REMARK    2  A    between atoms: N_2  and  C_3
REMARK    3  A    between atoms: C_3  and  N_5
REMARK    4  A    between atoms: C_7  and  C_8
REMARK    5  A    between atoms: C_11  and  O_12
REMARK    6  A    between atoms: O_12  and  C_13
REMARK    7  A    between atoms: C_17  and  C_18
REMARK                            x       y       z     vdW  Elec       q    Type
REMARK                         _______ _______ _______ _____ _____    ______ ____
ROOT
ATOM      1  N   UNL     1       3.757   4.534  18.683  0.00  0.00    +0.000 N 
ATOM      2  N   UNL     1       2.688   5.365  18.905  0.00  0.00    +0.000 NA
ATOM      3  C   UNL     1       3.102   6.588  18.805  0.00  0.00    +0.000 C 
ATOM      4  C   UNL     1       4.560   6.749  18.463  0.00  0.00    +0.000 C 
ATOM      5  C   UNL     1       4.986   5.281  18.353  0.00  0.00    +0.000 C 
ENDROOT
BRANCH   5   6
ATOM      6  C   UNL     1       5.498   4.921  16.964  0.00  0.00    +0.000 A 
ATOM      7  C   UNL     1       4.604   4.941  15.872  0.00  0.00    +0.000 A 
ATOM      8  C   UNL     1       5.006   4.542  14.597  0.00  0.00    +0.000 A 
ATOM      9  C   UNL     1       6.309   4.110  14.384  0.00  0.00    +0.000 A 
ATOM     10  C   UNL     1       7.214   4.093  15.444  0.00  0.00    +0.000 A 
ATOM     11  C   UNL     1       6.816   4.498  16.725  0.00  0.00    +0.000 A 
ATOM     12 CL   UNL     1       8.009   4.439  17.974  0.00  0.00    +0.000 Cl
ENDBRANCH   5   6
BRANCH   3  13
ATOM     13  C   UNL     1       2.201   7.747  19.014  0.00  0.00    +0.000 A 
ATOM     14  C   UNL     1       1.679   7.970  20.293  0.00  0.00    +0.000 A 
ATOM     15  C   UNL     1       0.797   9.027  20.517  0.00  0.00    +0.000 A 
ATOM     16  C   UNL     1       0.444   9.882  19.475  0.00  0.00    +0.000 A 
ATOM     17  C   UNL     1       0.961   9.665  18.199  0.00  0.00    +0.000 A 
ATOM     18  C   UNL     1       1.843   8.602  17.966  0.00  0.00    +0.000 A 
BRANCH  16  19
ATOM     19  O   UNL     1      -0.451  10.864  19.812  0.00  0.00    +0.000 OA
ATOM     20  C   UNL     1      -0.670  11.054  21.207  0.00  0.00    +0.000 C 
ENDBRANCH  16  19
ENDBRANCH   3  13
BRANCH   1  21
ATOM     21  C   UNL     1       3.586   3.147  18.675  0.00  0.00    +0.000 C 
ATOM     22  S   UNL     1       2.527   2.363  17.626  0.00  0.00    +0.000 S 
BRANCH  21  24
ATOM     23  C   UNL     1       4.041   2.140  20.939  0.00  0.00    +0.000 C 
ATOM     24  N   UNL     1       4.400   2.479  19.576  0.00  0.00    +0.000 N 
ATOM     25  H   UNL     1       5.391   2.517  19.384  0.00  0.00    +0.000 HD
ENDBRANCH  21  24
ENDBRANCH   1  21
TORSDOF 5
ENDMDL
MODEL 5
REMARK VINA RESULT:      -6.5      3.669      7.052
REMARK  Name = 
REMARK  7 active torsions:
REMARK  status: ('A' for Active; 'I' for Inactive)
REMARK    1  A    between atoms: C_1  and  N_2
REMARK    2  A    between atoms: N_2  and  C_3
REMARK    3  A    between atoms: C_3  and  N_5
REMARK    4  A    between atoms: C_7  and  C_8
REMARK    5  A    between atoms: C_11  and  O_12
REMARK    6  A    between atoms: O_12  and  C_13
REMARK    7  A    between atoms: C_17  and  C_18
REMARK                            x       y       z     vdW  Elec       q    Type
REMARK                         _______ _______ _______ _____ _____    ______ ____
ROOT
ATOM      1  N   UNL     1       3.470   6.456  18.680  0.00  0.00    +0.000 N 
ATOM      2  N   UNL     1       3.937   6.425  17.391  0.00  0.00    +0.000 NA
ATOM      3  C   UNL     1       4.743   5.416  17.281  0.00  0.00    +0.000 C 
ATOM      4  C   UNL     1       4.911   4.587  18.527  0.00  0.00    +0.000 C 
ATOM      5  C   UNL     1       3.976   5.329  19.487  0.00  0.00    +0.000 C 
ENDROOT
BRANCH   5   6
ATOM      6  C   UNL     1       2.836   4.452  19.991  0.00  0.00    +0.000 A 
ATOM      7  C   UNL     1       2.811   4.064  21.348  0.00  0.00    +0.000 A 
ATOM      8  C   UNL     1       1.834   3.197  21.837  0.00  0.00    +0.000 A 
ATOM      9  C   UNL     1       0.861   2.695  20.982  0.00  0.00    +0.000 A 
ATOM     10  C   UNL     1       0.857   3.073  19.641  0.00  0.00    +0.000 A 
ATOM     11  C   UNL     1       1.833   3.948  19.146  0.00  0.00    +0.000 A 
ATOM     12 CL   UNL     1       1.746   4.355  17.469  0.00  0.00    +0.000 Cl
ENDBRANCH   5   6
BRANCH   3  13
ATOM     13  C   UNL     1       5.449   5.104  16.015  0.00  0.00    +0.000 A 
ATOM     14  C   UNL     1       4.742   4.461  14.992  0.00  0.00    +0.000 A 
ATOM     15  C   UNL     1       5.385   4.118  13.803  0.00  0.00    +0.000 A 
ATOM     16  C   UNL     1       6.730   4.429  13.614  0.00  0.00    +0.000 A 
ATOM     17  C   UNL     1       7.439   5.069  14.630  0.00  0.00    +0.000 A 
ATOM     18  C   UNL     1       6.802   5.412  15.829  0.00  0.00    +0.000 A 
BRANCH  16  19
ATOM     19  O   UNL     1       7.256   4.014  12.419  0.00  0.00    +0.000 OA
ATOM     20  C   UNL     1       6.592   2.919  11.794  0.00  0.00    +0.000 C 
ENDBRANCH  16  19
ENDBRANCH   3  13
BRANCH   1  21
ATOM     21  C   UNL     1       2.531   7.416  19.069  0.00  0.00    +0.000 C 
ATOM     22  S   UNL     1       1.868   8.533  17.998  0.00  0.00    +0.000 S 
BRANCH  21  24
ATOM     23  C   UNL     1       1.337   8.289  21.109  0.00  0.00    +0.000 C 
ATOM     24  N   UNL     1       2.166   7.331  20.404  0.00  0.00    +0.000 N 
ATOM     25  H   UNL     1       2.761   6.759  20.986  0.00  0.00    +0.000 HD
ENDBRANCH  21  24
ENDBRANCH   1  21
TORSDOF 5
ENDMDL
MODEL 6
REMARK VINA RESULT:      -6.3      3.647      7.159
REMARK  Name = 
REMARK  7 active torsions:
REMARK  status: ('A' for Active; 'I' for Inactive)
REMARK    1  A    between atoms: C_1  and  N_2
REMARK    2  A    between atoms: N_2  and  C_3
REMARK    3  A    between atoms: C_3  and  N_5
REMARK    4  A    between atoms: C_7  and  C_8
REMARK    5  A    between atoms: C_11  and  O_12
REMARK    6  A    between atoms: O_12  and  C_13
REMARK    7  A    between atoms: C_17  and  C_18
REMARK                            x       y       z     vdW  Elec       q    Type
REMARK                         _______ _______ _______ _____ _____    ______ ____
ROOT
ATOM      1  N   UNL     1       3.417   6.454  18.555  0.00  0.00    +0.000 N 
ATOM      2  N   UNL     1       3.892   6.397  17.269  0.00  0.00    +0.000 NA
ATOM      3  C   UNL     1       4.728   5.410  17.193  0.00  0.00    +0.000 C 
ATOM      4  C   UNL     1       4.914   4.624  18.463  0.00  0.00    +0.000 C 
ATOM      5  C   UNL     1       3.952   5.367  19.397  0.00  0.00    +0.000 C 
ENDROOT
BRANCH   5   6
ATOM      6  C   UNL     1       2.837   4.472  19.923  0.00  0.00    +0.000 A 
ATOM      7  C   UNL     1       2.809   4.135  21.293  0.00  0.00    +0.000 A 
ATOM      8  C   UNL     1       1.856   3.255  21.806  0.00  0.00    +0.000 A 
ATOM      9  C   UNL     1       0.910   2.689  20.961  0.00  0.00    +0.000 A 
ATOM     10  C   UNL     1       0.908   3.015  19.607  0.00  0.00    +0.000 A 
ATOM     11  C   UNL     1       1.860   3.903  19.088  0.00  0.00    +0.000 A 
ATOM     12 CL   UNL     1       1.779   4.243  17.396  0.00  0.00    +0.000 Cl
ENDBRANCH   5   6
BRANCH   3  13
ATOM     13  C   UNL     1       5.448   5.081  15.940  0.00  0.00    +0.000 A 
ATOM     14  C   UNL     1       4.767   4.384  14.935  0.00  0.00    +0.000 A 
ATOM     15  C   UNL     1       5.424   4.024  13.760  0.00  0.00    +0.000 A 
ATOM     16  C   UNL     1       6.759   4.372  13.565  0.00  0.00    +0.000 A 
ATOM     17  C   UNL     1       7.444   5.066  14.562  0.00  0.00    +0.000 A 
ATOM     18  C   UNL     1       6.791   5.426  15.748  0.00  0.00    +0.000 A 
BRANCH  16  19
ATOM     19  O   UNL     1       7.304   3.937  12.385  0.00  0.00    +0.000 OA
ATOM     20  C   UNL     1       6.611   2.876  11.735  0.00  0.00    +0.000 C 
ENDBRANCH  16  19
ENDBRANCH   3  13
BRANCH   1  21
ATOM     21  C   UNL     1       2.449   7.397  18.911  0.00  0.00    +0.000 C 
ATOM     22  S   UNL     1       1.870   7.563  20.484  0.00  0.00    +0.000 S 
BRANCH  21  24
ATOM     23  C   UNL     1       1.749   9.624  17.963  0.00  0.00    +0.000 C 
ATOM     24  N   UNL     1       2.048   8.208  17.861  0.00  0.00    +0.000 N 
ATOM     25  H   UNL     1       1.639   7.732  17.071  0.00  0.00    +0.000 HD
ENDBRANCH  21  24
ENDBRANCH   1  21
TORSDOF 5
ENDMDL
MODEL 7
REMARK VINA RESULT:      -6.3      2.474      4.163
REMARK  Name = 
REMARK  7 active torsions:
REMARK  status: ('A' for Active; 'I' for Inactive)
REMARK    1  A    between atoms: C_1  and  N_2
REMARK    2  A    between atoms: N_2  and  C_3
REMARK    3  A    between atoms: C_3  and  N_5
REMARK    4  A    between atoms: C_7  and  C_8
REMARK    5  A    between atoms: C_11  and  O_12
REMARK    6  A    between atoms: O_12  and  C_13
REMARK    7  A    between atoms: C_17  and  C_18
REMARK                            x       y       z     vdW  Elec       q    Type
REMARK                         _______ _______ _______ _____ _____    ______ ____
ROOT
ATOM      1  N   UNL     1       3.708   5.965  17.998  0.00  0.00    +0.000 N 
ATOM      2  N   UNL     1       3.659   7.320  18.203  0.00  0.00    +0.000 NA
ATOM      3  C   UNL     1       2.416   7.664  18.320  0.00  0.00    +0.000 C 
ATOM      4  C   UNL     1       1.424   6.535  18.231  0.00  0.00    +0.000 C 
ATOM      5  C   UNL     1       2.370   5.345  18.034  0.00  0.00    +0.000 C 
ENDROOT
BRANCH   5   6
ATOM      6  C   UNL     1       2.263   4.319  19.156  0.00  0.00    +0.000 A 
ATOM      7  C   UNL     1       2.113   4.764  20.487  0.00  0.00    +0.000 A 
ATOM      8  C   UNL     1       2.092   3.867  21.555  0.00  0.00    +0.000 A 
ATOM      9  C   UNL     1       2.224   2.504  21.318  0.00  0.00    +0.000 A 
ATOM     10  C   UNL     1       2.361   2.039  20.012  0.00  0.00    +0.000 A 
ATOM     11  C   UNL     1       2.377   2.936  18.936  0.00  0.00    +0.000 A 
ATOM     12 CL   UNL     1       2.554   2.264  17.354  0.00  0.00    +0.000 Cl
ENDBRANCH   5   6
BRANCH   3  13
ATOM     13  C   UNL     1       2.002   9.073  18.527  0.00  0.00    +0.000 A 
ATOM     14  C   UNL     1       1.023   9.351  19.488  0.00  0.00    +0.000 A 
ATOM     15  C   UNL     1       0.582  10.660  19.682  0.00  0.00    +0.000 A 
ATOM     16  C   UNL     1       1.126  11.704  18.936  0.00  0.00    +0.000 A 
ATOM     17  C   UNL     1       2.101  11.433  17.978  0.00  0.00    +0.000 A 
ATOM     18  C   UNL     1       2.545  10.120  17.773  0.00  0.00    +0.000 A 
BRANCH  16  19
ATOM     19  O   UNL     1       0.591  12.939  19.196  0.00  0.00    +0.000 OA
ATOM     20  C   UNL     1      -0.495  13.334  18.362  0.00  0.00    +0.000 C 
ENDBRANCH  16  19
ENDBRANCH   3  13
BRANCH   1  21
ATOM     21  C   UNL     1       4.938   5.309  17.893  0.00  0.00    +0.000 C 
ATOM     22  S   UNL     1       5.445   4.537  16.485  0.00  0.00    +0.000 S 
BRANCH  21  24
ATOM     23  C   UNL     1       7.142   5.655  19.065  0.00  0.00    +0.000 C 
ATOM     24  N   UNL     1       5.715   5.394  19.037  0.00  0.00    +0.000 N 
ATOM     25  H   UNL     1       5.340   4.940  19.857  0.00  0.00    +0.000 HD
ENDBRANCH  21  24
ENDBRANCH   1  21
TORSDOF 5
ENDMDL
MODEL 8
REMARK VINA RESULT:      -6.3      2.399      4.221
REMARK  Name = 
REMARK  7 active torsions:
REMARK  status: ('A' for Active; 'I' for Inactive)
REMARK    1  A    between atoms: C_1  and  N_2
REMARK    2  A    between atoms: N_2  and  C_3
REMARK    3  A    between atoms: C_3  and  N_5
REMARK    4  A    between atoms: C_7  and  C_8
REMARK    5  A    between atoms: C_11  and  O_12
REMARK    6  A    between atoms: O_12  and  C_13
REMARK    7  A    between atoms: C_17  and  C_18
REMARK                            x       y       z     vdW  Elec       q    Type
REMARK                         _______ _______ _______ _____ _____    ______ ____
ROOT
ATOM      1  N   UNL     1       3.625   6.122  17.852  0.00  0.00    +0.000 N 
ATOM      2  N   UNL     1       3.586   7.474  18.079  0.00  0.00    +0.000 NA
ATOM      3  C   UNL     1       2.352   7.810  18.288  0.00  0.00    +0.000 C 
ATOM      4  C   UNL     1       1.361   6.678  18.252  0.00  0.00    +0.000 C 
ATOM      5  C   UNL     1       2.294   5.496  17.973  0.00  0.00    +0.000 C 
ENDROOT
BRANCH   5   6
ATOM      6  C   UNL     1       2.271   4.454  19.084  0.00  0.00    +0.000 A 
ATOM      7  C   UNL     1       2.118   4.875  20.423  0.00  0.00    +0.000 A 
ATOM      8  C   UNL     1       2.171   3.967  21.481  0.00  0.00    +0.000 A 
ATOM      9  C   UNL     1       2.381   2.617  21.226  0.00  0.00    +0.000 A 
ATOM     10  C   UNL     1       2.523   2.175  19.912  0.00  0.00    +0.000 A 
ATOM     11  C   UNL     1       2.464   3.083  18.847  0.00  0.00    +0.000 A 
ATOM     12 CL   UNL     1       2.653   2.438  17.254  0.00  0.00    +0.000 Cl
ENDBRANCH   5   6
BRANCH   3  13
ATOM     13  C   UNL     1       1.949   9.214  18.544  0.00  0.00    +0.000 A 
ATOM     14  C   UNL     1       0.985   9.468  19.527  0.00  0.00    +0.000 A 
ATOM     15  C   UNL     1       0.554  10.773  19.767  0.00  0.00    +0.000 A 
ATOM     16  C   UNL     1       1.093  11.836  19.045  0.00  0.00    +0.000 A 
ATOM     17  C   UNL     1       2.053  11.589  18.065  0.00  0.00    +0.000 A 
ATOM     18  C   UNL     1       2.486  10.281  17.814  0.00  0.00    +0.000 A 
BRANCH  16  19
ATOM     19  O   UNL     1       0.568  13.065  19.350  0.00  0.00    +0.000 OA
ATOM     20  C   UNL     1      -0.416  13.562  18.449  0.00  0.00    +0.000 C 
ENDBRANCH  16  19
ENDBRANCH   3  13
BRANCH   1  21
ATOM     21  C   UNL     1       4.846   5.473  17.651  0.00  0.00    +0.000 C 
ATOM     22  S   UNL     1       5.943   5.183  18.895  0.00  0.00    +0.000 S 
BRANCH  21  24
ATOM     23  C   UNL     1       5.859   3.921  15.944  0.00  0.00    +0.000 C 
ATOM     24  N   UNL     1       5.046   5.053  16.345  0.00  0.00    +0.000 N 
ATOM     25  H   UNL     1       4.886   5.748  15.631  0.00  0.00    +0.000 HD
ENDBRANCH  21  24
ENDBRANCH   1  21
TORSDOF 5
ENDMDL
MODEL 9
REMARK VINA RESULT:      -6.2      2.441      4.172
REMARK  Name = 
REMARK  7 active torsions:
REMARK  status: ('A' for Active; 'I' for Inactive)
REMARK    1  A    between atoms: C_1  and  N_2
REMARK    2  A    between atoms: N_2  and  C_3
REMARK    3  A    between atoms: C_3  and  N_5
REMARK    4  A    between atoms: C_7  and  C_8
REMARK    5  A    between atoms: C_11  and  O_12
REMARK    6  A    between atoms: O_12  and  C_13
REMARK    7  A    between atoms: C_17  and  C_18
REMARK                            x       y       z     vdW  Elec       q    Type
REMARK                         _______ _______ _______ _____ _____    ______ ____
ROOT
ATOM      1  N   UNL     1       3.625   6.120  17.822  0.00  0.00    +0.000 N 
ATOM      2  N   UNL     1       3.568   7.477  18.015  0.00  0.00    +0.000 NA
ATOM      3  C   UNL     1       2.328   7.804  18.203  0.00  0.00    +0.000 C 
ATOM      4  C   UNL     1       1.351   6.659  18.187  0.00  0.00    +0.000 C 
ATOM      5  C   UNL     1       2.301   5.481  17.947  0.00  0.00    +0.000 C 
ENDROOT
BRANCH   5   6
ATOM      6  C   UNL     1       2.278   4.468  19.084  0.00  0.00    +0.000 A 
ATOM      7  C   UNL     1       2.150   4.925  20.414  0.00  0.00    +0.000 A 
ATOM      8  C   UNL     1       2.205   4.043  21.493  0.00  0.00    +0.000 A 
ATOM      9  C   UNL     1       2.393   2.684  21.270  0.00  0.00    +0.000 A 
ATOM     10  C   UNL     1       2.510   2.208  19.966  0.00  0.00    +0.000 A 
ATOM     11  C   UNL     1       2.450   3.089  18.879  0.00  0.00    +0.000 A 
ATOM     12 CL   UNL     1       2.608   2.402  17.301  0.00  0.00    +0.000 Cl
ENDBRANCH   5   6
BRANCH   3  13
ATOM     13  C   UNL     1       1.907   9.209  18.418  0.00  0.00    +0.000 A 
ATOM     14  C   UNL     1       2.599  10.228  17.754  0.00  0.00    +0.000 A 
ATOM     15  C   UNL     1       2.254  11.563  17.963  0.00  0.00    +0.000 A 
ATOM     16  C   UNL     1       1.206  11.894  18.819  0.00  0.00    +0.000 A 
ATOM     17  C   UNL     1       0.513  10.883  19.484  0.00  0.00    +0.000 A 
ATOM     18  C   UNL     1       0.857   9.540  19.283  0.00  0.00    +0.000 A 
BRANCH  16  19
ATOM     19  O   UNL     1       0.983  13.238  18.966  0.00  0.00    +0.000 OA
ATOM     20  C   UNL     1      -0.330  13.689  18.647  0.00  0.00    +0.000 C 
ENDBRANCH  16  19
ENDBRANCH   3  13
BRANCH   1  21
ATOM     21  C   UNL     1       4.856   5.481  17.650  0.00  0.00    +0.000 C 
ATOM     22  S   UNL     1       5.968   5.286  18.900  0.00  0.00    +0.000 S 
BRANCH  21  24
ATOM     23  C   UNL     1       6.138   4.111  15.968  0.00  0.00    +0.000 C 
ATOM     24  N   UNL     1       5.053   4.985  16.370  0.00  0.00    +0.000 N 
ATOM     25  H   UNL     1       4.615   5.508  15.625  0.00  0.00    +0.000 HD
ENDBRANCH  21  24
ENDBRANCH   1  21
TORSDOF 5
ENDMDL
