MODEL 1
REMARK VINA RESULT:      -8.0      0.000      0.000
REMARK  Name = 
REMARK  8 active torsions:
REMARK  status: ('A' for Active; 'I' for Inactive)
REMARK    1  A    between atoms: C_1  and  C_2
REMARK    2  A    between atoms: C_2  and  C_3
REMARK    3  A    between atoms: C_2  and  N_21
REMARK    4  A    between atoms: C_6  and  C_7
REMARK    5  A    between atoms: N_9  and  C_10
REMARK    6  A    between atoms: C_10  and  C_11
REMARK    7  A    between atoms: C_11  and  C_12
REMARK    8  A    between atoms: C_17  and  O_18
REMARK                            x       y       z     vdW  Elec       q    Type
REMARK                         _______ _______ _______ _____ _____    ______ ____
ROOT
ATOM      1  C   UNL     1       2.769   6.924  18.334  0.00  0.00    +0.000 C 
ATOM      2  O   UNL     1       3.691   7.304  17.611  0.00  0.00    +0.000 OA
ATOM      3  N   UNL     1       2.399   5.598  18.398  0.00  0.00    +0.000 N 
ATOM      4  H   UNL     1       1.658   5.347  19.039  0.00  0.00    +0.000 HD
ENDROOT
BRANCH   1   8
ATOM      5  C   UNL     1       0.788   9.615  19.676  0.00  0.00    +0.000 A 
ATOM      6  C   UNL     1       1.010   8.926  20.851  0.00  0.00    +0.000 A 
ATOM      7  C   UNL     1       1.742   7.769  20.519  0.00  0.00    +0.000 A 
ATOM      8  C   UNL     1       1.996   7.830  19.162  0.00  0.00    +0.000 A 
ATOM      9  O   UNL     1       1.401   8.954  18.637  0.00  0.00    +0.000 OA
BRANCH   5  11
ATOM     10  C   UNL     1       0.216  11.886  20.533  0.00  0.00    +0.000 C 
ATOM     11  C   UNL     1       0.068  10.904  19.358  0.00  0.00    +0.000 C 
BRANCH  11  12
ATOM     12  N   UNL     1      -1.358  10.751  18.953  0.00  0.00    +0.000 NA
ATOM     13  C   UNL     1      -2.118  12.001  19.116  0.00  0.00    +0.000 C 
ATOM     14  C   UNL     1      -3.609  11.824  18.805  0.00  0.00    +0.000 C 
ATOM     15  C   UNL     1      -3.824  11.207  17.428  0.00  0.00    +0.000 C 
ATOM     16  C   UNL     1      -3.043   9.907  17.323  0.00  0.00    +0.000 C 
ATOM     17  C   UNL     1      -1.566  10.142  17.633  0.00  0.00    +0.000 C 
ENDBRANCH  11  12
ENDBRANCH   5  11
ENDBRANCH   1   8
BRANCH   3  18
ATOM     18  C   UNL     1       3.059   4.568  17.603  0.00  0.00    +0.000 C 
BRANCH  18  19
ATOM     19  C   UNL     1       4.122   3.818  18.399  0.00  0.00    +0.000 C 
BRANCH  19  20
ATOM     20  C   UNL     1       5.470   4.483  18.320  0.00  0.00    +0.000 A 
ATOM     21  N   UNL     1       5.896   4.899  17.111  0.00  0.00    +0.000 NA
ATOM     22  C   UNL     1       7.056   5.565  17.068  0.00  0.00    +0.000 A 
ATOM     23  N   UNL     1       7.463   6.040  15.820  0.00  0.00    +0.000 N 
ATOM     24  C   UNL     1       7.797   5.844  18.190  0.00  0.00    +0.000 A 
ATOM     25  C   UNL     1       7.278   5.371  19.370  0.00  0.00    +0.000 A 
ATOM     26  N   UNL     1       6.131   4.693  19.470  0.00  0.00    +0.000 NA
ATOM     27  H   UNL     1       6.814   5.675  15.126  0.00  0.00    +0.000 HD
ATOM     28  H   UNL     1       8.423   5.804  15.603  0.00  0.00    +0.000 HD
BRANCH  25  29
ATOM     29  O   UNL     1       7.922   5.581  20.556  0.00  0.00    +0.000 OA
ATOM     30  H   UNL     1       8.044   6.535  20.673  0.00  0.00    +0.000 HD
ENDBRANCH  25  29
ENDBRANCH  19  20
ENDBRANCH  18  19
ENDBRANCH   3  18
TORSDOF 7
ENDMDL
MODEL 2
REMARK VINA RESULT:      -7.9      1.800      2.902
REMARK  Name = 
REMARK  8 active torsions:
REMARK  status: ('A' for Active; 'I' for Inactive)
REMARK    1  A    between atoms: C_1  and  C_2
REMARK    2  A    between atoms: C_2  and  C_3
REMARK    3  A    between atoms: C_2  and  N_21
REMARK    4  A    between atoms: C_6  and  C_7
REMARK    5  A    between atoms: N_9  and  C_10
REMARK    6  A    between atoms: C_10  and  C_11
REMARK    7  A    between atoms: C_11  and  C_12
REMARK    8  A    between atoms: C_17  and  O_18
REMARK                            x       y       z     vdW  Elec       q    Type
REMARK                         _______ _______ _______ _____ _____    ______ ____
ROOT
ATOM      1  C   UNL     1       3.551   5.584  18.471  0.00  0.00    +0.000 C 
ATOM      2  O   UNL     1       3.803   4.888  19.456  0.00  0.00    +0.000 OA
ATOM      3  N   UNL     1       3.870   5.174  17.194  0.00  0.00    +0.000 N 
ATOM      4  H   UNL     1       3.603   5.776  16.427  0.00  0.00    +0.000 HD
ENDROOT
BRANCH   1   8
ATOM      5  C   UNL     1       1.793   8.555  19.496  0.00  0.00    +0.000 A 
ATOM      6  C   UNL     1       2.004   8.894  18.175  0.00  0.00    +0.000 A 
ATOM      7  C   UNL     1       2.754   7.851  17.596  0.00  0.00    +0.000 A 
ATOM      8  C   UNL     1       2.916   6.884  18.570  0.00  0.00    +0.000 A 
ATOM      9  O   UNL     1       2.340   7.316  19.742  0.00  0.00    +0.000 OA
BRANCH   5  11
ATOM     10  C   UNL     1       0.155   8.245  21.350  0.00  0.00    +0.000 C 
ATOM     11  C   UNL     1       1.081   9.244  20.636  0.00  0.00    +0.000 C 
BRANCH  11  12
ATOM     12  N   UNL     1       0.354  10.493  20.269  0.00  0.00    +0.000 NA
ATOM     13  C   UNL     1      -0.849  10.218  19.467  0.00  0.00    +0.000 C 
ATOM     14  C   UNL     1      -1.542  11.501  18.994  0.00  0.00    +0.000 C 
ATOM     15  C   UNL     1      -1.839  12.439  20.157  0.00  0.00    +0.000 C 
ATOM     16  C   UNL     1      -0.560  12.713  20.932  0.00  0.00    +0.000 C 
ATOM     17  C   UNL     1       0.083  11.404  21.387  0.00  0.00    +0.000 C 
ENDBRANCH  11  12
ENDBRANCH   5  11
ENDBRANCH   1   8
BRANCH   3  18
ATOM     18  C   UNL     1       4.540   3.905  16.930  0.00  0.00    +0.000 C 
BRANCH  18  19
ATOM     19  C   UNL     1       5.993   4.097  16.507  0.00  0.00    +0.000 C 
BRANCH  19  20
ATOM     20  C   UNL     1       6.699   5.131  17.343  0.00  0.00    +0.000 A 
ATOM     21  N   UNL     1       7.194   4.744  18.536  0.00  0.00    +0.000 NA
ATOM     22  C   UNL     1       7.893   5.649  19.230  0.00  0.00    +0.000 A 
ATOM     23  N   UNL     1       8.448   5.224  20.438  0.00  0.00    +0.000 N 
ATOM     24  C   UNL     1       8.129   6.921  18.768  0.00  0.00    +0.000 A 
ATOM     25  C   UNL     1       7.577   7.216  17.547  0.00  0.00    +0.000 A 
ATOM     26  N   UNL     1       6.862   6.355  16.816  0.00  0.00    +0.000 NA
ATOM     27  H   UNL     1       8.105   4.284  20.619  0.00  0.00    +0.000 HD
ATOM     28  H   UNL     1       8.252   5.855  21.205  0.00  0.00    +0.000 HD
BRANCH  25  29
ATOM     29  O   UNL     1       7.738   8.449  16.981  0.00  0.00    +0.000 OA
ATOM     30  H   UNL     1       8.556   8.837  17.323  0.00  0.00    +0.000 HD
ENDBRANCH  25  29
ENDBRANCH  19  20
ENDBRANCH  18  19
ENDBRANCH   3  18
TORSDOF 7
ENDMDL
MODEL 3
REMARK VINA RESULT:      -7.9      1.309      1.825
REMARK  Name = 
REMARK  8 active torsions:
REMARK  status: ('A' for Active; 'I' for Inactive)
REMARK    1  A    between atoms: C_1  and  C_2
REMARK    2  A    between atoms: C_2  and  C_3
REMARK    3  A    between atoms: C_2  and  N_21
REMARK    4  A    between atoms: C_6  and  C_7
REMARK    5  A    between atoms: N_9  and  C_10
REMARK    6  A    between atoms: C_10  and  C_11
REMARK    7  A    between atoms: C_11  and  C_12
REMARK    8  A    between atoms: C_17  and  O_18
REMARK                            x       y       z     vdW  Elec       q    Type
REMARK                         _______ _______ _______ _____ _____    ______ ____
ROOT
ATOM      1  C   UNL     1       2.420   5.816  19.347  0.00  0.00    +0.000 C 
ATOM      2  O   UNL     1       2.592   5.479  20.520  0.00  0.00    +0.000 OA
ATOM      3  N   UNL     1       2.360   4.888  18.330  0.00  0.00    +0.000 N 
ATOM      4  H   UNL     1       2.181   5.228  17.394  0.00  0.00    +0.000 HD
ENDROOT
BRANCH   1   8
ATOM      5  C   UNL     1       1.577   9.301  19.016  0.00  0.00    +0.000 A 
ATOM      6  C   UNL     1       2.296   9.157  17.847  0.00  0.00    +0.000 A 
ATOM      7  C   UNL     1       2.779   7.834  17.819  0.00  0.00    +0.000 A 
ATOM      8  C   UNL     1       2.279   7.201  18.941  0.00  0.00    +0.000 A 
ATOM      9  O   UNL     1       1.552   8.100  19.687  0.00  0.00    +0.000 OA
BRANCH   5  11
ATOM     10  C   UNL     1       0.502  10.147  21.101  0.00  0.00    +0.000 C 
ATOM     11  C   UNL     1       0.829  10.461  19.630  0.00  0.00    +0.000 C 
BRANCH  11  12
ATOM     12  N   UNL     1      -0.384  10.901  18.885  0.00  0.00    +0.000 NA
ATOM     13  C   UNL     1      -0.878   9.861  17.967  0.00  0.00    +0.000 C 
ATOM     14  C   UNL     1      -2.058  10.345  17.118  0.00  0.00    +0.000 C 
ATOM     15  C   UNL     1      -3.177  10.912  17.984  0.00  0.00    +0.000 C 
ATOM     16  C   UNL     1      -2.620  11.999  18.889  0.00  0.00    +0.000 C 
ATOM     17  C   UNL     1      -1.454  11.462  19.718  0.00  0.00    +0.000 C 
ENDBRANCH  11  12
ENDBRANCH   5  11
ENDBRANCH   1   8
BRANCH   3  18
ATOM     18  C   UNL     1       2.516   3.458  18.571  0.00  0.00    +0.000 C 
BRANCH  18  19
ATOM     19  C   UNL     1       3.863   2.934  18.083  0.00  0.00    +0.000 C 
BRANCH  19  20
ATOM     20  C   UNL     1       4.892   4.025  17.968  0.00  0.00    +0.000 A 
ATOM     21  N   UNL     1       4.892   4.775  16.848  0.00  0.00    +0.000 NA
ATOM     22  C   UNL     1       5.755   5.796  16.795  0.00  0.00    +0.000 A 
ATOM     23  N   UNL     1       5.709   6.601  15.656  0.00  0.00    +0.000 N 
ATOM     24  C   UNL     1       6.607   6.105  17.828  0.00  0.00    +0.000 A 
ATOM     25  C   UNL     1       6.533   5.276  18.919  0.00  0.00    +0.000 A 
ATOM     26  N   UNL     1       5.698   4.238  19.022  0.00  0.00    +0.000 NA
ATOM     27  H   UNL     1       5.065   6.167  14.999  0.00  0.00    +0.000 HD
ATOM     28  H   UNL     1       6.623   6.754  15.245  0.00  0.00    +0.000 HD
BRANCH  25  29
ATOM     29  O   UNL     1       7.330   5.477  20.010  0.00  0.00    +0.000 OA
ATOM     30  H   UNL     1       7.726   4.629  20.260  0.00  0.00    +0.000 HD
ENDBRANCH  25  29
ENDBRANCH  19  20
ENDBRANCH  18  19
ENDBRANCH   3  18
TORSDOF 7
ENDMDL
MODEL 4
REMARK VINA RESULT:      -7.9      1.600      2.340
REMARK  Name = 
REMARK  8 active torsions:
REMARK  status: ('A' for Active; 'I' for Inactive)
REMARK    1  A    between atoms: C_1  and  C_2
REMARK    2  A    between atoms: C_2  and  C_3
REMARK    3  A    between atoms: C_2  and  N_21
REMARK    4  A    between atoms: C_6  and  C_7
REMARK    5  A    between atoms: N_9  and  C_10
REMARK    6  A    between atoms: C_10  and  C_11
REMARK    7  A    between atoms: C_11  and  C_12
REMARK    8  A    between atoms: C_17  and  O_18
REMARK                            x       y       z     vdW  Elec       q    Type
REMARK                         _______ _______ _______ _____ _____    ______ ____
ROOT
ATOM      1  C   UNL     1       2.354   6.012  19.632  0.00  0.00    +0.000 C 
ATOM      2  O   UNL     1       2.072   5.727  20.798  0.00  0.00    +0.000 OA
ATOM      3  N   UNL     1       2.855   5.072  18.759  0.00  0.00    +0.000 N 
ATOM      4  H   UNL     1       3.030   5.362  17.806  0.00  0.00    +0.000 HD
ENDROOT
BRANCH   1   8
ATOM      5  C   UNL     1       1.452   9.431  18.949  0.00  0.00    +0.000 A 
ATOM      6  C   UNL     1       2.196   9.190  17.812  0.00  0.00    +0.000 A 
ATOM      7  C   UNL     1       2.704   7.880  17.921  0.00  0.00    +0.000 A 
ATOM      8  C   UNL     1       2.195   7.348  19.091  0.00  0.00    +0.000 A 
ATOM      9  O   UNL     1       1.437   8.300  19.733  0.00  0.00    +0.000 OA
BRANCH   5  11
ATOM     10  C   UNL     1       0.390  10.490  20.941  0.00  0.00    +0.000 C 
ATOM     11  C   UNL     1       0.671  10.629  19.435  0.00  0.00    +0.000 C 
BRANCH  11  12
ATOM     12  N   UNL     1      -0.576  10.926  18.674  0.00  0.00    +0.000 NA
ATOM     13  C   UNL     1      -0.974   9.806  17.804  0.00  0.00    +0.000 C 
ATOM     14  C   UNL     1      -2.192  10.144  16.937  0.00  0.00    +0.000 C 
ATOM     15  C   UNL     1      -3.357  10.647  17.781  0.00  0.00    +0.000 C 
ATOM     16  C   UNL     1      -2.901  11.819  18.635  0.00  0.00    +0.000 C 
ATOM     17  C   UNL     1      -1.693  11.425  19.484  0.00  0.00    +0.000 C 
ENDBRANCH  11  12
ENDBRANCH   5  11
ENDBRANCH   1   8
BRANCH   3  18
ATOM     18  C   UNL     1       3.101   3.691  19.160  0.00  0.00    +0.000 C 
BRANCH  18  19
ATOM     19  C   UNL     1       4.387   3.135  18.555  0.00  0.00    +0.000 C 
BRANCH  19  20
ATOM     20  C   UNL     1       5.407   4.211  18.296  0.00  0.00    +0.000 A 
ATOM     21  N   UNL     1       6.279   4.502  19.282  0.00  0.00    +0.000 NA
ATOM     22  C   UNL     1       7.234   5.398  19.009  0.00  0.00    +0.000 A 
ATOM     23  N   UNL     1       8.165   5.652  20.017  0.00  0.00    +0.000 N 
ATOM     24  C   UNL     1       7.359   6.002  17.781  0.00  0.00    +0.000 A 
ATOM     25  C   UNL     1       6.418   5.642  16.850  0.00  0.00    +0.000 A 
ATOM     26  N   UNL     1       5.438   4.761  17.071  0.00  0.00    +0.000 NA
ATOM     27  H   UNL     1       7.858   5.158  20.851  0.00  0.00    +0.000 HD
ATOM     28  H   UNL     1       8.299   6.641  20.190  0.00  0.00    +0.000 HD
BRANCH  25  29
ATOM     29  O   UNL     1       6.433   6.175  15.592  0.00  0.00    +0.000 OA
ATOM     30  H   UNL     1       6.184   7.109  15.653  0.00  0.00    +0.000 HD
ENDBRANCH  25  29
ENDBRANCH  19  20
ENDBRANCH  18  19
ENDBRANCH   3  18
TORSDOF 7
ENDMDL
MODEL 5
REMARK VINA RESULT:      -7.8      5.266      7.579
REMARK  Name = 
REMARK  8 active torsions:
REMARK  status: ('A' for Active; 'I' for Inactive)
REMARK    1  A    between atoms: C_1  and  C_2
REMARK    2  A    between atoms: C_2  and  C_3
REMARK    3  A    between atoms: C_2  and  N_21
REMARK    4  A    between atoms: C_6  and  C_7
REMARK    5  A    between atoms: N_9  and  C_10
REMARK    6  A    between atoms: C_10  and  C_11
REMARK    7  A    between atoms: C_11  and  C_12
REMARK    8  A    between atoms: C_17  and  O_18
REMARK                            x       y       z     vdW  Elec       q    Type
REMARK                         _______ _______ _______ _____ _____    ______ ____
ROOT
ATOM      1  C   UNL     1       7.078   6.076  18.294  0.00  0.00    +0.000 C 
ATOM      2  O   UNL     1       7.614   5.618  19.305  0.00  0.00    +0.000 OA
ATOM      3  N   UNL     1       7.421   7.311  17.789  0.00  0.00    +0.000 N 
ATOM      4  H   UNL     1       6.969   7.612  16.936  0.00  0.00    +0.000 HD
ENDROOT
BRANCH   1   8
ATOM      5  C   UNL     1       4.176   4.216  17.248  0.00  0.00    +0.000 A 
ATOM      6  C   UNL     1       4.815   4.295  16.026  0.00  0.00    +0.000 A 
ATOM      7  C   UNL     1       5.981   5.061  16.218  0.00  0.00    +0.000 A 
ATOM      8  C   UNL     1       6.044   5.367  17.565  0.00  0.00    +0.000 A 
ATOM      9  O   UNL     1       4.932   4.862  18.199  0.00  0.00    +0.000 OA
BRANCH   5  11
ATOM     10  C   UNL     1       1.697   4.204  16.985  0.00  0.00    +0.000 C 
ATOM     11  C   UNL     1       2.895   3.557  17.701  0.00  0.00    +0.000 C 
BRANCH  11  12
ATOM     12  N   UNL     1       2.690   3.515  19.176  0.00  0.00    +0.000 NA
ATOM     13  C   UNL     1       1.284   3.741  19.547  0.00  0.00    +0.000 C 
ATOM     14  C   UNL     1       1.083   3.808  21.065  0.00  0.00    +0.000 C 
ATOM     15  C   UNL     1       1.662   2.582  21.761  0.00  0.00    +0.000 C 
ATOM     16  C   UNL     1       3.120   2.413  21.368  0.00  0.00    +0.000 C 
ATOM     17  C   UNL     1       3.262   2.342  19.849  0.00  0.00    +0.000 C 
ENDBRANCH  11  12
ENDBRANCH   5  11
ENDBRANCH   1   8
BRANCH   3  18
ATOM     18  C   UNL     1       8.421   8.161  18.427  0.00  0.00    +0.000 C 
BRANCH  18  19
ATOM     19  C   UNL     1       8.246   9.632  18.060  0.00  0.00    +0.000 C 
BRANCH  19  20
ATOM     20  C   UNL     1       9.349  10.493  18.613  0.00  0.00    +0.000 A 
ATOM     21  N   UNL     1      10.255  10.989  17.746  0.00  0.00    +0.000 NA
ATOM     22  C   UNL     1      11.179  11.821  18.237  0.00  0.00    +0.000 A 
ATOM     23  N   UNL     1      12.079  12.373  17.323  0.00  0.00    +0.000 N 
ATOM     24  C   UNL     1      11.222  12.191  19.560  0.00  0.00    +0.000 A 
ATOM     25  C   UNL     1      10.260  11.625  20.359  0.00  0.00    +0.000 A 
ATOM     26  N   UNL     1       9.320  10.781  19.924  0.00  0.00    +0.000 NA
ATOM     27  H   UNL     1      11.915  11.926  16.424  0.00  0.00    +0.000 HD
ATOM     28  H   UNL     1      13.044  12.288  17.620  0.00  0.00    +0.000 HD
BRANCH  25  29
ATOM     29  O   UNL     1      10.198  11.911  21.693  0.00  0.00    +0.000 OA
ATOM     30  H   UNL     1      11.024  11.622  22.107  0.00  0.00    +0.000 HD
ENDBRANCH  25  29
ENDBRANCH  19  20
ENDBRANCH  18  19
ENDBRANCH   3  18
TORSDOF 7
ENDMDL
MODEL 6
REMARK VINA RESULT:      -7.8      2.770      9.097
REMARK  Name = 
REMARK  8 active torsions:
REMARK  status: ('A' for Active; 'I' for Inactive)
REMARK    1  A    between atoms: C_1  and  C_2
REMARK    2  A    between atoms: C_2  and  C_3
REMARK    3  A    between atoms: C_2  and  N_21
REMARK    4  A    between atoms: C_6  and  C_7
REMARK    5  A    between atoms: N_9  and  C_10
REMARK    6  A    between atoms: C_10  and  C_11
REMARK    7  A    between atoms: C_11  and  C_12
REMARK    8  A    between atoms: C_17  and  O_18
REMARK                            x       y       z     vdW  Elec       q    Type
REMARK                         _______ _______ _______ _____ _____    ______ ____
ROOT
ATOM      1  C   UNL     1       0.700  10.266  19.526  0.00  0.00    +0.000 C 
ATOM      2  O   UNL     1       0.410  10.358  20.721  0.00  0.00    +0.000 OA
ATOM      3  N   UNL     1       0.265  11.192  18.603  0.00  0.00    +0.000 N 
ATOM      4  H   UNL     1       0.568  11.078  17.645  0.00  0.00    +0.000 HD
ENDROOT
BRANCH   1   8
ATOM      5  C   UNL     1       2.636   7.277  18.990  0.00  0.00    +0.000 A 
ATOM      6  C   UNL     1       2.808   7.852  17.747  0.00  0.00    +0.000 A 
ATOM      7  C   UNL     1       2.054   9.042  17.735  0.00  0.00    +0.000 A 
ATOM      8  C   UNL     1       1.502   9.181  18.994  0.00  0.00    +0.000 A 
ATOM      9  O   UNL     1       1.845   8.094  19.765  0.00  0.00    +0.000 OA
BRANCH   5  11
ATOM     10  C   UNL     1       4.470   5.589  18.932  0.00  0.00    +0.000 C 
ATOM     11  C   UNL     1       3.159   6.008  19.620  0.00  0.00    +0.000 C 
BRANCH  11  12
ATOM     12  N   UNL     1       2.188   4.879  19.676  0.00  0.00    +0.000 NA
ATOM     13  C   UNL     1       2.188   4.086  18.436  0.00  0.00    +0.000 C 
ATOM     14  C   UNL     1       1.116   2.991  18.442  0.00  0.00    +0.000 C 
ATOM     15  C   UNL     1       1.226   2.106  19.678  0.00  0.00    +0.000 C 
ATOM     16  C   UNL     1       1.191   2.971  20.928  0.00  0.00    +0.000 C 
ATOM     17  C   UNL     1       2.283   4.037  20.874  0.00  0.00    +0.000 C 
ENDBRANCH  11  12
ENDBRANCH   5  11
ENDBRANCH   1   8
BRANCH   3  18
ATOM     18  C   UNL     1      -0.577  12.324  18.974  0.00  0.00    +0.000 C 
BRANCH  18  19
ATOM     19  C   UNL     1      -1.978  11.888  19.392  0.00  0.00    +0.000 C 
BRANCH  19  20
ATOM     20  C   UNL     1      -2.839  11.526  18.212  0.00  0.00    +0.000 A 
ATOM     21  N   UNL     1      -4.169  11.722  18.319  0.00  0.00    +0.000 NA
ATOM     22  C   UNL     1      -4.912  11.476  17.234  0.00  0.00    +0.000 A 
ATOM     23  N   UNL     1      -6.279  11.735  17.336  0.00  0.00    +0.000 N 
ATOM     24  C   UNL     1      -4.373  11.059  16.041  0.00  0.00    +0.000 A 
ATOM     25  C   UNL     1      -3.012  10.884  16.040  0.00  0.00    +0.000 A 
ATOM     26  N   UNL     1      -2.223  11.104  17.096  0.00  0.00    +0.000 NA
ATOM     27  H   UNL     1      -6.475  11.971  18.306  0.00  0.00    +0.000 HD
ATOM     28  H   UNL     1      -6.851  10.965  17.011  0.00  0.00    +0.000 HD
BRANCH  25  29
ATOM     29  O   UNL     1      -2.357  10.469  14.915  0.00  0.00    +0.000 OA
ATOM     30  H   UNL     1      -1.703  11.141  14.677  0.00  0.00    +0.000 HD
ENDBRANCH  25  29
ENDBRANCH  19  20
ENDBRANCH  18  19
ENDBRANCH   3  18
TORSDOF 7
ENDMDL
MODEL 7
REMARK VINA RESULT:      -7.8      5.103      7.917
REMARK  Name = 
REMARK  8 active torsions:
REMARK  status: ('A' for Active; 'I' for Inactive)
REMARK    1  A    between atoms: C_1  and  C_2
REMARK    2  A    between atoms: C_2  and  C_3
REMARK    3  A    between atoms: C_2  and  N_21
REMARK    4  A    between atoms: C_6  and  C_7
REMARK    5  A    between atoms: N_9  and  C_10
REMARK    6  A    between atoms: C_10  and  C_11
REMARK    7  A    between atoms: C_11  and  C_12
REMARK    8  A    between atoms: C_17  and  O_18
REMARK                            x       y       z     vdW  Elec       q    Type
REMARK                         _______ _______ _______ _____ _____    ______ ____
ROOT
ATOM      1  C   UNL     1       7.496   6.421  18.185  0.00  0.00    +0.000 C 
ATOM      2  O   UNL     1       8.131   5.988  19.148  0.00  0.00    +0.000 OA
ATOM      3  N   UNL     1       7.712   7.687  17.686  0.00  0.00    +0.000 N 
ATOM      4  H   UNL     1       7.183   7.968  16.871  0.00  0.00    +0.000 HD
ENDROOT
BRANCH   1   8
ATOM      5  C   UNL     1       4.800   4.210  17.282  0.00  0.00    +0.000 A 
ATOM      6  C   UNL     1       5.152   4.625  16.013  0.00  0.00    +0.000 A 
ATOM      7  C   UNL     1       6.185   5.571  16.160  0.00  0.00    +0.000 A 
ATOM      8  C   UNL     1       6.470   5.649  17.510  0.00  0.00    +0.000 A 
ATOM      9  O   UNL     1       5.614   4.826  18.205  0.00  0.00    +0.000 OA
BRANCH   5  11
ATOM     10  C   UNL     1       2.577   3.177  16.829  0.00  0.00    +0.000 C 
ATOM     11  C   UNL     1       3.770   3.233  17.798  0.00  0.00    +0.000 C 
BRANCH  11  12
ATOM     12  N   UNL     1       3.323   3.465  19.201  0.00  0.00    +0.000 NA
ATOM     13  C   UNL     1       2.281   4.502  19.286  0.00  0.00    +0.000 C 
ATOM     14  C   UNL     1       1.894   4.824  20.734  0.00  0.00    +0.000 C 
ATOM     15  C   UNL     1       1.505   3.566  21.502  0.00  0.00    +0.000 C 
ATOM     16  C   UNL     1       2.625   2.543  21.407  0.00  0.00    +0.000 C 
ATOM     17  C   UNL     1       2.964   2.253  19.946  0.00  0.00    +0.000 C 
ENDBRANCH  11  12
ENDBRANCH   5  11
ENDBRANCH   1   8
BRANCH   3  18
ATOM     18  C   UNL     1       8.688   8.599  18.275  0.00  0.00    +0.000 C 
BRANCH  18  19
ATOM     19  C   UNL     1       8.415  10.053  17.904  0.00  0.00    +0.000 C 
BRANCH  19  20
ATOM     20  C   UNL     1       9.393  10.999  18.546  0.00  0.00    +0.000 A 
ATOM     21  N   UNL     1       9.240  11.268  19.858  0.00  0.00    +0.000 NA
ATOM     22  C   UNL     1      10.165  12.042  20.436  0.00  0.00    +0.000 A 
ATOM     23  N   UNL     1      10.029  12.270  21.806  0.00  0.00    +0.000 N 
ATOM     24  C   UNL     1      11.248  12.543  19.754  0.00  0.00    +0.000 A 
ATOM     25  C   UNL     1      11.307  12.217  18.423  0.00  0.00    +0.000 A 
ATOM     26  N   UNL     1      10.406  11.457  17.793  0.00  0.00    +0.000 NA
ATOM     27  H   UNL     1       9.141  11.868  22.097  0.00  0.00    +0.000 HD
ATOM     28  H   UNL     1      10.101  13.250  22.052  0.00  0.00    +0.000 HD
BRANCH  25  29
ATOM     29  O   UNL     1      12.333  12.657  17.636  0.00  0.00    +0.000 OA
ATOM     30  H   UNL     1      13.161  12.292  17.980  0.00  0.00    +0.000 HD
ENDBRANCH  25  29
ENDBRANCH  19  20
ENDBRANCH  18  19
ENDBRANCH   3  18
TORSDOF 7
ENDMDL
MODEL 8
REMARK VINA RESULT:      -7.7      1.596      2.080
REMARK  Name = 
REMARK  8 active torsions:
REMARK  status: ('A' for Active; 'I' for Inactive)
REMARK    1  A    between atoms: C_1  and  C_2
REMARK    2  A    between atoms: C_2  and  C_3
REMARK    3  A    between atoms: C_2  and  N_21
REMARK    4  A    between atoms: C_6  and  C_7
REMARK    5  A    between atoms: N_9  and  C_10
REMARK    6  A    between atoms: C_10  and  C_11
REMARK    7  A    between atoms: C_11  and  C_12
REMARK    8  A    between atoms: C_17  and  O_18
REMARK                            x       y       z     vdW  Elec       q    Type
REMARK                         _______ _______ _______ _____ _____    ______ ____
ROOT
ATOM      1  C   UNL     1       2.353   5.375  19.703  0.00  0.00    +0.000 C 
ATOM      2  O   UNL     1       2.584   4.885  20.810  0.00  0.00    +0.000 OA
ATOM      3  N   UNL     1       2.298   4.599  18.566  0.00  0.00    +0.000 N 
ATOM      4  H   UNL     1       2.068   5.058  17.694  0.00  0.00    +0.000 HD
ENDROOT
BRANCH   1   8
ATOM      5  C   UNL     1       1.470   8.856  19.970  0.00  0.00    +0.000 A 
ATOM      6  C   UNL     1       1.935   8.867  18.671  0.00  0.00    +0.000 A 
ATOM      7  C   UNL     1       2.398   7.567  18.387  0.00  0.00    +0.000 A 
ATOM      8  C   UNL     1       2.137   6.795  19.503  0.00  0.00    +0.000 A 
ATOM      9  O   UNL     1       1.580   7.584  20.483  0.00  0.00    +0.000 OA
BRANCH   5  11
ATOM     10  C   UNL     1       0.202   9.259  22.079  0.00  0.00    +0.000 C 
ATOM     11  C   UNL     1       0.867   9.919  20.859  0.00  0.00    +0.000 C 
BRANCH  11  12
ATOM     12  N   UNL     1      -0.061  10.865  20.177  0.00  0.00    +0.000 NA
ATOM     13  C   UNL     1       0.654  11.992  19.556  0.00  0.00    +0.000 C 
ATOM     14  C   UNL     1      -0.301  13.025  18.947  0.00  0.00    +0.000 C 
ATOM     15  C   UNL     1      -1.284  12.377  17.979  0.00  0.00    +0.000 C 
ATOM     16  C   UNL     1      -2.015  11.242  18.678  0.00  0.00    +0.000 C 
ATOM     17  C   UNL     1      -1.019  10.239  19.257  0.00  0.00    +0.000 C 
ENDBRANCH  11  12
ENDBRANCH   5  11
ENDBRANCH   1   8
BRANCH   3  18
ATOM     18  C   UNL     1       2.525   3.158  18.596  0.00  0.00    +0.000 C 
BRANCH  18  19
ATOM     19  C   UNL     1       3.854   2.770  17.955  0.00  0.00    +0.000 C 
BRANCH  19  20
ATOM     20  C   UNL     1       4.811   3.930  17.879  0.00  0.00    +0.000 A 
ATOM     21  N   UNL     1       4.742   4.732  16.798  0.00  0.00    +0.000 NA
ATOM     22  C   UNL     1       5.539   5.807  16.784  0.00  0.00    +0.000 A 
ATOM     23  N   UNL     1       5.423   6.662  15.686  0.00  0.00    +0.000 N 
ATOM     24  C   UNL     1       6.388   6.119  17.817  0.00  0.00    +0.000 A 
ATOM     25  C   UNL     1       6.386   5.235  18.867  0.00  0.00    +0.000 A 
ATOM     26  N   UNL     1       5.620   4.142  18.930  0.00  0.00    +0.000 NA
ATOM     27  H   UNL     1       4.795   6.220  15.019  0.00  0.00    +0.000 HD
ATOM     28  H   UNL     1       6.317   6.893  15.270  0.00  0.00    +0.000 HD
BRANCH  25  29
ATOM     29  O   UNL     1       7.188   5.433  19.955  0.00  0.00    +0.000 OA
ATOM     30  H   UNL     1       7.992   5.886  19.663  0.00  0.00    +0.000 HD
ENDBRANCH  25  29
ENDBRANCH  19  20
ENDBRANCH  18  19
ENDBRANCH   3  18
TORSDOF 7
ENDMDL
MODEL 9
REMARK VINA RESULT:      -7.7      1.348      2.003
REMARK  Name = 
REMARK  8 active torsions:
REMARK  status: ('A' for Active; 'I' for Inactive)
REMARK    1  A    between atoms: C_1  and  C_2
REMARK    2  A    between atoms: C_2  and  C_3
REMARK    3  A    between atoms: C_2  and  N_21
REMARK    4  A    between atoms: C_6  and  C_7
REMARK    5  A    between atoms: N_9  and  C_10
REMARK    6  A    between atoms: C_10  and  C_11
REMARK    7  A    between atoms: C_11  and  C_12
REMARK    8  A    between atoms: C_17  and  O_18
REMARK                            x       y       z     vdW  Elec       q    Type
REMARK                         _______ _______ _______ _____ _____    ______ ____
ROOT
ATOM      1  C   UNL     1       2.482   5.775  18.741  0.00  0.00    +0.000 C 
ATOM      2  O   UNL     1       1.844   4.962  18.069  0.00  0.00    +0.000 OA
ATOM      3  N   UNL     1       3.447   5.372  19.639  0.00  0.00    +0.000 N 
ATOM      4  H   UNL     1       3.959   6.092  20.132  0.00  0.00    +0.000 HD
ENDROOT
BRANCH   1   8
ATOM      5  C   UNL     1       1.550   9.215  19.257  0.00  0.00    +0.000 A 
ATOM      6  C   UNL     1       2.100   9.344  17.998  0.00  0.00    +0.000 A 
ATOM      7  C   UNL     1       2.593   8.076  17.631  0.00  0.00    +0.000 A 
ATOM      8  C   UNL     1       2.266   7.206  18.654  0.00  0.00    +0.000 A 
ATOM      9  O   UNL     1       1.637   7.902  19.661  0.00  0.00    +0.000 OA
BRANCH   5  11
ATOM     10  C   UNL     1       0.398   9.453  21.456  0.00  0.00    +0.000 C 
ATOM     11  C   UNL     1       0.879  10.191  20.194  0.00  0.00    +0.000 C 
BRANCH  11  12
ATOM     12  N   UNL     1      -0.213  11.004  19.588  0.00  0.00    +0.000 NA
ATOM     13  C   UNL     1      -1.162  10.177  18.826  0.00  0.00    +0.000 C 
ATOM     14  C   UNL     1      -2.226  11.016  18.110  0.00  0.00    +0.000 C 
ATOM     15  C   UNL     1      -2.942  11.954  19.074  0.00  0.00    +0.000 C 
ATOM     16  C   UNL     1      -1.921  12.804  19.813  0.00  0.00    +0.000 C 
ATOM     17  C   UNL     1      -0.892  11.919  20.514  0.00  0.00    +0.000 C 
ENDBRANCH  11  12
ENDBRANCH   5  11
ENDBRANCH   1   8
BRANCH   3  18
ATOM     18  C   UNL     1       3.760   3.965  19.865  0.00  0.00    +0.000 C 
BRANCH  18  19
ATOM     19  C   UNL     1       4.772   3.431  18.856  0.00  0.00    +0.000 C 
BRANCH  19  20
ATOM     20  C   UNL     1       5.631   4.523  18.277  0.00  0.00    +0.000 A 
ATOM     21  N   UNL     1       5.284   5.026  17.076  0.00  0.00    +0.000 NA
ATOM     22  C   UNL     1       6.005   6.053  16.612  0.00  0.00    +0.000 A 
ATOM     23  N   UNL     1       5.604   6.604  15.394  0.00  0.00    +0.000 N 
ATOM     24  C   UNL     1       7.049   6.607  17.312  0.00  0.00    +0.000 A 
ATOM     25  C   UNL     1       7.325   6.017  18.520  0.00  0.00    +0.000 A 
ATOM     26  N   UNL     1       6.645   4.984  19.027  0.00  0.00    +0.000 NA
ATOM     27  H   UNL     1       4.864   6.015  15.020  0.00  0.00    +0.000 HD
ATOM     28  H   UNL     1       6.369   6.713  14.739  0.00  0.00    +0.000 HD
BRANCH  25  29
ATOM     29  O   UNL     1       8.341   6.474  19.310  0.00  0.00    +0.000 OA
ATOM     30  H   UNL     1       9.060   5.826  19.288  0.00  0.00    +0.000 HD
ENDBRANCH  25  29
ENDBRANCH  19  20
ENDBRANCH  18  19
ENDBRANCH   3  18
TORSDOF 7
ENDMDL
