MODEL 1
REMARK VINA RESULT:      -7.1      0.000      0.000
REMARK  Name = 
REMARK  13 active torsions:
REMARK  status: ('A' for Active; 'I' for Inactive)
REMARK    1  A    between atoms: C_1  and  C_2
REMARK    2  A    between atoms: C_2  and  O_3
REMARK    3  A    between atoms: O_3  and  C_4
REMARK    4  A    between atoms: C_7  and  C_8
REMARK    5  A    between atoms: C_10  and  C_11
REMARK    6  A    between atoms: C_11  and  S_12
REMARK    7  A    between atoms: S_12  and  C_13
REMARK    8  A    between atoms: C_13  and  C_14
REMARK    9  A    between atoms: N_16  and  C_17
REMARK   10  A    between atoms: C_17  and  C_18
REMARK   11  A    between atoms: C_17  and  C_19
REMARK   12  A    between atoms: C_19  and  C_20
REMARK   13  A    between atoms: C_21  and  C_22
REMARK                            x       y       z     vdW  Elec       q    Type
REMARK                         _______ _______ _______ _____ _____    ______ ____
ROOT
ATOM      1  C   UNL     1       8.197   8.706  18.087  0.00  0.00    +0.000 A 
ATOM      2  N   UNL     1       7.471   8.292  17.066  0.00  0.00    +0.000 NA
ATOM      3  C   UNL     1       7.272   6.942  17.315  0.00  0.00    +0.000 A 
ATOM      4  C   UNL     1       7.891   6.603  18.501  0.00  0.00    +0.000 A 
ATOM      5  C   UNL     1       8.031   5.389  19.321  0.00  0.00    +0.000 C 
ATOM      6  O   UNL     1       8.488   7.723  18.995  0.00  0.00    +0.000 OA
ENDROOT
BRANCH   1  10
ATOM      7  C   UNL     1       9.730  12.588  18.998  0.00  0.00    +0.000 A 
ATOM      8  C   UNL     1       8.911  12.394  17.888  0.00  0.00    +0.000 A 
ATOM      9  C   UNL     1       8.404  11.128  17.598  0.00  0.00    +0.000 A 
ATOM     10  C   UNL     1       8.725  10.023  18.399  0.00  0.00    +0.000 A 
ATOM     11  C   UNL     1       9.577  10.223  19.497  0.00  0.00    +0.000 A 
ATOM     12  C   UNL     1      10.080  11.497  19.794  0.00  0.00    +0.000 A 
BRANCH   7  13
ATOM     13  O   UNL     1      10.138  13.875  19.181  0.00  0.00    +0.000 OA
BRANCH  13  15
ATOM     14  C   UNL     1      11.089  15.604  17.863  0.00  0.00    +0.000 C 
ATOM     15  C   UNL     1       9.835  14.789  18.127  0.00  0.00    +0.000 C 
ENDBRANCH  13  15
ENDBRANCH   7  13
ENDBRANCH   1  10
BRANCH   3  16
ATOM     16  C   UNL     1       6.481   6.097  16.381  0.00  0.00    +0.000 C 
BRANCH  16  17
ATOM     17  S   UNL     1       4.807   5.760  17.014  0.00  0.00    +0.000 S 
BRANCH  17  18
ATOM     18  C   UNL     1       4.952   3.988  17.431  0.00  0.00    +0.000 C 
BRANCH  18  19
ATOM     19  C   UNL     1       4.410   3.692  18.818  0.00  0.00    +0.000 C 
ATOM     20  O   UNL     1       5.063   3.080  19.659  0.00  0.00    +0.000 OA
ATOM     21  N   UNL     1       3.128   4.157  19.048  0.00  0.00    +0.000 N 
ATOM     22  H   UNL     1       2.589   4.475  18.240  0.00  0.00    +0.000 HD
BRANCH  21  23
ATOM     23  C   UNL     1       2.430   3.895  20.303  0.00  0.00    +0.000 C 
ATOM     24  C   UNL     1       1.539   5.084  20.680  0.00  0.00    +0.000 C 
BRANCH  23  25
ATOM     25  C   UNL     1       1.565   2.625  20.223  0.00  0.00    +0.000 C 
ATOM     26  C   UNL     1       0.805   2.475  18.912  0.00  0.00    +0.000 C 
ENDBRANCH  23  25
ENDBRANCH  21  23
ENDBRANCH  18  19
ENDBRANCH  17  18
ENDBRANCH  16  17
ENDBRANCH   3  16
TORSDOF 9
ENDMDL
MODEL 2
REMARK VINA RESULT:      -7.0      1.206      1.548
REMARK  Name = 
REMARK  13 active torsions:
REMARK  status: ('A' for Active; 'I' for Inactive)
REMARK    1  A    between atoms: C_1  and  C_2
REMARK    2  A    between atoms: C_2  and  O_3
REMARK    3  A    between atoms: O_3  and  C_4
REMARK    4  A    between atoms: C_7  and  C_8
REMARK    5  A    between atoms: C_10  and  C_11
REMARK    6  A    between atoms: C_11  and  S_12
REMARK    7  A    between atoms: S_12  and  C_13
REMARK    8  A    between atoms: C_13  and  C_14
REMARK    9  A    between atoms: N_16  and  C_17
REMARK   10  A    between atoms: C_17  and  C_18
REMARK   11  A    between atoms: C_17  and  C_19
REMARK   12  A    between atoms: C_19  and  C_20
REMARK   13  A    between atoms: C_21  and  C_22
REMARK                            x       y       z     vdW  Elec       q    Type
REMARK                         _______ _______ _______ _____ _____    ______ ____
ROOT
ATOM      1  C   UNL     1       8.010   8.684  18.028  0.00  0.00    +0.000 A 
ATOM      2  N   UNL     1       7.063   8.399  17.156  0.00  0.00    +0.000 NA
ATOM      3  C   UNL     1       6.850   7.038  17.318  0.00  0.00    +0.000 A 
ATOM      4  C   UNL     1       7.688   6.561  18.304  0.00  0.00    +0.000 A 
ATOM      5  C   UNL     1       7.935   5.266  18.959  0.00  0.00    +0.000 C 
ATOM      6  O   UNL     1       8.436   7.605  18.758  0.00  0.00    +0.000 OA
ENDROOT
BRANCH   1  10
ATOM      7  C   UNL     1       9.909  12.402  18.934  0.00  0.00    +0.000 A 
ATOM      8  C   UNL     1       9.038  12.299  17.851  0.00  0.00    +0.000 A 
ATOM      9  C   UNL     1       8.413  11.086  17.564  0.00  0.00    +0.000 A 
ATOM     10  C   UNL     1       8.663   9.945  18.338  0.00  0.00    +0.000 A 
ATOM     11  C   UNL     1       9.567  10.052  19.408  0.00  0.00    +0.000 A 
ATOM     12  C   UNL     1      10.190  11.273  19.703  0.00  0.00    +0.000 A 
BRANCH   7  13
ATOM     13  O   UNL     1      10.435  13.646  19.119  0.00  0.00    +0.000 OA
BRANCH  13  15
ATOM     14  C   UNL     1      10.189  14.818  21.166  0.00  0.00    +0.000 C 
ATOM     15  C   UNL     1       9.599  14.591  19.786  0.00  0.00    +0.000 C 
ENDBRANCH  13  15
ENDBRANCH   7  13
ENDBRANCH   1  10
BRANCH   3  16
ATOM     16  C   UNL     1       5.834   6.318  16.504  0.00  0.00    +0.000 C 
BRANCH  16  17
ATOM     17  S   UNL     1       4.349   5.905  17.473  0.00  0.00    +0.000 S 
BRANCH  17  18
ATOM     18  C   UNL     1       4.245   4.105  17.185  0.00  0.00    +0.000 C 
BRANCH  18  19
ATOM     19  C   UNL     1       3.064   3.488  17.911  0.00  0.00    +0.000 C 
ATOM     20  O   UNL     1       2.136   2.949  17.312  0.00  0.00    +0.000 OA
ATOM     21  N   UNL     1       3.115   3.590  19.289  0.00  0.00    +0.000 N 
ATOM     22  H   UNL     1       3.812   4.221  19.690  0.00  0.00    +0.000 HD
BRANCH  21  23
ATOM     23  C   UNL     1       2.025   3.114  20.135  0.00  0.00    +0.000 C 
ATOM     24  C   UNL     1       2.572   2.579  21.463  0.00  0.00    +0.000 C 
BRANCH  23  25
ATOM     25  C   UNL     1       0.999   4.223  20.426  0.00  0.00    +0.000 C 
ATOM     26  C   UNL     1       1.613   5.604  20.603  0.00  0.00    +0.000 C 
ENDBRANCH  23  25
ENDBRANCH  21  23
ENDBRANCH  18  19
ENDBRANCH  17  18
ENDBRANCH  16  17
ENDBRANCH   3  16
TORSDOF 9
ENDMDL
MODEL 3
REMARK VINA RESULT:      -6.9      2.644      5.229
REMARK  Name = 
REMARK  13 active torsions:
REMARK  status: ('A' for Active; 'I' for Inactive)
REMARK    1  A    between atoms: C_1  and  C_2
REMARK    2  A    between atoms: C_2  and  O_3
REMARK    3  A    between atoms: O_3  and  C_4
REMARK    4  A    between atoms: C_7  and  C_8
REMARK    5  A    between atoms: C_10  and  C_11
REMARK    6  A    between atoms: C_11  and  S_12
REMARK    7  A    between atoms: S_12  and  C_13
REMARK    8  A    between atoms: C_13  and  C_14
REMARK    9  A    between atoms: N_16  and  C_17
REMARK   10  A    between atoms: C_17  and  C_18
REMARK   11  A    between atoms: C_17  and  C_19
REMARK   12  A    between atoms: C_19  and  C_20
REMARK   13  A    between atoms: C_21  and  C_22
REMARK                            x       y       z     vdW  Elec       q    Type
REMARK                         _______ _______ _______ _____ _____    ______ ____
ROOT
ATOM      1  C   UNL     1       5.101   4.206  18.576  0.00  0.00    +0.000 A 
ATOM      2  N   UNL     1       4.005   3.783  17.976  0.00  0.00    +0.000 NA
ATOM      3  C   UNL     1       3.642   2.651  18.690  0.00  0.00    +0.000 A 
ATOM      4  C   UNL     1       4.547   2.448  19.711  0.00  0.00    +0.000 A 
ATOM      5  C   UNL     1       4.716   1.483  20.810  0.00  0.00    +0.000 C 
ATOM      6  O   UNL     1       5.485   3.434  19.640  0.00  0.00    +0.000 OA
ENDROOT
BRANCH   1  10
ATOM      7  C   UNL     1       7.621   7.556  17.752  0.00  0.00    +0.000 A 
ATOM      8  C   UNL     1       7.971   6.633  18.736  0.00  0.00    +0.000 A 
ATOM      9  C   UNL     1       7.151   5.536  18.996  0.00  0.00    +0.000 A 
ATOM     10  C   UNL     1       5.952   5.350  18.295  0.00  0.00    +0.000 A 
ATOM     11  C   UNL     1       5.593   6.303  17.328  0.00  0.00    +0.000 A 
ATOM     12  C   UNL     1       6.421   7.402  17.059  0.00  0.00    +0.000 A 
BRANCH   7  13
ATOM     13  O   UNL     1       8.519   8.567  17.582  0.00  0.00    +0.000 OA
BRANCH  13  15
ATOM     14  C   UNL     1       9.313  10.472  18.752  0.00  0.00    +0.000 C 
ATOM     15  C   UNL     1       8.116   9.853  18.051  0.00  0.00    +0.000 C 
ENDBRANCH  13  15
ENDBRANCH   7  13
ENDBRANCH   1  10
BRANCH   3  16
ATOM     16  C   UNL     1       2.431   1.868  18.324  0.00  0.00    +0.000 C 
BRANCH  16  17
ATOM     17  S   UNL     1       0.895   2.792  18.650  0.00  0.00    +0.000 S 
BRANCH  17  18
ATOM     18  C   UNL     1       1.043   3.073  20.447  0.00  0.00    +0.000 C 
BRANCH  18  19
ATOM     19  C   UNL     1       1.799   4.353  20.754  0.00  0.00    +0.000 C 
ATOM     20  O   UNL     1       2.486   4.480  21.765  0.00  0.00    +0.000 OA
ATOM     21  N   UNL     1       1.643   5.356  19.815  0.00  0.00    +0.000 N 
ATOM     22  H   UNL     1       0.905   5.239  19.118  0.00  0.00    +0.000 HD
BRANCH  21  23
ATOM     23  C   UNL     1       2.243   6.674  19.994  0.00  0.00    +0.000 C 
ATOM     24  C   UNL     1       2.462   7.352  18.636  0.00  0.00    +0.000 C 
BRANCH  23  25
ATOM     25  C   UNL     1       1.370   7.586  20.874  0.00  0.00    +0.000 C 
ATOM     26  C   UNL     1       1.130   8.970  20.286  0.00  0.00    +0.000 C 
ENDBRANCH  23  25
ENDBRANCH  21  23
ENDBRANCH  18  19
ENDBRANCH  17  18
ENDBRANCH  16  17
ENDBRANCH   3  16
TORSDOF 9
ENDMDL
MODEL 4
REMARK VINA RESULT:      -6.9      0.911      1.024
REMARK  Name = 
REMARK  13 active torsions:
REMARK  status: ('A' for Active; 'I' for Inactive)
REMARK    1  A    between atoms: C_1  and  C_2
REMARK    2  A    between atoms: C_2  and  O_3
REMARK    3  A    between atoms: O_3  and  C_4
REMARK    4  A    between atoms: C_7  and  C_8
REMARK    5  A    between atoms: C_10  and  C_11
REMARK    6  A    between atoms: C_11  and  S_12
REMARK    7  A    between atoms: S_12  and  C_13
REMARK    8  A    between atoms: C_13  and  C_14
REMARK    9  A    between atoms: N_16  and  C_17
REMARK   10  A    between atoms: C_17  and  C_18
REMARK   11  A    between atoms: C_17  and  C_19
REMARK   12  A    between atoms: C_19  and  C_20
REMARK   13  A    between atoms: C_21  and  C_22
REMARK                            x       y       z     vdW  Elec       q    Type
REMARK                         _______ _______ _______ _____ _____    ______ ____
ROOT
ATOM      1  C   UNL     1       8.157   8.635  18.109  0.00  0.00    +0.000 A 
ATOM      2  N   UNL     1       7.333   8.181  17.184  0.00  0.00    +0.000 NA
ATOM      3  C   UNL     1       7.208   6.830  17.474  0.00  0.00    +0.000 A 
ATOM      4  C   UNL     1       7.969   6.532  18.586  0.00  0.00    +0.000 A 
ATOM      5  C   UNL     1       8.241   5.338  19.403  0.00  0.00    +0.000 C 
ATOM      6  O   UNL     1       8.582   7.679  18.992  0.00  0.00    +0.000 OA
ENDROOT
BRANCH   1  10
ATOM      7  C   UNL     1       9.657  12.578  18.781  0.00  0.00    +0.000 A 
ATOM      8  C   UNL     1       8.745  12.335  17.756  0.00  0.00    +0.000 A 
ATOM      9  C   UNL     1       8.250  11.048  17.545  0.00  0.00    +0.000 A 
ATOM     10  C   UNL     1       8.674   9.974  18.339  0.00  0.00    +0.000 A 
ATOM     11  C   UNL     1       9.617  10.224  19.349  0.00  0.00    +0.000 A 
ATOM     12  C   UNL     1      10.109  11.519  19.567  0.00  0.00    +0.000 A 
BRANCH   7  13
ATOM     13  O   UNL     1      10.043  13.881  18.895  0.00  0.00    +0.000 OA
BRANCH  13  15
ATOM     14  C   UNL     1       8.787  15.817  19.441  0.00  0.00    +0.000 C 
ATOM     15  C   UNL     1       9.162  14.852  18.331  0.00  0.00    +0.000 C 
ENDBRANCH  13  15
ENDBRANCH   7  13
ENDBRANCH   1  10
BRANCH   3  16
ATOM     16  C   UNL     1       6.344   5.944  16.649  0.00  0.00    +0.000 C 
BRANCH  16  17
ATOM     17  S   UNL     1       4.582   6.117  17.076  0.00  0.00    +0.000 S 
BRANCH  17  18
ATOM     18  C   UNL     1       4.651   5.915  18.889  0.00  0.00    +0.000 C 
BRANCH  18  19
ATOM     19  C   UNL     1       4.458   4.466  19.299  0.00  0.00    +0.000 C 
ATOM     20  O   UNL     1       5.321   3.612  19.108  0.00  0.00    +0.000 OA
ATOM     21  N   UNL     1       3.239   4.189  19.890  0.00  0.00    +0.000 N 
ATOM     22  H   UNL     1       2.512   4.904  19.828  0.00  0.00    +0.000 HD
BRANCH  21  23
ATOM     23  C   UNL     1       2.864   2.833  20.277  0.00  0.00    +0.000 C 
ATOM     24  C   UNL     1       1.922   2.861  21.486  0.00  0.00    +0.000 C 
BRANCH  23  25
ATOM     25  C   UNL     1       2.178   2.077  19.125  0.00  0.00    +0.000 C 
ATOM     26  C   UNL     1       0.762   2.550  18.830  0.00  0.00    +0.000 C 
ENDBRANCH  23  25
ENDBRANCH  21  23
ENDBRANCH  18  19
ENDBRANCH  17  18
ENDBRANCH  16  17
ENDBRANCH   3  16
TORSDOF 9
ENDMDL
MODEL 5
REMARK VINA RESULT:      -6.8      5.656      7.567
REMARK  Name = 
REMARK  13 active torsions:
REMARK  status: ('A' for Active; 'I' for Inactive)
REMARK    1  A    between atoms: C_1  and  C_2
REMARK    2  A    between atoms: C_2  and  O_3
REMARK    3  A    between atoms: O_3  and  C_4
REMARK    4  A    between atoms: C_7  and  C_8
REMARK    5  A    between atoms: C_10  and  C_11
REMARK    6  A    between atoms: C_11  and  S_12
REMARK    7  A    between atoms: S_12  and  C_13
REMARK    8  A    between atoms: C_13  and  C_14
REMARK    9  A    between atoms: N_16  and  C_17
REMARK   10  A    between atoms: C_17  and  C_18
REMARK   11  A    between atoms: C_17  and  C_19
REMARK   12  A    between atoms: C_19  and  C_20
REMARK   13  A    between atoms: C_21  and  C_22
REMARK                            x       y       z     vdW  Elec       q    Type
REMARK                         _______ _______ _______ _____ _____    ______ ____
ROOT
ATOM      1  C   UNL     1       3.219   6.647  18.469  0.00  0.00    +0.000 A 
ATOM      2  N   UNL     1       4.344   6.653  17.780  0.00  0.00    +0.000 NA
ATOM      3  C   UNL     1       4.741   5.324  17.767  0.00  0.00    +0.000 A 
ATOM      4  C   UNL     1       3.815   4.566  18.454  0.00  0.00    +0.000 A 
ATOM      5  C   UNL     1       3.629   3.141  18.773  0.00  0.00    +0.000 C 
ATOM      6  O   UNL     1       2.844   5.405  18.910  0.00  0.00    +0.000 OA
ENDROOT
BRANCH   1  10
ATOM      7  C   UNL     1       0.576   9.841  19.498  0.00  0.00    +0.000 A 
ATOM      8  C   UNL     1       1.071   9.724  18.202  0.00  0.00    +0.000 A 
ATOM      9  C   UNL     1       1.926   8.675  17.866  0.00  0.00    +0.000 A 
ATOM     10  C   UNL     1       2.323   7.734  18.826  0.00  0.00    +0.000 A 
ATOM     11  C   UNL     1       1.844   7.879  20.138  0.00  0.00    +0.000 A 
ATOM     12  C   UNL     1       0.977   8.929  20.474  0.00  0.00    +0.000 A 
BRANCH   7  13
ATOM     13  O   UNL     1      -0.267  10.896  19.688  0.00  0.00    +0.000 OA
BRANCH  13  15
ATOM     14  C   UNL     1       1.311  12.412  20.603  0.00  0.00    +0.000 C 
ATOM     15  C   UNL     1       0.294  12.194  19.497  0.00  0.00    +0.000 C 
ENDBRANCH  13  15
ENDBRANCH   7  13
ENDBRANCH   1  10
BRANCH   3  16
ATOM     16  C   UNL     1       5.987   4.901  17.073  0.00  0.00    +0.000 C 
BRANCH  16  17
ATOM     17  S   UNL     1       5.638   4.031  15.511  0.00  0.00    +0.000 S 
BRANCH  17  18
ATOM     18  C   UNL     1       6.983   4.673  14.457  0.00  0.00    +0.000 C 
BRANCH  18  19
ATOM     19  C   UNL     1       6.824   4.230  13.014  0.00  0.00    +0.000 C 
ATOM     20  O   UNL     1       7.495   4.712  12.104  0.00  0.00    +0.000 OA
ATOM     21  N   UNL     1       5.864   3.256  12.810  0.00  0.00    +0.000 N 
ATOM     22  H   UNL     1       5.222   3.058  13.581  0.00  0.00    +0.000 HD
BRANCH  21  23
ATOM     23  C   UNL     1       5.534   2.771  11.474  0.00  0.00    +0.000 C 
ATOM     24  C   UNL     1       6.059   1.344  11.277  0.00  0.00    +0.000 C 
BRANCH  23  25
ATOM     25  C   UNL     1       4.017   2.786  11.218  0.00  0.00    +0.000 C 
ATOM     26  C   UNL     1       3.556   3.905  10.294  0.00  0.00    +0.000 C 
ENDBRANCH  23  25
ENDBRANCH  21  23
ENDBRANCH  18  19
ENDBRANCH  17  18
ENDBRANCH  16  17
ENDBRANCH   3  16
TORSDOF 9
ENDMDL
MODEL 6
REMARK VINA RESULT:      -6.8      4.532      7.124
REMARK  Name = 
REMARK  13 active torsions:
REMARK  status: ('A' for Active; 'I' for Inactive)
REMARK    1  A    between atoms: C_1  and  C_2
REMARK    2  A    between atoms: C_2  and  O_3
REMARK    3  A    between atoms: O_3  and  C_4
REMARK    4  A    between atoms: C_7  and  C_8
REMARK    5  A    between atoms: C_10  and  C_11
REMARK    6  A    between atoms: C_11  and  S_12
REMARK    7  A    between atoms: S_12  and  C_13
REMARK    8  A    between atoms: C_13  and  C_14
REMARK    9  A    between atoms: N_16  and  C_17
REMARK   10  A    between atoms: C_17  and  C_18
REMARK   11  A    between atoms: C_17  and  C_19
REMARK   12  A    between atoms: C_19  and  C_20
REMARK   13  A    between atoms: C_21  and  C_22
REMARK                            x       y       z     vdW  Elec       q    Type
REMARK                         _______ _______ _______ _____ _____    ______ ____
ROOT
ATOM      1  C   UNL     1       2.371   6.211  19.859  0.00  0.00    +0.000 A 
ATOM      2  N   UNL     1       3.380   5.556  19.320  0.00  0.00    +0.000 NA
ATOM      3  C   UNL     1       3.301   4.288  19.878  0.00  0.00    +0.000 A 
ATOM      4  C   UNL     1       2.222   4.237  20.737  0.00  0.00    +0.000 A 
ATOM      5  C   UNL     1       1.585   3.220  21.590  0.00  0.00    +0.000 C 
ATOM      6  O   UNL     1       1.627   5.463  20.734  0.00  0.00    +0.000 OA
ENDROOT
BRANCH   1  10
ATOM      7  C   UNL     1       1.053  10.234  19.288  0.00  0.00    +0.000 A 
ATOM      8  C   UNL     1       1.670   9.538  18.250  0.00  0.00    +0.000 A 
ATOM      9  C   UNL     1       2.091   8.223  18.437  0.00  0.00    +0.000 A 
ATOM     10  C   UNL     1       1.925   7.581  19.672  0.00  0.00    +0.000 A 
ATOM     11  C   UNL     1       1.330   8.301  20.721  0.00  0.00    +0.000 A 
ATOM     12  C   UNL     1       0.899   9.622  20.532  0.00  0.00    +0.000 A 
BRANCH   7  13
ATOM     13  O   UNL     1       0.669  11.502  18.968  0.00  0.00    +0.000 OA
BRANCH  13  15
ATOM     14  C   UNL     1      -1.047  13.063  19.465  0.00  0.00    +0.000 C 
ATOM     15  C   UNL     1       0.127  12.284  20.031  0.00  0.00    +0.000 C 
ENDBRANCH  13  15
ENDBRANCH   7  13
ENDBRANCH   1  10
BRANCH   3  16
ATOM     16  C   UNL     1       4.278   3.227  19.517  0.00  0.00    +0.000 C 
BRANCH  16  17
ATOM     17  S   UNL     1       3.724   2.245  18.086  0.00  0.00    +0.000 S 
BRANCH  17  18
ATOM     18  C   UNL     1       3.735   3.518  16.777  0.00  0.00    +0.000 C 
BRANCH  18  19
ATOM     19  C   UNL     1       5.140   4.019  16.494  0.00  0.00    +0.000 C 
ATOM     20  O   UNL     1       5.900   3.434  15.726  0.00  0.00    +0.000 OA
ATOM     21  N   UNL     1       5.491   5.171  17.173  0.00  0.00    +0.000 N 
ATOM     22  H   UNL     1       4.880   5.475  17.934  0.00  0.00    +0.000 HD
BRANCH  21  23
ATOM     23  C   UNL     1       6.829   5.745  17.070  0.00  0.00    +0.000 C 
ATOM     24  C   UNL     1       6.776   7.265  17.258  0.00  0.00    +0.000 C 
BRANCH  23  25
ATOM     25  C   UNL     1       7.791   5.145  18.110  0.00  0.00    +0.000 C 
ATOM     26  C   UNL     1       7.590   5.679  19.522  0.00  0.00    +0.000 C 
ENDBRANCH  23  25
ENDBRANCH  21  23
ENDBRANCH  18  19
ENDBRANCH  17  18
ENDBRANCH  16  17
ENDBRANCH   3  16
TORSDOF 9
ENDMDL
MODEL 7
REMARK VINA RESULT:      -6.8      0.904      1.414
REMARK  Name = 
REMARK  13 active torsions:
REMARK  status: ('A' for Active; 'I' for Inactive)
REMARK    1  A    between atoms: C_1  and  C_2
REMARK    2  A    between atoms: C_2  and  O_3
REMARK    3  A    between atoms: O_3  and  C_4
REMARK    4  A    between atoms: C_7  and  C_8
REMARK    5  A    between atoms: C_10  and  C_11
REMARK    6  A    between atoms: C_11  and  S_12
REMARK    7  A    between atoms: S_12  and  C_13
REMARK    8  A    between atoms: C_13  and  C_14
REMARK    9  A    between atoms: N_16  and  C_17
REMARK   10  A    between atoms: C_17  and  C_18
REMARK   11  A    between atoms: C_17  and  C_19
REMARK   12  A    between atoms: C_19  and  C_20
REMARK   13  A    between atoms: C_21  and  C_22
REMARK                            x       y       z     vdW  Elec       q    Type
REMARK                         _______ _______ _______ _____ _____    ______ ____
ROOT
ATOM      1  C   UNL     1       8.199   8.747  18.124  0.00  0.00    +0.000 A 
ATOM      2  N   UNL     1       7.462   8.349  17.106  0.00  0.00    +0.000 NA
ATOM      3  C   UNL     1       7.250   7.000  17.346  0.00  0.00    +0.000 A 
ATOM      4  C   UNL     1       7.874   6.645  18.525  0.00  0.00    +0.000 A 
ATOM      5  C   UNL     1       8.007   5.423  19.335  0.00  0.00    +0.000 C 
ATOM      6  O   UNL     1       8.487   7.755  19.024  0.00  0.00    +0.000 OA
ENDROOT
BRANCH   1  10
ATOM      7  C   UNL     1       9.820  12.586  19.068  0.00  0.00    +0.000 A 
ATOM      8  C   UNL     1      10.085  11.487  19.882  0.00  0.00    +0.000 A 
ATOM      9  C   UNL     1       9.563  10.234  19.567  0.00  0.00    +0.000 A 
ATOM     10  C   UNL     1       8.744  10.057  18.443  0.00  0.00    +0.000 A 
ATOM     11  C   UNL     1       8.457  11.177  17.646  0.00  0.00    +0.000 A 
ATOM     12  C   UNL     1       8.989  12.436  17.957  0.00  0.00    +0.000 A 
BRANCH   7  13
ATOM     13  O   UNL     1      10.410  13.746  19.474  0.00  0.00    +0.000 OA
BRANCH  13  15
ATOM     14  C   UNL     1       9.425  14.844  21.332  0.00  0.00    +0.000 C 
ATOM     15  C   UNL     1      10.546  13.923  20.884  0.00  0.00    +0.000 C 
ENDBRANCH  13  15
ENDBRANCH   7  13
ENDBRANCH   1  10
BRANCH   3  16
ATOM     16  C   UNL     1       6.444   6.170  16.411  0.00  0.00    +0.000 C 
BRANCH  16  17
ATOM     17  S   UNL     1       4.839   5.695  17.129  0.00  0.00    +0.000 S 
BRANCH  17  18
ATOM     18  C   UNL     1       5.201   3.990  17.671  0.00  0.00    +0.000 C 
BRANCH  18  19
ATOM     19  C   UNL     1       4.390   3.607  18.896  0.00  0.00    +0.000 C 
ATOM     20  O   UNL     1       4.782   2.768  19.704  0.00  0.00    +0.000 OA
ATOM     21  N   UNL     1       3.181   4.268  19.019  0.00  0.00    +0.000 N 
ATOM     22  H   UNL     1       2.847   4.794  18.210  0.00  0.00    +0.000 HD
BRANCH  21  23
ATOM     23  C   UNL     1       2.248   3.965  20.099  0.00  0.00    +0.000 C 
ATOM     24  C   UNL     1       1.912   5.235  20.889  0.00  0.00    +0.000 C 
BRANCH  23  25
ATOM     25  C   UNL     1       0.943   3.344  19.571  0.00  0.00    +0.000 C 
ATOM     26  C   UNL     1       1.142   2.044  18.804  0.00  0.00    +0.000 C 
ENDBRANCH  23  25
ENDBRANCH  21  23
ENDBRANCH  18  19
ENDBRANCH  17  18
ENDBRANCH  16  17
ENDBRANCH   3  16
TORSDOF 9
ENDMDL
MODEL 8
REMARK VINA RESULT:      -6.7      4.535      6.936
REMARK  Name = 
REMARK  13 active torsions:
REMARK  status: ('A' for Active; 'I' for Inactive)
REMARK    1  A    between atoms: C_1  and  C_2
REMARK    2  A    between atoms: C_2  and  O_3
REMARK    3  A    between atoms: O_3  and  C_4
REMARK    4  A    between atoms: C_7  and  C_8
REMARK    5  A    between atoms: C_10  and  C_11
REMARK    6  A    between atoms: C_11  and  S_12
REMARK    7  A    between atoms: S_12  and  C_13
REMARK    8  A    between atoms: C_13  and  C_14
REMARK    9  A    between atoms: N_16  and  C_17
REMARK   10  A    between atoms: C_17  and  C_18
REMARK   11  A    between atoms: C_17  and  C_19
REMARK   12  A    between atoms: C_19  and  C_20
REMARK   13  A    between atoms: C_21  and  C_22
REMARK                            x       y       z     vdW  Elec       q    Type
REMARK                         _______ _______ _______ _____ _____    ______ ____
ROOT
ATOM      1  C   UNL     1       2.380   6.194  19.926  0.00  0.00    +0.000 A 
ATOM      2  N   UNL     1       3.415   5.564  19.406  0.00  0.00    +0.000 NA
ATOM      3  C   UNL     1       3.306   4.271  19.896  0.00  0.00    +0.000 A 
ATOM      4  C   UNL     1       2.185   4.181  20.695  0.00  0.00    +0.000 A 
ATOM      5  C   UNL     1       1.505   3.124  21.463  0.00  0.00    +0.000 C 
ATOM      6  O   UNL     1       1.592   5.407  20.723  0.00  0.00    +0.000 OA
ENDROOT
BRANCH   1  10
ATOM      7  C   UNL     1       1.108  10.254  19.533  0.00  0.00    +0.000 A 
ATOM      8  C   UNL     1       0.958   9.581  20.743  0.00  0.00    +0.000 A 
ATOM      9  C   UNL     1       1.383   8.259  20.871  0.00  0.00    +0.000 A 
ATOM     10  C   UNL     1       1.945   7.574  19.785  0.00  0.00    +0.000 A 
ATOM     11  C   UNL     1       2.062   8.251  18.560  0.00  0.00    +0.000 A 
ATOM     12  C   UNL     1       1.643   9.583  18.433  0.00  0.00    +0.000 A 
BRANCH   7  13
ATOM     13  O   UNL     1       0.675  11.546  19.548  0.00  0.00    +0.000 OA
BRANCH  13  15
ATOM     14  C   UNL     1       1.130  13.839  19.142  0.00  0.00    +0.000 C 
ATOM     15  C   UNL     1       1.285  12.427  18.605  0.00  0.00    +0.000 C 
ENDBRANCH  13  15
ENDBRANCH   7  13
ENDBRANCH   1  10
BRANCH   3  16
ATOM     16  C   UNL     1       4.300   3.225  19.531  0.00  0.00    +0.000 C 
BRANCH  16  17
ATOM     17  S   UNL     1       3.751   2.226  18.111  0.00  0.00    +0.000 S 
BRANCH  17  18
ATOM     18  C   UNL     1       3.738   3.489  16.793  0.00  0.00    +0.000 C 
BRANCH  18  19
ATOM     19  C   UNL     1       5.134   4.012  16.503  0.00  0.00    +0.000 C 
ATOM     20  O   UNL     1       5.913   3.420  15.760  0.00  0.00    +0.000 OA
ATOM     21  N   UNL     1       5.454   5.193  17.148  0.00  0.00    +0.000 N 
ATOM     22  H   UNL     1       4.830   5.507  17.893  0.00  0.00    +0.000 HD
BRANCH  21  23
ATOM     23  C   UNL     1       6.780   5.793  17.036  0.00  0.00    +0.000 C 
ATOM     24  C   UNL     1       6.690   7.318  17.159  0.00  0.00    +0.000 C 
BRANCH  23  25
ATOM     25  C   UNL     1       7.743   5.259  18.110  0.00  0.00    +0.000 C 
ATOM     26  C   UNL     1       7.327   5.593  19.536  0.00  0.00    +0.000 C 
ENDBRANCH  23  25
ENDBRANCH  21  23
ENDBRANCH  18  19
ENDBRANCH  17  18
ENDBRANCH  16  17
ENDBRANCH   3  16
TORSDOF 9
ENDMDL
MODEL 9
REMARK VINA RESULT:      -6.7      5.358      8.375
REMARK  Name = 
REMARK  13 active torsions:
REMARK  status: ('A' for Active; 'I' for Inactive)
REMARK    1  A    between atoms: C_1  and  C_2
REMARK    2  A    between atoms: C_2  and  O_3
REMARK    3  A    between atoms: O_3  and  C_4
REMARK    4  A    between atoms: C_7  and  C_8
REMARK    5  A    between atoms: C_10  and  C_11
REMARK    6  A    between atoms: C_11  and  S_12
REMARK    7  A    between atoms: S_12  and  C_13
REMARK    8  A    between atoms: C_13  and  C_14
REMARK    9  A    between atoms: N_16  and  C_17
REMARK   10  A    between atoms: C_17  and  C_18
REMARK   11  A    between atoms: C_17  and  C_19
REMARK   12  A    between atoms: C_19  and  C_20
REMARK   13  A    between atoms: C_21  and  C_22
REMARK                            x       y       z     vdW  Elec       q    Type
REMARK                         _______ _______ _______ _____ _____    ______ ____
ROOT
ATOM      1  C   UNL     1       1.191   8.513  20.602  0.00  0.00    +0.000 A 
ATOM      2  N   UNL     1       1.568   7.309  20.987  0.00  0.00    +0.000 NA
ATOM      3  C   UNL     1       2.284   6.816  19.906  0.00  0.00    +0.000 A 
ATOM      4  C   UNL     1       2.313   7.767  18.908  0.00  0.00    +0.000 A 
ATOM      5  C   UNL     1       2.909   7.888  17.566  0.00  0.00    +0.000 C 
ATOM      6  O   UNL     1       1.612   8.851  19.343  0.00  0.00    +0.000 OA
ENDROOT
BRANCH   1  10
ATOM      7  C   UNL     1      -1.100  11.502  22.619  0.00  0.00    +0.000 A 
ATOM      8  C   UNL     1      -0.524  11.770  21.379  0.00  0.00    +0.000 A 
ATOM      9  C   UNL     1       0.215  10.790  20.719  0.00  0.00    +0.000 A 
ATOM     10  C   UNL     1       0.415   9.528  21.295  0.00  0.00    +0.000 A 
ATOM     11  C   UNL     1      -0.144   9.278  22.559  0.00  0.00    +0.000 A 
ATOM     12  C   UNL     1      -0.894  10.260  23.220  0.00  0.00    +0.000 A 
BRANCH   7  13
ATOM     13  O   UNL     1      -1.816  12.536  23.145  0.00  0.00    +0.000 OA
BRANCH  13  15
ATOM     14  C   UNL     1      -3.640  13.365  24.414  0.00  0.00    +0.000 C 
ATOM     15  C   UNL     1      -3.170  12.253  23.494  0.00  0.00    +0.000 C 
ENDBRANCH  13  15
ENDBRANCH   7  13
ENDBRANCH   1  10
BRANCH   3  16
ATOM     16  C   UNL     1       2.894   5.459  19.944  0.00  0.00    +0.000 C 
BRANCH  16  17
ATOM     17  S   UNL     1       1.766   4.184  19.296  0.00  0.00    +0.000 S 
BRANCH  17  18
ATOM     18  C   UNL     1       2.214   4.203  17.526  0.00  0.00    +0.000 C 
BRANCH  18  19
ATOM     19  C   UNL     1       3.581   3.587  17.287  0.00  0.00    +0.000 C 
ATOM     20  O   UNL     1       3.902   2.502  17.768  0.00  0.00    +0.000 OA
ATOM     21  N   UNL     1       4.428   4.345  16.500  0.00  0.00    +0.000 N 
ATOM     22  H   UNL     1       4.157   5.312  16.311  0.00  0.00    +0.000 HD
BRANCH  21  23
ATOM     23  C   UNL     1       5.802   3.933  16.233  0.00  0.00    +0.000 C 
ATOM     24  C   UNL     1       6.092   3.976  14.729  0.00  0.00    +0.000 C 
BRANCH  23  25
ATOM     25  C   UNL     1       6.820   4.824  16.966  0.00  0.00    +0.000 C 
ATOM     26  C   UNL     1       6.318   6.232  17.252  0.00  0.00    +0.000 C 
ENDBRANCH  23  25
ENDBRANCH  21  23
ENDBRANCH  18  19
ENDBRANCH  17  18
ENDBRANCH  16  17
ENDBRANCH   3  16
TORSDOF 9
ENDMDL
