MODEL 1
REMARK VINA RESULT:      -7.6      0.000      0.000
REMARK  Name = 
REMARK  4 active torsions:
REMARK  status: ('A' for Active; 'I' for Inactive)
REMARK    1  A    between atoms: C_1  and  C_2
REMARK    2  A    between atoms: N_6  and  C_7
REMARK    3  A    between atoms: C_7  and  C_8
REMARK    4  A    between atoms: C_11  and  N_12
REMARK                            x       y       z     vdW  Elec       q    Type
REMARK                         _______ _______ _______ _____ _____    ______ ____
ROOT
ATOM      1  C   UNL     1       8.625   9.556  17.859  0.00  0.00    +0.000 C 
ATOM      2  C   UNL     1       7.965   8.215  17.921  0.00  0.00    +0.000 C 
ATOM      3  C   UNL     1       8.263   7.298  18.849  0.00  0.00    +0.000 C 
ATOM      4  C   UNL     1       7.627   5.967  18.933  0.00  0.00    +0.000 C 
ATOM      5  O   UNL     1       7.926   5.222  19.858  0.00  0.00    +0.000 OA
ATOM      6  N   UNL     1       6.714   5.595  17.932  0.00  0.00    +0.000 N 
ATOM      7  S   UNL     1       6.524   6.517  16.546  0.00  0.00    +0.000 S 
ATOM      8  O   UNL     1       7.451   5.990  15.564  0.00  0.00    +0.000 OA
ATOM      9  O   UNL     1       5.108   6.578  16.250  0.00  0.00    +0.000 OA
ATOM     10  O   UNL     1       7.015   8.013  16.948  0.00  0.00    +0.000 OA
ENDROOT
BRANCH   6  11
ATOM     11  C   UNL     1       6.291   4.191  17.778  0.00  0.00    +0.000 C 
BRANCH  11  12
ATOM     12  C   UNL     1       4.868   3.911  18.207  0.00  0.00    +0.000 A 
ATOM     13  C   UNL     1       4.048   3.072  17.434  0.00  0.00    +0.000 A 
ATOM     14  C   UNL     1       2.773   2.713  17.879  0.00  0.00    +0.000 A 
ATOM     15  C   UNL     1       2.308   3.204  19.104  0.00  0.00    +0.000 A 
ATOM     16  C   UNL     1       3.093   4.082  19.862  0.00  0.00    +0.000 A 
ATOM     17  C   UNL     1       4.366   4.439  19.406  0.00  0.00    +0.000 A 
BRANCH  15  18
ATOM     18  N   UNL     1       1.002   2.768  19.613  0.00  0.00    +0.000 N 
ATOM     19  O   UNL     1       0.759   2.950  20.815  0.00  0.00    +0.000 OA
ATOM     20  O   UNL     1       0.210   2.256  18.807  0.00  0.00    +0.000 OA
ENDBRANCH  15  18
ENDBRANCH  11  12
ENDBRANCH   6  11
TORSDOF 3
ENDMDL
MODEL 2
REMARK VINA RESULT:      -7.5      0.339      1.289
REMARK  Name = 
REMARK  4 active torsions:
REMARK  status: ('A' for Active; 'I' for Inactive)
REMARK    1  A    between atoms: C_1  and  C_2
REMARK    2  A    between atoms: N_6  and  C_7
REMARK    3  A    between atoms: C_7  and  C_8
REMARK    4  A    between atoms: C_11  and  N_12
REMARK                            x       y       z     vdW  Elec       q    Type
REMARK                         _______ _______ _______ _____ _____    ______ ____
ROOT
ATOM      1  C   UNL     1       8.484   9.528  17.868  0.00  0.00    +0.000 C 
ATOM      2  C   UNL     1       7.877   8.162  17.900  0.00  0.00    +0.000 C 
ATOM      3  C   UNL     1       8.210   7.236  18.808  0.00  0.00    +0.000 C 
ATOM      4  C   UNL     1       7.626   5.880  18.862  0.00  0.00    +0.000 C 
ATOM      5  O   UNL     1       7.955   5.126  19.770  0.00  0.00    +0.000 OA
ATOM      6  N   UNL     1       6.728   5.495  17.852  0.00  0.00    +0.000 N 
ATOM      7  S   UNL     1       6.503   6.439  16.487  0.00  0.00    +0.000 S 
ATOM      8  O   UNL     1       7.449   5.971  15.494  0.00  0.00    +0.000 OA
ATOM      9  O   UNL     1       5.085   6.452  16.192  0.00  0.00    +0.000 OA
ATOM     10  O   UNL     1       6.935   7.945  16.923  0.00  0.00    +0.000 OA
ENDROOT
BRANCH   6  11
ATOM     11  C   UNL     1       6.361   4.079  17.666  0.00  0.00    +0.000 C 
BRANCH  11  12
ATOM     12  C   UNL     1       4.966   3.725  18.131  0.00  0.00    +0.000 A 
ATOM     13  C   UNL     1       4.595   3.924  19.471  0.00  0.00    +0.000 A 
ATOM     14  C   UNL     1       3.277   3.711  19.885  0.00  0.00    +0.000 A 
ATOM     15  C   UNL     1       2.322   3.287  18.955  0.00  0.00    +0.000 A 
ATOM     16  C   UNL     1       2.688   3.034  17.627  0.00  0.00    +0.000 A 
ATOM     17  C   UNL     1       4.010   3.246  17.222  0.00  0.00    +0.000 A 
BRANCH  15  18
ATOM     18  N   UNL     1       0.922   3.136  19.368  0.00  0.00    +0.000 N 
ATOM     19  O   UNL     1       0.227   2.304  18.765  0.00  0.00    +0.000 OA
ATOM     20  O   UNL     1       0.518   3.839  20.305  0.00  0.00    +0.000 OA
ENDBRANCH  15  18
ENDBRANCH  11  12
ENDBRANCH   6  11
TORSDOF 3
ENDMDL
MODEL 3
REMARK VINA RESULT:      -7.4      1.562      2.325
REMARK  Name = 
REMARK  4 active torsions:
REMARK  status: ('A' for Active; 'I' for Inactive)
REMARK    1  A    between atoms: C_1  and  C_2
REMARK    2  A    between atoms: N_6  and  C_7
REMARK    3  A    between atoms: C_7  and  C_8
REMARK    4  A    between atoms: C_11  and  N_12
REMARK                            x       y       z     vdW  Elec       q    Type
REMARK                         _______ _______ _______ _____ _____    ______ ____
ROOT
ATOM      1  C   UNL     1       8.192   8.738  17.770  0.00  0.00    +0.000 C 
ATOM      2  C   UNL     1       7.267   7.663  17.296  0.00  0.00    +0.000 C 
ATOM      3  C   UNL     1       5.969   7.621  17.622  0.00  0.00    +0.000 C 
ATOM      4  C   UNL     1       5.034   6.571  17.168  0.00  0.00    +0.000 C 
ATOM      5  O   UNL     1       3.850   6.657  17.471  0.00  0.00    +0.000 OA
ATOM      6  N   UNL     1       5.543   5.496  16.420  0.00  0.00    +0.000 N 
ATOM      7  S   UNL     1       7.193   5.266  16.246  0.00  0.00    +0.000 S 
ATOM      8  O   UNL     1       7.610   4.399  17.331  0.00  0.00    +0.000 OA
ATOM      9  O   UNL     1       7.441   4.883  14.872  0.00  0.00    +0.000 OA
ATOM     10  O   UNL     1       7.864   6.727  16.485  0.00  0.00    +0.000 OA
ENDROOT
BRANCH   6  11
ATOM     11  C   UNL     1       4.744   4.275  16.211  0.00  0.00    +0.000 C 
BRANCH  11  12
ATOM     12  C   UNL     1       4.046   3.760  17.449  0.00  0.00    +0.000 A 
ATOM     13  C   UNL     1       4.783   3.475  18.611  0.00  0.00    +0.000 A 
ATOM     14  C   UNL     1       4.137   3.111  19.795  0.00  0.00    +0.000 A 
ATOM     15  C   UNL     1       2.741   3.023  19.818  0.00  0.00    +0.000 A 
ATOM     16  C   UNL     1       1.995   3.254  18.657  0.00  0.00    +0.000 A 
ATOM     17  C   UNL     1       2.651   3.613  17.474  0.00  0.00    +0.000 A 
BRANCH  15  18
ATOM     18  N   UNL     1       2.053   2.716  21.079  0.00  0.00    +0.000 N 
ATOM     19  O   UNL     1       2.749   2.393  22.054  0.00  0.00    +0.000 OA
ATOM     20  O   UNL     1       0.818   2.811  21.101  0.00  0.00    +0.000 OA
ENDBRANCH  15  18
ENDBRANCH  11  12
ENDBRANCH   6  11
TORSDOF 3
ENDMDL
MODEL 4
REMARK VINA RESULT:      -7.2      3.100      6.405
REMARK  Name = 
REMARK  4 active torsions:
REMARK  status: ('A' for Active; 'I' for Inactive)
REMARK    1  A    between atoms: C_1  and  C_2
REMARK    2  A    between atoms: N_6  and  C_7
REMARK    3  A    between atoms: C_7  and  C_8
REMARK    4  A    between atoms: C_11  and  N_12
REMARK                            x       y       z     vdW  Elec       q    Type
REMARK                         _______ _______ _______ _____ _____    ______ ____
ROOT
ATOM      1  C   UNL     1       0.338   2.598  19.516  0.00  0.00    +0.000 C 
ATOM      2  C   UNL     1       1.633   3.346  19.562  0.00  0.00    +0.000 C 
ATOM      3  C   UNL     1       1.707   4.681  19.503  0.00  0.00    +0.000 C 
ATOM      4  C   UNL     1       2.972   5.443  19.546  0.00  0.00    +0.000 C 
ATOM      5  O   UNL     1       2.929   6.668  19.547  0.00  0.00    +0.000 OA
ATOM      6  N   UNL     1       4.184   4.733  19.563  0.00  0.00    +0.000 N 
ATOM      7  S   UNL     1       4.224   3.080  19.294  0.00  0.00    +0.000 S 
ATOM      8  O   UNL     1       4.408   2.893  17.869  0.00  0.00    +0.000 OA
ATOM      9  O   UNL     1       5.166   2.505  20.232  0.00  0.00    +0.000 OA
ATOM     10  O   UNL     1       2.741   2.540  19.684  0.00  0.00    +0.000 OA
ENDROOT
BRANCH   6  11
ATOM     11  C   UNL     1       5.463   5.413  19.288  0.00  0.00    +0.000 C 
BRANCH  11  12
ATOM     12  C   UNL     1       5.912   5.352  17.845  0.00  0.00    +0.000 A 
ATOM     13  C   UNL     1       7.094   4.677  17.499  0.00  0.00    +0.000 A 
ATOM     14  C   UNL     1       7.457   4.514  16.160  0.00  0.00    +0.000 A 
ATOM     15  C   UNL     1       6.635   5.038  15.155  0.00  0.00    +0.000 A 
ATOM     16  C   UNL     1       5.480   5.757  15.485  0.00  0.00    +0.000 A 
ATOM     17  C   UNL     1       5.128   5.920  16.829  0.00  0.00    +0.000 A 
BRANCH  15  18
ATOM     18  N   UNL     1       6.972   4.803  13.745  0.00  0.00    +0.000 N 
ATOM     19  O   UNL     1       6.409   3.862  13.165  0.00  0.00    +0.000 OA
ATOM     20  O   UNL     1       7.790   5.566  13.212  0.00  0.00    +0.000 OA
ENDBRANCH  15  18
ENDBRANCH  11  12
ENDBRANCH   6  11
TORSDOF 3
ENDMDL
MODEL 5
REMARK VINA RESULT:      -7.1      1.484      2.407
REMARK  Name = 
REMARK  4 active torsions:
REMARK  status: ('A' for Active; 'I' for Inactive)
REMARK    1  A    between atoms: C_1  and  C_2
REMARK    2  A    between atoms: N_6  and  C_7
REMARK    3  A    between atoms: C_7  and  C_8
REMARK    4  A    between atoms: C_11  and  N_12
REMARK                            x       y       z     vdW  Elec       q    Type
REMARK                         _______ _______ _______ _____ _____    ______ ____
ROOT
ATOM      1  C   UNL     1       8.271   8.835  18.315  0.00  0.00    +0.000 C 
ATOM      2  C   UNL     1       7.639   7.618  17.715  0.00  0.00    +0.000 C 
ATOM      3  C   UNL     1       6.637   7.678  16.830  0.00  0.00    +0.000 C 
ATOM      4  C   UNL     1       5.996   6.493  16.223  0.00  0.00    +0.000 C 
ATOM      5  O   UNL     1       5.127   6.655  15.375  0.00  0.00    +0.000 OA
ATOM      6  N   UNL     1       6.394   5.217  16.658  0.00  0.00    +0.000 N 
ATOM      7  S   UNL     1       7.385   5.028  17.995  0.00  0.00    +0.000 S 
ATOM      8  O   UNL     1       6.513   4.887  19.145  0.00  0.00    +0.000 OA
ATOM      9  O   UNL     1       8.350   3.995  17.684  0.00  0.00    +0.000 OA
ATOM     10  O   UNL     1       8.189   6.433  18.144  0.00  0.00    +0.000 OA
ENDROOT
BRANCH   6  11
ATOM     11  C   UNL     1       5.591   4.024  16.336  0.00  0.00    +0.000 C 
BRANCH  11  12
ATOM     12  C   UNL     1       4.444   3.763  17.287  0.00  0.00    +0.000 A 
ATOM     13  C   UNL     1       3.455   4.740  17.489  0.00  0.00    +0.000 A 
ATOM     14  C   UNL     1       2.331   4.467  18.273  0.00  0.00    +0.000 A 
ATOM     15  C   UNL     1       2.197   3.208  18.869  0.00  0.00    +0.000 A 
ATOM     16  C   UNL     1       3.198   2.240  18.720  0.00  0.00    +0.000 A 
ATOM     17  C   UNL     1       4.322   2.525  17.936  0.00  0.00    +0.000 A 
BRANCH  15  18
ATOM     18  N   UNL     1       0.982   2.890  19.630  0.00  0.00    +0.000 N 
ATOM     19  O   UNL     1       0.964   3.174  20.836  0.00  0.00    +0.000 OA
ATOM     20  O   UNL     1       0.038   2.367  19.019  0.00  0.00    +0.000 OA
ENDBRANCH  15  18
ENDBRANCH  11  12
ENDBRANCH   6  11
TORSDOF 3
ENDMDL
MODEL 6
REMARK VINA RESULT:      -7.0      1.524      2.379
REMARK  Name = 
REMARK  4 active torsions:
REMARK  status: ('A' for Active; 'I' for Inactive)
REMARK    1  A    between atoms: C_1  and  C_2
REMARK    2  A    between atoms: N_6  and  C_7
REMARK    3  A    between atoms: C_7  and  C_8
REMARK    4  A    between atoms: C_11  and  N_12
REMARK                            x       y       z     vdW  Elec       q    Type
REMARK                         _______ _______ _______ _____ _____    ______ ____
ROOT
ATOM      1  C   UNL     1       8.444   8.903  18.508  0.00  0.00    +0.000 C 
ATOM      2  C   UNL     1       7.731   7.717  17.938  0.00  0.00    +0.000 C 
ATOM      3  C   UNL     1       6.673   7.824  17.125  0.00  0.00    +0.000 C 
ATOM      4  C   UNL     1       5.951   6.670  16.550  0.00  0.00    +0.000 C 
ATOM      5  O   UNL     1       5.031   6.874  15.767  0.00  0.00    +0.000 OA
ATOM      6  N   UNL     1       6.334   5.376  16.940  0.00  0.00    +0.000 N 
ATOM      7  S   UNL     1       7.408   5.133  18.203  0.00  0.00    +0.000 S 
ATOM      8  O   UNL     1       6.613   5.004  19.408  0.00  0.00    +0.000 OA
ATOM      9  O   UNL     1       8.314   4.073  17.811  0.00  0.00    +0.000 OA
ATOM     10  O   UNL     1       8.268   6.508  18.313  0.00  0.00    +0.000 OA
ENDROOT
BRANCH   6  11
ATOM     11  C   UNL     1       5.470   4.215  16.660  0.00  0.00    +0.000 C 
BRANCH  11  12
ATOM     12  C   UNL     1       4.417   3.946  17.712  0.00  0.00    +0.000 A 
ATOM     13  C   UNL     1       4.329   2.681  18.318  0.00  0.00    +0.000 A 
ATOM     14  C   UNL     1       3.440   2.455  19.372  0.00  0.00    +0.000 A 
ATOM     15  C   UNL     1       2.623   3.500  19.820  0.00  0.00    +0.000 A 
ATOM     16  C   UNL     1       2.662   4.751  19.193  0.00  0.00    +0.000 A 
ATOM     17  C   UNL     1       3.553   4.967  18.135  0.00  0.00    +0.000 A 
BRANCH  15  18
ATOM     18  N   UNL     1       1.744   3.289  20.976  0.00  0.00    +0.000 N 
ATOM     19  O   UNL     1       2.222   3.463  22.107  0.00  0.00    +0.000 OA
ATOM     20  O   UNL     1       0.568   2.963  20.755  0.00  0.00    +0.000 OA
ENDBRANCH  15  18
ENDBRANCH  11  12
ENDBRANCH   6  11
TORSDOF 3
ENDMDL
MODEL 7
REMARK VINA RESULT:      -6.8      3.130      6.446
REMARK  Name = 
REMARK  4 active torsions:
REMARK  status: ('A' for Active; 'I' for Inactive)
REMARK    1  A    between atoms: C_1  and  C_2
REMARK    2  A    between atoms: N_6  and  C_7
REMARK    3  A    between atoms: C_7  and  C_8
REMARK    4  A    between atoms: C_11  and  N_12
REMARK                            x       y       z     vdW  Elec       q    Type
REMARK                         _______ _______ _______ _____ _____    ______ ____
ROOT
ATOM      1  C   UNL     1       0.239   2.927  19.877  0.00  0.00    +0.000 C 
ATOM      2  C   UNL     1       1.571   3.601  19.783  0.00  0.00    +0.000 C 
ATOM      3  C   UNL     1       1.710   4.925  19.644  0.00  0.00    +0.000 C 
ATOM      4  C   UNL     1       3.013   5.615  19.548  0.00  0.00    +0.000 C 
ATOM      5  O   UNL     1       3.036   6.838  19.484  0.00  0.00    +0.000 OA
ATOM      6  N   UNL     1       4.184   4.838  19.512  0.00  0.00    +0.000 N 
ATOM      7  S   UNL     1       4.114   3.174  19.334  0.00  0.00    +0.000 S 
ATOM      8  O   UNL     1       4.175   2.904  17.911  0.00  0.00    +0.000 OA
ATOM      9  O   UNL     1       5.096   2.596  20.227  0.00  0.00    +0.000 OA
ATOM     10  O   UNL     1       2.640   2.741  19.865  0.00  0.00    +0.000 OA
ENDROOT
BRANCH   6  11
ATOM     11  C   UNL     1       5.471   5.429  19.104  0.00  0.00    +0.000 C 
BRANCH  11  12
ATOM     12  C   UNL     1       5.842   5.192  17.657  0.00  0.00    +0.000 A 
ATOM     13  C   UNL     1       5.083   5.775  16.628  0.00  0.00    +0.000 A 
ATOM     14  C   UNL     1       5.483   5.659  15.294  0.00  0.00    +0.000 A 
ATOM     15  C   UNL     1       6.647   4.948  14.983  0.00  0.00    +0.000 A 
ATOM     16  C   UNL     1       7.386   4.319  15.992  0.00  0.00    +0.000 A 
ATOM     17  C   UNL     1       6.976   4.436  17.324  0.00  0.00    +0.000 A 
BRANCH  15  18
ATOM     18  N   UNL     1       7.113   4.889  13.592  0.00  0.00    +0.000 N 
ATOM     19  O   UNL     1       6.640   4.007  12.860  0.00  0.00    +0.000 OA
ATOM     20  O   UNL     1       7.942   5.735  13.224  0.00  0.00    +0.000 OA
ENDBRANCH  15  18
ENDBRANCH  11  12
ENDBRANCH   6  11
TORSDOF 3
ENDMDL
MODEL 8
REMARK VINA RESULT:      -6.7      2.219      3.592
REMARK  Name = 
REMARK  4 active torsions:
REMARK  status: ('A' for Active; 'I' for Inactive)
REMARK    1  A    between atoms: C_1  and  C_2
REMARK    2  A    between atoms: N_6  and  C_7
REMARK    3  A    between atoms: C_7  and  C_8
REMARK    4  A    between atoms: C_11  and  N_12
REMARK                            x       y       z     vdW  Elec       q    Type
REMARK                         _______ _______ _______ _____ _____    ______ ____
ROOT
ATOM      1  C   UNL     1       6.726   4.054  12.975  0.00  0.00    +0.000 C 
ATOM      2  C   UNL     1       6.403   4.339  14.407  0.00  0.00    +0.000 C 
ATOM      3  C   UNL     1       5.153   4.524  14.850  0.00  0.00    +0.000 C 
ATOM      4  C   UNL     1       4.807   4.806  16.258  0.00  0.00    +0.000 C 
ATOM      5  O   UNL     1       3.627   4.899  16.574  0.00  0.00    +0.000 OA
ATOM      6  N   UNL     1       5.849   4.980  17.185  0.00  0.00    +0.000 N 
ATOM      7  S   UNL     1       7.442   5.111  16.682  0.00  0.00    +0.000 S 
ATOM      8  O   UNL     1       7.702   6.523  16.483  0.00  0.00    +0.000 OA
ATOM      9  O   UNL     1       8.256   4.343  17.600  0.00  0.00    +0.000 OA
ATOM     10  O   UNL     1       7.502   4.380  15.232  0.00  0.00    +0.000 OA
ENDROOT
BRANCH   6  11
ATOM     11  C   UNL     1       5.591   5.568  18.512  0.00  0.00    +0.000 C 
BRANCH  11  12
ATOM     12  C   UNL     1       4.530   4.856  19.320  0.00  0.00    +0.000 A 
ATOM     13  C   UNL     1       3.445   5.573  19.853  0.00  0.00    +0.000 A 
ATOM     14  C   UNL     1       2.400   4.910  20.500  0.00  0.00    +0.000 A 
ATOM     15  C   UNL     1       2.441   3.517  20.625  0.00  0.00    +0.000 A 
ATOM     16  C   UNL     1       3.539   2.792  20.145  0.00  0.00    +0.000 A 
ATOM     17  C   UNL     1       4.583   3.466  19.502  0.00  0.00    +0.000 A 
BRANCH  15  18
ATOM     18  N   UNL     1       1.309   2.809  21.235  0.00  0.00    +0.000 N 
ATOM     19  O   UNL     1       0.313   2.593  20.530  0.00  0.00    +0.000 OA
ATOM     20  O   UNL     1       1.420   2.454  22.418  0.00  0.00    +0.000 OA
ENDBRANCH  15  18
ENDBRANCH  11  12
ENDBRANCH   6  11
TORSDOF 3
ENDMDL
MODEL 9
REMARK VINA RESULT:      -6.7      1.585      2.267
REMARK  Name = 
REMARK  4 active torsions:
REMARK  status: ('A' for Active; 'I' for Inactive)
REMARK    1  A    between atoms: C_1  and  C_2
REMARK    2  A    between atoms: N_6  and  C_7
REMARK    3  A    between atoms: C_7  and  C_8
REMARK    4  A    between atoms: C_11  and  N_12
REMARK                            x       y       z     vdW  Elec       q    Type
REMARK                         _______ _______ _______ _____ _____    ______ ____
ROOT
ATOM      1  C   UNL     1       8.241   8.822  17.657  0.00  0.00    +0.000 C 
ATOM      2  C   UNL     1       7.298   7.723  17.282  0.00  0.00    +0.000 C 
ATOM      3  C   UNL     1       5.978   7.789  17.498  0.00  0.00    +0.000 C 
ATOM      4  C   UNL     1       5.026   6.718  17.139  0.00  0.00    +0.000 C 
ATOM      5  O   UNL     1       3.828   6.901  17.323  0.00  0.00    +0.000 OA
ATOM      6  N   UNL     1       5.532   5.516  16.617  0.00  0.00    +0.000 N 
ATOM      7  S   UNL     1       7.176   5.193  16.624  0.00  0.00    +0.000 S 
ATOM      8  O   UNL     1       7.459   4.497  17.863  0.00  0.00    +0.000 OA
ATOM      9  O   UNL     1       7.508   4.581  15.354  0.00  0.00    +0.000 OA
ATOM     10  O   UNL     1       7.905   6.644  16.684  0.00  0.00    +0.000 OA
ENDROOT
BRANCH   6  11
ATOM     11  C   UNL     1       4.686   4.311  16.537  0.00  0.00    +0.000 C 
BRANCH  11  12
ATOM     12  C   UNL     1       3.961   3.965  17.818  0.00  0.00    +0.000 A 
ATOM     13  C   UNL     1       2.558   3.890  17.839  0.00  0.00    +0.000 A 
ATOM     14  C   UNL     1       1.884   3.458  18.984  0.00  0.00    +0.000 A 
ATOM     15  C   UNL     1       2.617   3.106  20.124  0.00  0.00    +0.000 A 
ATOM     16  C   UNL     1       4.012   3.225  20.136  0.00  0.00    +0.000 A 
ATOM     17  C   UNL     1       4.678   3.662  18.986  0.00  0.00    +0.000 A 
BRANCH  15  18
ATOM     18  N   UNL     1       1.918   2.579  21.302  0.00  0.00    +0.000 N 
ATOM     19  O   UNL     1       2.606   2.096  22.214  0.00  0.00    +0.000 OA
ATOM     20  O   UNL     1       0.681   2.661  21.325  0.00  0.00    +0.000 OA
ENDBRANCH  15  18
ENDBRANCH  11  12
ENDBRANCH   6  11
TORSDOF 3
ENDMDL
