MODEL 1
REMARK VINA RESULT:      -8.6      0.000      0.000
REMARK  Name = 
REMARK  6 active torsions:
REMARK  status: ('A' for Active; 'I' for Inactive)
REMARK    1  A    between atoms: C_2  and  C_3
REMARK    2  A    between atoms: C_3  and  O_4
REMARK    3  A    between atoms: O_4  and  C_5
REMARK    4  A    between atoms: N_15  and  N_16
REMARK    5  A    between atoms: C_17  and  C_19
REMARK    6  A    between atoms: C_24  and  O_25
REMARK                            x       y       z     vdW  Elec       q    Type
REMARK                         _______ _______ _______ _____ _____    ______ ____
ROOT
ATOM      1  O   UNL     1       7.537   7.933  17.024  0.00  0.00    +0.000 OA
ATOM      2  C   UNL     1       8.017   7.668  18.124  0.00  0.00    +0.000 C 
ATOM      3  N   UNL     1       8.744   8.573  18.874  0.00  0.00    +0.000 N 
ATOM      4  H   UNL     1       9.300   8.303  19.683  0.00  0.00    +0.000 HD
ENDROOT
BRANCH   3   5
ATOM      5  N   UNL     1       8.987   9.852  18.368  0.00  0.00    +0.000 N 
ATOM      6  C   UNL     1       9.343  10.841  19.259  0.00  0.00    +0.000 C 
ATOM      7  O   UNL     1       9.469  10.621  20.463  0.00  0.00    +0.000 OA
ATOM      8  H   UNL     1       8.810  10.034  17.379  0.00  0.00    +0.000 HD
BRANCH   6   9
ATOM      9  C   UNL     1       9.622  12.196  18.703  0.00  0.00    +0.000 A 
ATOM     10  C   UNL     1       8.839  13.256  19.188  0.00  0.00    +0.000 A 
ATOM     11  C   UNL     1       9.055  14.562  18.745  0.00  0.00    +0.000 A 
ATOM     12  C   UNL     1      10.047  14.820  17.804  0.00  0.00    +0.000 A 
ATOM     13  C   UNL     1      10.820  13.774  17.295  0.00  0.00    +0.000 A 
ATOM     14  C   UNL     1      10.607  12.465  17.744  0.00  0.00    +0.000 A 
BRANCH  14  15
ATOM     15  O   UNL     1      11.368  11.453  17.223  0.00  0.00    +0.000 OA
ATOM     16  H   UNL     1      10.800  10.678  17.066  0.00  0.00    +0.000 HD
ENDBRANCH  14  15
ENDBRANCH   6   9
ENDBRANCH   3   5
BRANCH   2  17
ATOM     17  C   UNL     1       7.800   6.331  18.833  0.00  0.00    +0.000 C 
BRANCH  17  18
ATOM     18  O   UNL     1       7.610   5.253  17.927  0.00  0.00    +0.000 OA
BRANCH  18  19
ATOM     19  C   UNL     1       6.312   4.837  17.752  0.00  0.00    +0.000 A 
ATOM     20  C   UNL     1       5.797   4.262  16.589  0.00  0.00    +0.000 A 
ATOM     21  C   UNL     1       4.450   3.892  16.518  0.00  0.00    +0.000 A 
ATOM     22  C   UNL     1       3.591   4.084  17.607  0.00  0.00    +0.000 A 
ATOM     23  C   UNL     1       2.238   3.714  17.536  0.00  0.00    +0.000 A 
ATOM     24  C   UNL     1       1.389   3.905  18.626  0.00  0.00    +0.000 A 
ATOM     25  C   UNL     1       1.885   4.467  19.798  0.00  0.00    +0.000 A 
ATOM     26  C   UNL     1       3.229   4.841  19.882  0.00  0.00    +0.000 A 
ATOM     27  C   UNL     1       4.100   4.659  18.792  0.00  0.00    +0.000 A 
ATOM     28  C   UNL     1       5.459   5.031  18.846  0.00  0.00    +0.000 A 
ENDBRANCH  18  19
ENDBRANCH  17  18
ENDBRANCH   2  17
TORSDOF 6
ENDMDL
MODEL 2
REMARK VINA RESULT:      -8.6      5.231      7.211
REMARK  Name = 
REMARK  6 active torsions:
REMARK  status: ('A' for Active; 'I' for Inactive)
REMARK    1  A    between atoms: C_2  and  C_3
REMARK    2  A    between atoms: C_3  and  O_4
REMARK    3  A    between atoms: O_4  and  C_5
REMARK    4  A    between atoms: N_15  and  N_16
REMARK    5  A    between atoms: C_17  and  C_19
REMARK    6  A    between atoms: C_24  and  O_25
REMARK                            x       y       z     vdW  Elec       q    Type
REMARK                         _______ _______ _______ _____ _____    ______ ____
ROOT
ATOM      1  O   UNL     1       0.686   4.086  20.352  0.00  0.00    +0.000 OA
ATOM      2  C   UNL     1       1.884   4.161  20.617  0.00  0.00    +0.000 C 
ATOM      3  N   UNL     1       2.529   5.353  20.887  0.00  0.00    +0.000 N 
ATOM      4  H   UNL     1       3.544   5.441  20.914  0.00  0.00    +0.000 HD
ENDROOT
BRANCH   3   5
ATOM      5  N   UNL     1       1.816   6.553  20.835  0.00  0.00    +0.000 N 
ATOM      6  C   UNL     1       2.097   7.426  19.807  0.00  0.00    +0.000 C 
ATOM      7  O   UNL     1       2.932   7.168  18.940  0.00  0.00    +0.000 OA
ATOM      8  H   UNL     1       1.179   6.782  21.599  0.00  0.00    +0.000 HD
BRANCH   6   9
ATOM      9  C   UNL     1       1.312   8.692  19.750  0.00  0.00    +0.000 A 
ATOM     10  C   UNL     1       0.534   9.008  20.875  0.00  0.00    +0.000 A 
ATOM     11  C   UNL     1      -0.207  10.190  20.919  0.00  0.00    +0.000 A 
ATOM     12  C   UNL     1      -0.188  11.062  19.834  0.00  0.00    +0.000 A 
ATOM     13  C   UNL     1       0.565  10.752  18.699  0.00  0.00    +0.000 A 
ATOM     14  C   UNL     1       1.312   9.570  18.658  0.00  0.00    +0.000 A 
BRANCH  14  15
ATOM     15  O   UNL     1       2.032   9.279  17.530  0.00  0.00    +0.000 OA
ATOM     16  H   UNL     1       1.745   8.415  17.184  0.00  0.00    +0.000 HD
ENDBRANCH  14  15
ENDBRANCH   6   9
ENDBRANCH   3   5
BRANCH   2  17
ATOM     17  C   UNL     1       2.790   2.937  20.759  0.00  0.00    +0.000 C 
BRANCH  17  18
ATOM     18  O   UNL     1       3.278   2.466  19.511  0.00  0.00    +0.000 OA
BRANCH  18  19
ATOM     19  C   UNL     1       3.952   3.386  18.744  0.00  0.00    +0.000 A 
ATOM     20  C   UNL     1       3.614   3.756  17.442  0.00  0.00    +0.000 A 
ATOM     21  C   UNL     1       4.385   4.694  16.748  0.00  0.00    +0.000 A 
ATOM     22  C   UNL     1       5.507   5.285  17.342  0.00  0.00    +0.000 A 
ATOM     23  C   UNL     1       6.284   6.225  16.646  0.00  0.00    +0.000 A 
ATOM     24  C   UNL     1       7.399   6.812  17.245  0.00  0.00    +0.000 A 
ATOM     25  C   UNL     1       7.747   6.465  18.546  0.00  0.00    +0.000 A 
ATOM     26  C   UNL     1       6.984   5.529  19.249  0.00  0.00    +0.000 A 
ATOM     27  C   UNL     1       5.858   4.923  18.661  0.00  0.00    +0.000 A 
ATOM     28  C   UNL     1       5.072   3.974  19.345  0.00  0.00    +0.000 A 
ENDBRANCH  18  19
ENDBRANCH  17  18
ENDBRANCH   2  17
TORSDOF 6
ENDMDL
MODEL 3
REMARK VINA RESULT:      -8.5      1.696      2.378
REMARK  Name = 
REMARK  6 active torsions:
REMARK  status: ('A' for Active; 'I' for Inactive)
REMARK    1  A    between atoms: C_2  and  C_3
REMARK    2  A    between atoms: C_3  and  O_4
REMARK    3  A    between atoms: O_4  and  C_5
REMARK    4  A    between atoms: N_15  and  N_16
REMARK    5  A    between atoms: C_17  and  C_19
REMARK    6  A    between atoms: C_24  and  O_25
REMARK                            x       y       z     vdW  Elec       q    Type
REMARK                         _______ _______ _______ _____ _____    ______ ____
ROOT
ATOM      1  O   UNL     1       8.155   6.578  18.639  0.00  0.00    +0.000 OA
ATOM      2  C   UNL     1       7.497   7.212  17.817  0.00  0.00    +0.000 C 
ATOM      3  N   UNL     1       7.758   8.529  17.487  0.00  0.00    +0.000 N 
ATOM      4  H   UNL     1       7.107   9.109  16.961  0.00  0.00    +0.000 HD
ENDROOT
BRANCH   3   5
ATOM      5  N   UNL     1       8.798   9.208  18.127  0.00  0.00    +0.000 N 
ATOM      6  C   UNL     1       8.847  10.579  18.002  0.00  0.00    +0.000 C 
ATOM      7  O   UNL     1       7.998  11.208  17.370  0.00  0.00    +0.000 OA
ATOM      8  H   UNL     1       9.532   8.666  18.587  0.00  0.00    +0.000 HD
BRANCH   6   9
ATOM      9  C   UNL     1       9.949  11.293  18.708  0.00  0.00    +0.000 A 
ATOM     10  C   UNL     1      10.950  11.866  17.908  0.00  0.00    +0.000 A 
ATOM     11  C   UNL     1      12.001  12.580  18.485  0.00  0.00    +0.000 A 
ATOM     12  C   UNL     1      12.069  12.718  19.868  0.00  0.00    +0.000 A 
ATOM     13  C   UNL     1      11.093  12.136  20.680  0.00  0.00    +0.000 A 
ATOM     14  C   UNL     1      10.036  11.424  20.100  0.00  0.00    +0.000 A 
BRANCH  14  15
ATOM     15  O   UNL     1       9.097  10.851  20.915  0.00  0.00    +0.000 OA
ATOM     16  H   UNL     1       9.099  11.311  21.773  0.00  0.00    +0.000 HD
ENDBRANCH  14  15
ENDBRANCH   6   9
ENDBRANCH   3   5
BRANCH   2  17
ATOM     17  C   UNL     1       6.359   6.599  17.000  0.00  0.00    +0.000 C 
BRANCH  17  18
ATOM     18  O   UNL     1       5.078   6.872  17.550  0.00  0.00    +0.000 OA
BRANCH  18  19
ATOM     19  C   UNL     1       4.254   5.786  17.721  0.00  0.00    +0.000 A 
ATOM     20  C   UNL     1       4.139   4.711  16.838  0.00  0.00    +0.000 A 
ATOM     21  C   UNL     1       3.252   3.664  17.107  0.00  0.00    +0.000 A 
ATOM     22  C   UNL     1       2.464   3.667  18.265  0.00  0.00    +0.000 A 
ATOM     23  C   UNL     1       1.571   2.617  18.535  0.00  0.00    +0.000 A 
ATOM     24  C   UNL     1       0.791   2.625  19.692  0.00  0.00    +0.000 A 
ATOM     25  C   UNL     1       0.898   3.682  20.590  0.00  0.00    +0.000 A 
ATOM     26  C   UNL     1       1.781   4.734  20.332  0.00  0.00    +0.000 A 
ATOM     27  C   UNL     1       2.573   4.745  19.169  0.00  0.00    +0.000 A 
ATOM     28  C   UNL     1       3.470   5.795  18.881  0.00  0.00    +0.000 A 
ENDBRANCH  18  19
ENDBRANCH  17  18
ENDBRANCH   2  17
TORSDOF 6
ENDMDL
MODEL 4
REMARK VINA RESULT:      -8.5      0.847      1.360
REMARK  Name = 
REMARK  6 active torsions:
REMARK  status: ('A' for Active; 'I' for Inactive)
REMARK    1  A    between atoms: C_2  and  C_3
REMARK    2  A    between atoms: C_3  and  O_4
REMARK    3  A    between atoms: O_4  and  C_5
REMARK    4  A    between atoms: N_15  and  N_16
REMARK    5  A    between atoms: C_17  and  C_19
REMARK    6  A    between atoms: C_24  and  O_25
REMARK                            x       y       z     vdW  Elec       q    Type
REMARK                         _______ _______ _______ _____ _____    ______ ____
ROOT
ATOM      1  O   UNL     1       7.778   7.696  16.962  0.00  0.00    +0.000 OA
ATOM      2  C   UNL     1       8.062   7.497  18.141  0.00  0.00    +0.000 C 
ATOM      3  N   UNL     1       8.658   8.447  18.949  0.00  0.00    +0.000 N 
ATOM      4  H   UNL     1       9.066   8.226  19.855  0.00  0.00    +0.000 HD
ENDROOT
BRANCH   3   5
ATOM      5  N   UNL     1       8.995   9.694  18.418  0.00  0.00    +0.000 N 
ATOM      6  C   UNL     1       9.420  10.673  19.289  0.00  0.00    +0.000 C 
ATOM      7  O   UNL     1       9.527  10.470  20.497  0.00  0.00    +0.000 OA
ATOM      8  H   UNL     1       8.834   9.867  17.424  0.00  0.00    +0.000 HD
BRANCH   6   9
ATOM      9  C   UNL     1       9.799  11.992  18.705  0.00  0.00    +0.000 A 
ATOM     10  C   UNL     1      10.671  11.973  17.605  0.00  0.00    +0.000 A 
ATOM     11  C   UNL     1      11.052  13.159  16.977  0.00  0.00    +0.000 A 
ATOM     12  C   UNL     1      10.574  14.378  17.450  0.00  0.00    +0.000 A 
ATOM     13  C   UNL     1       9.722  14.416  18.556  0.00  0.00    +0.000 A 
ATOM     14  C   UNL     1       9.337  13.225  19.182  0.00  0.00    +0.000 A 
BRANCH  14  15
ATOM     15  O   UNL     1       8.511  13.286  20.272  0.00  0.00    +0.000 OA
ATOM     16  H   UNL     1       7.941  14.072  20.195  0.00  0.00    +0.000 HD
ENDBRANCH  14  15
ENDBRANCH   6   9
ENDBRANCH   3   5
BRANCH   2  17
ATOM     17  C   UNL     1       7.716   6.205  18.880  0.00  0.00    +0.000 C 
BRANCH  17  18
ATOM     18  O   UNL     1       7.504   5.108  18.001  0.00  0.00    +0.000 OA
BRANCH  18  19
ATOM     19  C   UNL     1       6.197   4.723  17.826  0.00  0.00    +0.000 A 
ATOM     20  C   UNL     1       5.652   4.227  16.641  0.00  0.00    +0.000 A 
ATOM     21  C   UNL     1       4.299   3.881  16.572  0.00  0.00    +0.000 A 
ATOM     22  C   UNL     1       3.463   4.019  17.687  0.00  0.00    +0.000 A 
ATOM     23  C   UNL     1       2.103   3.673  17.619  0.00  0.00    +0.000 A 
ATOM     24  C   UNL     1       1.277   3.811  18.734  0.00  0.00    +0.000 A 
ATOM     25  C   UNL     1       1.802   4.294  19.929  0.00  0.00    +0.000 A 
ATOM     26  C   UNL     1       3.152   4.643  20.009  0.00  0.00    +0.000 A 
ATOM     27  C   UNL     1       4.001   4.515  18.894  0.00  0.00    +0.000 A 
ATOM     28  C   UNL     1       5.367   4.863  18.945  0.00  0.00    +0.000 A 
ENDBRANCH  18  19
ENDBRANCH  17  18
ENDBRANCH   2  17
TORSDOF 6
ENDMDL
MODEL 5
REMARK VINA RESULT:      -8.4      1.777      2.143
REMARK  Name = 
REMARK  6 active torsions:
REMARK  status: ('A' for Active; 'I' for Inactive)
REMARK    1  A    between atoms: C_2  and  C_3
REMARK    2  A    between atoms: C_3  and  O_4
REMARK    3  A    between atoms: O_4  and  C_5
REMARK    4  A    between atoms: N_15  and  N_16
REMARK    5  A    between atoms: C_17  and  C_19
REMARK    6  A    between atoms: C_24  and  O_25
REMARK                            x       y       z     vdW  Elec       q    Type
REMARK                         _______ _______ _______ _____ _____    ______ ____
ROOT
ATOM      1  O   UNL     1       7.803   6.397  18.789  0.00  0.00    +0.000 OA
ATOM      2  C   UNL     1       7.396   6.966  17.779  0.00  0.00    +0.000 C 
ATOM      3  N   UNL     1       7.788   8.241  17.415  0.00  0.00    +0.000 N 
ATOM      4  H   UNL     1       7.312   8.783  16.696  0.00  0.00    +0.000 HD
ENDROOT
BRANCH   3   5
ATOM      5  N   UNL     1       8.666   8.954  18.234  0.00  0.00    +0.000 N 
ATOM      6  C   UNL     1       8.682  10.327  18.122  0.00  0.00    +0.000 C 
ATOM      7  O   UNL     1       7.939  10.927  17.346  0.00  0.00    +0.000 OA
ATOM      8  H   UNL     1       9.324   8.437  18.820  0.00  0.00    +0.000 HD
BRANCH   6   9
ATOM      9  C   UNL     1       9.608  11.077  19.018  0.00  0.00    +0.000 A 
ATOM     10  C   UNL     1       9.200  11.250  20.351  0.00  0.00    +0.000 A 
ATOM     11  C   UNL     1      10.020  11.911  21.266  0.00  0.00    +0.000 A 
ATOM     12  C   UNL     1      11.250  12.418  20.856  0.00  0.00    +0.000 A 
ATOM     13  C   UNL     1      11.661  12.272  19.529  0.00  0.00    +0.000 A 
ATOM     14  C   UNL     1      10.841  11.604  18.613  0.00  0.00    +0.000 A 
BRANCH  14  15
ATOM     15  O   UNL     1      11.257  11.484  17.314  0.00  0.00    +0.000 OA
ATOM     16  H   UNL     1      11.400  10.542  17.113  0.00  0.00    +0.000 HD
ENDBRANCH  14  15
ENDBRANCH   6   9
ENDBRANCH   3   5
BRANCH   2  17
ATOM     17  C   UNL     1       6.470   6.304  16.759  0.00  0.00    +0.000 C 
BRANCH  17  18
ATOM     18  O   UNL     1       5.103   6.633  16.961  0.00  0.00    +0.000 OA
BRANCH  18  19
ATOM     19  C   UNL     1       4.281   5.593  17.322  0.00  0.00    +0.000 A 
ATOM     20  C   UNL     1       4.156   4.385  16.635  0.00  0.00    +0.000 A 
ATOM     21  C   UNL     1       3.272   3.401  17.087  0.00  0.00    +0.000 A 
ATOM     22  C   UNL     1       2.498   3.599  18.236  0.00  0.00    +0.000 A 
ATOM     23  C   UNL     1       1.608   2.612  18.690  0.00  0.00    +0.000 A 
ATOM     24  C   UNL     1       0.842   2.816  19.838  0.00  0.00    +0.000 A 
ATOM     25  C   UNL     1       0.960   4.009  20.544  0.00  0.00    +0.000 A 
ATOM     26  C   UNL     1       1.839   5.001  20.103  0.00  0.00    +0.000 A 
ATOM     27  C   UNL     1       2.618   4.815  18.945  0.00  0.00    +0.000 A 
ATOM     28  C   UNL     1       3.511   5.799  18.474  0.00  0.00    +0.000 A 
ENDBRANCH  18  19
ENDBRANCH  17  18
ENDBRANCH   2  17
TORSDOF 6
ENDMDL
MODEL 6
REMARK VINA RESULT:      -8.3      5.744      7.710
REMARK  Name = 
REMARK  6 active torsions:
REMARK  status: ('A' for Active; 'I' for Inactive)
REMARK    1  A    between atoms: C_2  and  C_3
REMARK    2  A    between atoms: C_3  and  O_4
REMARK    3  A    between atoms: O_4  and  C_5
REMARK    4  A    between atoms: N_15  and  N_16
REMARK    5  A    between atoms: C_17  and  C_19
REMARK    6  A    between atoms: C_24  and  O_25
REMARK                            x       y       z     vdW  Elec       q    Type
REMARK                         _______ _______ _______ _____ _____    ______ ____
ROOT
ATOM      1  O   UNL     1       2.332   3.222  16.774  0.00  0.00    +0.000 OA
ATOM      2  C   UNL     1       3.076   3.177  17.751  0.00  0.00    +0.000 C 
ATOM      3  N   UNL     1       4.454   3.133  17.656  0.00  0.00    +0.000 N 
ATOM      4  H   UNL     1       5.058   2.903  18.443  0.00  0.00    +0.000 HD
ENDROOT
BRANCH   3   5
ATOM      5  N   UNL     1       5.059   3.105  16.397  0.00  0.00    +0.000 N 
ATOM      6  C   UNL     1       5.338   4.310  15.789  0.00  0.00    +0.000 C 
ATOM      7  O   UNL     1       5.091   5.387  16.329  0.00  0.00    +0.000 OA
ATOM      8  H   UNL     1       5.192   2.205  15.933  0.00  0.00    +0.000 HD
BRANCH   6   9
ATOM      9  C   UNL     1       6.005   4.266  14.456  0.00  0.00    +0.000 A 
ATOM     10  C   UNL     1       5.417   3.446  13.479  0.00  0.00    +0.000 A 
ATOM     11  C   UNL     1       5.957   3.370  12.194  0.00  0.00    +0.000 A 
ATOM     12  C   UNL     1       7.096   4.104  11.876  0.00  0.00    +0.000 A 
ATOM     13  C   UNL     1       7.705   4.908  12.842  0.00  0.00    +0.000 A 
ATOM     14  C   UNL     1       7.160   4.987  14.129  0.00  0.00    +0.000 A 
BRANCH  14  15
ATOM     15  O   UNL     1       7.780   5.771  15.064  0.00  0.00    +0.000 OA
ATOM     16  H   UNL     1       8.704   5.916  14.794  0.00  0.00    +0.000 HD
ENDBRANCH  14  15
ENDBRANCH   6   9
ENDBRANCH   3   5
BRANCH   2  17
ATOM     17  C   UNL     1       2.572   3.247  19.193  0.00  0.00    +0.000 C 
BRANCH  17  18
ATOM     18  O   UNL     1       3.250   4.227  19.966  0.00  0.00    +0.000 OA
BRANCH  18  19
ATOM     19  C   UNL     1       2.651   5.461  20.032  0.00  0.00    +0.000 A 
ATOM     20  C   UNL     1       1.828   5.906  21.068  0.00  0.00    +0.000 A 
ATOM     21  C   UNL     1       1.256   7.181  21.021  0.00  0.00    +0.000 A 
ATOM     22  C   UNL     1       1.497   8.040  19.942  0.00  0.00    +0.000 A 
ATOM     23  C   UNL     1       0.922   9.320  19.893  0.00  0.00    +0.000 A 
ATOM     24  C   UNL     1       1.169  10.172  18.816  0.00  0.00    +0.000 A 
ATOM     25  C   UNL     1       1.994   9.752  17.778  0.00  0.00    +0.000 A 
ATOM     26  C   UNL     1       2.571   8.480  17.813  0.00  0.00    +0.000 A 
ATOM     27  C   UNL     1       2.332   7.605  18.890  0.00  0.00    +0.000 A 
ATOM     28  C   UNL     1       2.898   6.315  18.950  0.00  0.00    +0.000 A 
ENDBRANCH  18  19
ENDBRANCH  17  18
ENDBRANCH   2  17
TORSDOF 6
ENDMDL
MODEL 7
REMARK VINA RESULT:      -8.3      1.785      2.529
REMARK  Name = 
REMARK  6 active torsions:
REMARK  status: ('A' for Active; 'I' for Inactive)
REMARK    1  A    between atoms: C_2  and  C_3
REMARK    2  A    between atoms: C_3  and  O_4
REMARK    3  A    between atoms: O_4  and  C_5
REMARK    4  A    between atoms: N_15  and  N_16
REMARK    5  A    between atoms: C_17  and  C_19
REMARK    6  A    between atoms: C_24  and  O_25
REMARK                            x       y       z     vdW  Elec       q    Type
REMARK                         _______ _______ _______ _____ _____    ______ ____
ROOT
ATOM      1  O   UNL     1       8.166   5.797  19.521  0.00  0.00    +0.000 OA
ATOM      2  C   UNL     1       7.687   6.212  18.468  0.00  0.00    +0.000 C 
ATOM      3  N   UNL     1       7.902   7.490  17.987  0.00  0.00    +0.000 N 
ATOM      4  H   UNL     1       7.358   7.895  17.227  0.00  0.00    +0.000 HD
ENDROOT
BRANCH   3   5
ATOM      5  N   UNL     1       8.674   8.386  18.729  0.00  0.00    +0.000 N 
ATOM      6  C   UNL     1       8.661   9.712  18.354  0.00  0.00    +0.000 C 
ATOM      7  O   UNL     1       7.982  10.118  17.412  0.00  0.00    +0.000 OA
ATOM      8  H   UNL     1       9.285   8.023  19.462  0.00  0.00    +0.000 HD
BRANCH   6   9
ATOM      9  C   UNL     1       9.472  10.662  19.169  0.00  0.00    +0.000 A 
ATOM     10  C   UNL     1       9.115  10.805  20.519  0.00  0.00    +0.000 A 
ATOM     11  C   UNL     1       9.840  11.649  21.362  0.00  0.00    +0.000 A 
ATOM     12  C   UNL     1      10.921  12.368  20.861  0.00  0.00    +0.000 A 
ATOM     13  C   UNL     1      11.276  12.253  19.515  0.00  0.00    +0.000 A 
ATOM     14  C   UNL     1      10.552  11.403  18.672  0.00  0.00    +0.000 A 
BRANCH  14  15
ATOM     15  O   UNL     1      10.909  11.315  17.353  0.00  0.00    +0.000 OA
ATOM     16  H   UNL     1      10.106  11.357  16.804  0.00  0.00    +0.000 HD
ENDBRANCH  14  15
ENDBRANCH   6   9
ENDBRANCH   3   5
BRANCH   2  17
ATOM     17  C   UNL     1       6.861   5.340  17.521  0.00  0.00    +0.000 C 
BRANCH  17  18
ATOM     18  O   UNL     1       5.666   5.976  17.090  0.00  0.00    +0.000 OA
BRANCH  18  19
ATOM     19  C   UNL     1       4.522   5.629  17.766  0.00  0.00    +0.000 A 
ATOM     20  C   UNL     1       3.678   6.516  18.436  0.00  0.00    +0.000 A 
ATOM     21  C   UNL     1       2.545   6.045  19.107  0.00  0.00    +0.000 A 
ATOM     22  C   UNL     1       2.230   4.682  19.121  0.00  0.00    +0.000 A 
ATOM     23  C   UNL     1       1.093   4.208  19.797  0.00  0.00    +0.000 A 
ATOM     24  C   UNL     1       0.783   2.848  19.804  0.00  0.00    +0.000 A 
ATOM     25  C   UNL     1       1.606   1.948  19.133  0.00  0.00    +0.000 A 
ATOM     26  C   UNL     1       2.741   2.406  18.459  0.00  0.00    +0.000 A 
ATOM     27  C   UNL     1       3.072   3.773  18.443  0.00  0.00    +0.000 A 
ATOM     28  C   UNL     1       4.212   4.263  17.774  0.00  0.00    +0.000 A 
ENDBRANCH  18  19
ENDBRANCH  17  18
ENDBRANCH   2  17
TORSDOF 6
ENDMDL
MODEL 8
REMARK VINA RESULT:      -8.3      6.844     10.163
REMARK  Name = 
REMARK  6 active torsions:
REMARK  status: ('A' for Active; 'I' for Inactive)
REMARK    1  A    between atoms: C_2  and  C_3
REMARK    2  A    between atoms: C_3  and  O_4
REMARK    3  A    between atoms: O_4  and  C_5
REMARK    4  A    between atoms: N_15  and  N_16
REMARK    5  A    between atoms: C_17  and  C_19
REMARK    6  A    between atoms: C_24  and  O_25
REMARK                            x       y       z     vdW  Elec       q    Type
REMARK                         _______ _______ _______ _____ _____    ______ ____
ROOT
ATOM      1  O   UNL     1      -0.647   8.071  21.688  0.00  0.00    +0.000 OA
ATOM      2  C   UNL     1       0.418   8.679  21.599  0.00  0.00    +0.000 C 
ATOM      3  N   UNL     1       1.603   8.082  21.210  0.00  0.00    +0.000 N 
ATOM      4  H   UNL     1       2.511   8.529  21.321  0.00  0.00    +0.000 HD
ENDROOT
BRANCH   3   5
ATOM      5  N   UNL     1       1.628   6.715  20.927  0.00  0.00    +0.000 N 
ATOM      6  C   UNL     1       2.084   6.320  19.689  0.00  0.00    +0.000 C 
ATOM      7  O   UNL     1       2.482   7.128  18.851  0.00  0.00    +0.000 OA
ATOM      8  H   UNL     1       1.230   6.063  21.606  0.00  0.00    +0.000 HD
BRANCH   6   9
ATOM      9  C   UNL     1       2.127   4.856  19.410  0.00  0.00    +0.000 A 
ATOM     10  C   UNL     1       1.370   4.026  20.252  0.00  0.00    +0.000 A 
ATOM     11  C   UNL     1       1.328   2.647  20.043  0.00  0.00    +0.000 A 
ATOM     12  C   UNL     1       2.052   2.081  18.997  0.00  0.00    +0.000 A 
ATOM     13  C   UNL     1       2.826   2.891  18.163  0.00  0.00    +0.000 A 
ATOM     14  C   UNL     1       2.864   4.274  18.370  0.00  0.00    +0.000 A 
BRANCH  14  15
ATOM     15  O   UNL     1       3.640   5.047  17.549  0.00  0.00    +0.000 OA
ATOM     16  H   UNL     1       3.162   5.203  16.715  0.00  0.00    +0.000 HD
ENDBRANCH  14  15
ENDBRANCH   6   9
ENDBRANCH   3   5
BRANCH   2  17
ATOM     17  C   UNL     1       0.546  10.185  21.828  0.00  0.00    +0.000 C 
BRANCH  17  18
ATOM     18  O   UNL     1       0.679  10.916  20.617  0.00  0.00    +0.000 OA
BRANCH  18  19
ATOM     19  C   UNL     1      -0.486  11.159  19.930  0.00  0.00    +0.000 A 
ATOM     20  C   UNL     1      -1.486  12.049  20.323  0.00  0.00    +0.000 A 
ATOM     21  C   UNL     1      -2.641  12.203  19.551  0.00  0.00    +0.000 A 
ATOM     22  C   UNL     1      -2.819  11.477  18.367  0.00  0.00    +0.000 A 
ATOM     23  C   UNL     1      -3.980  11.630  17.591  0.00  0.00    +0.000 A 
ATOM     24  C   UNL     1      -4.149  10.905  16.412  0.00  0.00    +0.000 A 
ATOM     25  C   UNL     1      -3.159  10.021  15.996  0.00  0.00    +0.000 A 
ATOM     26  C   UNL     1      -2.000   9.857  16.759  0.00  0.00    +0.000 A 
ATOM     27  C   UNL     1      -1.813  10.577  17.954  0.00  0.00    +0.000 A 
ATOM     28  C   UNL     1      -0.656  10.430  18.746  0.00  0.00    +0.000 A 
ENDBRANCH  18  19
ENDBRANCH  17  18
ENDBRANCH   2  17
TORSDOF 6
ENDMDL
MODEL 9
REMARK VINA RESULT:      -8.2      1.713      2.573
REMARK  Name = 
REMARK  6 active torsions:
REMARK  status: ('A' for Active; 'I' for Inactive)
REMARK    1  A    between atoms: C_2  and  C_3
REMARK    2  A    between atoms: C_3  and  O_4
REMARK    3  A    between atoms: O_4  and  C_5
REMARK    4  A    between atoms: N_15  and  N_16
REMARK    5  A    between atoms: C_17  and  C_19
REMARK    6  A    between atoms: C_24  and  O_25
REMARK                            x       y       z     vdW  Elec       q    Type
REMARK                         _______ _______ _______ _____ _____    ______ ____
ROOT
ATOM      1  O   UNL     1       8.265   6.750  18.871  0.00  0.00    +0.000 OA
ATOM      2  C   UNL     1       7.676   7.269  17.925  0.00  0.00    +0.000 C 
ATOM      3  N   UNL     1       7.865   8.584  17.541  0.00  0.00    +0.000 N 
ATOM      4  H   UNL     1       7.246   9.066  16.892  0.00  0.00    +0.000 HD
ENDROOT
BRANCH   3   5
ATOM      5  N   UNL     1       8.740   9.396  18.265  0.00  0.00    +0.000 N 
ATOM      6  C   UNL     1       8.660  10.759  18.078  0.00  0.00    +0.000 C 
ATOM      7  O   UNL     1       7.836  11.266  17.318  0.00  0.00    +0.000 OA
ATOM      8  H   UNL     1       9.463   8.956  18.838  0.00  0.00    +0.000 HD
BRANCH   6   9
ATOM      9  C   UNL     1       9.584  11.616  18.875  0.00  0.00    +0.000 A 
ATOM     10  C   UNL     1      10.221  12.666  18.195  0.00  0.00    +0.000 A 
ATOM     11  C   UNL     1      11.077  13.537  18.871  0.00  0.00    +0.000 A 
ATOM     12  C   UNL     1      11.315  13.358  20.231  0.00  0.00    +0.000 A 
ATOM     13  C   UNL     1      10.706  12.305  20.917  0.00  0.00    +0.000 A 
ATOM     14  C   UNL     1       9.844  11.436  20.240  0.00  0.00    +0.000 A 
BRANCH  14  15
ATOM     15  O   UNL     1       9.267  10.403  20.929  0.00  0.00    +0.000 OA
ATOM     16  H   UNL     1       9.822  10.188  21.700  0.00  0.00    +0.000 HD
ENDBRANCH  14  15
ENDBRANCH   6   9
ENDBRANCH   3   5
BRANCH   2  17
ATOM     17  C   UNL     1       6.725   6.502  17.007  0.00  0.00    +0.000 C 
BRANCH  17  18
ATOM     18  O   UNL     1       5.454   7.126  16.886  0.00  0.00    +0.000 OA
BRANCH  18  19
ATOM     19  C   UNL     1       4.384   6.406  17.360  0.00  0.00    +0.000 A 
ATOM     20  C   UNL     1       3.246   6.948  17.959  0.00  0.00    +0.000 A 
ATOM     21  C   UNL     1       2.223   6.114  18.420  0.00  0.00    +0.000 A 
ATOM     22  C   UNL     1       2.311   4.723  18.288  0.00  0.00    +0.000 A 
ATOM     23  C   UNL     1       1.284   3.885  18.753  0.00  0.00    +0.000 A 
ATOM     24  C   UNL     1       1.378   2.500  18.615  0.00  0.00    +0.000 A 
ATOM     25  C   UNL     1       2.499   1.940  18.010  0.00  0.00    +0.000 A 
ATOM     26  C   UNL     1       3.529   2.762  17.546  0.00  0.00    +0.000 A 
ATOM     27  C   UNL     1       3.454   4.161  17.679  0.00  0.00    +0.000 A 
ATOM     28  C   UNL     1       4.479   5.015  17.223  0.00  0.00    +0.000 A 
ENDBRANCH  18  19
ENDBRANCH  17  18
ENDBRANCH   2  17
TORSDOF 6
ENDMDL
