MODEL 1
REMARK VINA RESULT:      -7.5      0.000      0.000
REMARK  Name = 
REMARK  2 active torsions:
REMARK  status: ('A' for Active; 'I' for Inactive)
REMARK    1  A    between atoms: C_2  and  C_3
REMARK    2  A    between atoms: C_3  and  N_4
REMARK                            x       y       z     vdW  Elec       q    Type
REMARK                         _______ _______ _______ _____ _____    ______ ____
ROOT
ATOM      1  O   UNL     1       3.709   1.944  17.437  0.00  0.00    +0.000 OA
ATOM      2  C   UNL     1       3.655   3.131  17.801  0.00  0.00    +0.000 C 
ATOM      3  N   UNL     1       2.510   3.615  18.443  0.00  0.00    +0.000 N 
ATOM      4  C   UNL     1       1.480   2.638  18.819  0.00  0.00    +0.000 C 
ATOM      5  C   UNL     1       1.486   2.460  20.324  0.00  0.00    +0.000 C 
ATOM      6  C   UNL     1       1.123   3.782  20.989  0.00  0.00    +0.000 C 
ATOM      7  C   UNL     1       1.665   5.001  20.268  0.00  0.00    +0.000 A 
ATOM      8  C   UNL     1       1.479   6.257  20.867  0.00  0.00    +0.000 A 
ATOM      9  C   UNL     1       1.879   7.419  20.217  0.00  0.00    +0.000 A 
ATOM     10  C   UNL     1       2.432   7.337  18.943  0.00  0.00    +0.000 A 
ATOM     11  C   UNL     1       2.624   6.090  18.338  0.00  0.00    +0.000 A 
ATOM     12  C   UNL     1       2.306   4.907  19.011  0.00  0.00    +0.000 A 
ENDROOT
BRANCH   2  13
ATOM     13  C   UNL     1       4.874   4.023  17.504  0.00  0.00    +0.000 C 
BRANCH  13  14
ATOM     14  N   UNL     1       4.930   4.592  16.130  0.00  0.00    +0.000 NA
ATOM     15  C   UNL     1       6.103   4.021  15.411  0.00  0.00    +0.000 C 
ATOM     16  C   UNL     1       7.467   4.577  15.874  0.00  0.00    +0.000 C 
ATOM     17  O   UNL     1       7.506   6.008  15.837  0.00  0.00    +0.000 OA
ATOM     18  C   UNL     1       6.424   6.574  16.595  0.00  0.00    +0.000 C 
ATOM     19  C   UNL     1       5.074   6.064  16.073  0.00  0.00    +0.000 C 
ENDBRANCH  13  14
ENDBRANCH   2  13
TORSDOF 2
ENDMDL
MODEL 2
REMARK VINA RESULT:      -7.4      0.815      1.169
REMARK  Name = 
REMARK  2 active torsions:
REMARK  status: ('A' for Active; 'I' for Inactive)
REMARK    1  A    between atoms: C_2  and  C_3
REMARK    2  A    between atoms: C_3  and  N_4
REMARK                            x       y       z     vdW  Elec       q    Type
REMARK                         _______ _______ _______ _____ _____    ______ ____
ROOT
ATOM      1  O   UNL     1       3.370   2.224  17.104  0.00  0.00    +0.000 OA
ATOM      2  C   UNL     1       3.340   3.422  17.437  0.00  0.00    +0.000 C 
ATOM      3  N   UNL     1       2.344   3.882  18.305  0.00  0.00    +0.000 N 
ATOM      4  C   UNL     1       1.473   2.878  18.930  0.00  0.00    +0.000 C 
ATOM      5  C   UNL     1       1.822   2.760  20.400  0.00  0.00    +0.000 C 
ATOM      6  C   UNL     1       1.551   4.091  21.090  0.00  0.00    +0.000 C 
ATOM      7  C   UNL     1       1.858   5.302  20.231  0.00  0.00    +0.000 A 
ATOM      8  C   UNL     1       1.747   6.572  20.820  0.00  0.00    +0.000 A 
ATOM      9  C   UNL     1       1.935   7.723  20.064  0.00  0.00    +0.000 A 
ATOM     10  C   UNL     1       2.195   7.614  18.701  0.00  0.00    +0.000 A 
ATOM     11  C   UNL     1       2.308   6.353  18.105  0.00  0.00    +0.000 A 
ATOM     12  C   UNL     1       2.207   5.185  18.866  0.00  0.00    +0.000 A 
ENDROOT
BRANCH   2  13
ATOM     13  C   UNL     1       4.417   4.351  16.849  0.00  0.00    +0.000 C 
BRANCH  13  14
ATOM     14  N   UNL     1       5.760   3.737  16.667  0.00  0.00    +0.000 NA
ATOM     15  C   UNL     1       6.765   4.519  17.439  0.00  0.00    +0.000 C 
ATOM     16  C   UNL     1       7.124   5.885  16.816  0.00  0.00    +0.000 C 
ATOM     17  O   UNL     1       7.528   5.765  15.448  0.00  0.00    +0.000 OA
ATOM     18  C   UNL     1       6.531   5.082  14.673  0.00  0.00    +0.000 C 
ATOM     19  C   UNL     1       6.239   3.697  15.266  0.00  0.00    +0.000 C 
ENDBRANCH  13  14
ENDBRANCH   2  13
TORSDOF 2
ENDMDL
MODEL 3
REMARK VINA RESULT:      -7.1      1.662      2.101
REMARK  Name = 
REMARK  2 active torsions:
REMARK  status: ('A' for Active; 'I' for Inactive)
REMARK    1  A    between atoms: C_2  and  C_3
REMARK    2  A    between atoms: C_3  and  N_4
REMARK                            x       y       z     vdW  Elec       q    Type
REMARK                         _______ _______ _______ _____ _____    ______ ____
ROOT
ATOM      1  O   UNL     1       4.846   3.805  15.969  0.00  0.00    +0.000 OA
ATOM      2  C   UNL     1       4.451   4.559  16.875  0.00  0.00    +0.000 C 
ATOM      3  N   UNL     1       3.212   4.335  17.482  0.00  0.00    +0.000 N 
ATOM      4  C   UNL     1       2.501   3.096  17.136  0.00  0.00    +0.000 C 
ATOM      5  C   UNL     1       2.547   2.149  18.318  0.00  0.00    +0.000 C 
ATOM      6  C   UNL     1       1.816   2.778  19.497  0.00  0.00    +0.000 C 
ATOM      7  C   UNL     1       1.992   4.281  19.597  0.00  0.00    +0.000 A 
ATOM      8  C   UNL     1       1.450   4.934  20.715  0.00  0.00    +0.000 A 
ATOM      9  C   UNL     1       1.506   6.319  20.825  0.00  0.00    +0.000 A 
ATOM     10  C   UNL     1       2.068   7.066  19.794  0.00  0.00    +0.000 A 
ATOM     11  C   UNL     1       2.613   6.424  18.676  0.00  0.00    +0.000 A 
ATOM     12  C   UNL     1       2.642   5.029  18.589  0.00  0.00    +0.000 A 
ENDROOT
BRANCH   2  13
ATOM     13  C   UNL     1       5.367   5.731  17.274  0.00  0.00    +0.000 C 
BRANCH  13  14
ATOM     14  N   UNL     1       6.792   5.596  16.864  0.00  0.00    +0.000 NA
ATOM     15  C   UNL     1       7.558   4.946  17.963  0.00  0.00    +0.000 C 
ATOM     16  C   UNL     1       7.823   5.858  19.181  0.00  0.00    +0.000 C 
ATOM     17  O   UNL     1       8.439   7.094  18.805  0.00  0.00    +0.000 OA
ATOM     18  C   UNL     1       7.668   7.772  17.801  0.00  0.00    +0.000 C 
ATOM     19  C   UNL     1       7.476   6.876  16.570  0.00  0.00    +0.000 C 
ENDBRANCH  13  14
ENDBRANCH   2  13
TORSDOF 2
ENDMDL
MODEL 4
REMARK VINA RESULT:      -7.0      1.324      1.560
REMARK  Name = 
REMARK  2 active torsions:
REMARK  status: ('A' for Active; 'I' for Inactive)
REMARK    1  A    between atoms: C_2  and  C_3
REMARK    2  A    between atoms: C_3  and  N_4
REMARK                            x       y       z     vdW  Elec       q    Type
REMARK                         _______ _______ _______ _____ _____    ______ ____
ROOT
ATOM      1  O   UNL     1       3.869   2.979  16.855  0.00  0.00    +0.000 OA
ATOM      2  C   UNL     1       3.713   4.115  17.336  0.00  0.00    +0.000 C 
ATOM      3  N   UNL     1       2.595   4.391  18.130  0.00  0.00    +0.000 N 
ATOM      4  C   UNL     1       1.737   3.261  18.509  0.00  0.00    +0.000 C 
ATOM      5  C   UNL     1       1.927   2.961  19.982  0.00  0.00    +0.000 C 
ATOM      6  C   UNL     1       1.484   4.165  20.803  0.00  0.00    +0.000 C 
ATOM      7  C   UNL     1       1.794   5.500  20.153  0.00  0.00    +0.000 A 
ATOM      8  C   UNL     1       1.525   6.667  20.886  0.00  0.00    +0.000 A 
ATOM      9  C   UNL     1       1.710   7.921  20.315  0.00  0.00    +0.000 A 
ATOM     10  C   UNL     1       2.127   8.017  18.991  0.00  0.00    +0.000 A 
ATOM     11  C   UNL     1       2.399   6.860  18.253  0.00  0.00    +0.000 A 
ATOM     12  C   UNL     1       2.301   5.594  18.837  0.00  0.00    +0.000 A 
ENDROOT
BRANCH   2  13
ATOM     13  C   UNL     1       4.777   5.178  17.008  0.00  0.00    +0.000 C 
BRANCH  13  14
ATOM     14  N   UNL     1       6.181   4.685  16.966  0.00  0.00    +0.000 NA
ATOM     15  C   UNL     1       6.647   4.415  18.354  0.00  0.00    +0.000 C 
ATOM     16  C   UNL     1       6.943   5.683  19.185  0.00  0.00    +0.000 C 
ATOM     17  O   UNL     1       7.850   6.566  18.516  0.00  0.00    +0.000 OA
ATOM     18  C   UNL     1       7.373   6.899  17.203  0.00  0.00    +0.000 C 
ATOM     19  C   UNL     1       7.152   5.630  16.369  0.00  0.00    +0.000 C 
ENDBRANCH  13  14
ENDBRANCH   2  13
TORSDOF 2
ENDMDL
MODEL 5
REMARK VINA RESULT:      -6.8      1.995      5.773
REMARK  Name = 
REMARK  2 active torsions:
REMARK  status: ('A' for Active; 'I' for Inactive)
REMARK    1  A    between atoms: C_2  and  C_3
REMARK    2  A    between atoms: C_3  and  N_4
REMARK                            x       y       z     vdW  Elec       q    Type
REMARK                         _______ _______ _______ _____ _____    ______ ____
ROOT
ATOM      1  O   UNL     1       3.691   2.464  17.261  0.00  0.00    +0.000 OA
ATOM      2  C   UNL     1       4.397   3.308  17.840  0.00  0.00    +0.000 C 
ATOM      3  N   UNL     1       5.473   3.899  17.169  0.00  0.00    +0.000 N 
ATOM      4  C   UNL     1       5.612   3.621  15.733  0.00  0.00    +0.000 C 
ATOM      5  C   UNL     1       5.250   4.864  14.946  0.00  0.00    +0.000 C 
ATOM      6  C   UNL     1       6.227   5.981  15.290  0.00  0.00    +0.000 C 
ATOM      7  C   UNL     1       6.671   5.984  16.740  0.00  0.00    +0.000 A 
ATOM      8  C   UNL     1       7.483   7.042  17.178  0.00  0.00    +0.000 A 
ATOM      9  C   UNL     1       7.989   7.059  18.472  0.00  0.00    +0.000 A 
ATOM     10  C   UNL     1       7.722   5.994  19.328  0.00  0.00    +0.000 A 
ATOM     11  C   UNL     1       6.913   4.935  18.901  0.00  0.00    +0.000 A 
ATOM     12  C   UNL     1       6.325   4.943  17.633  0.00  0.00    +0.000 A 
ENDROOT
BRANCH   2  13
ATOM     13  C   UNL     1       4.046   3.649  19.300  0.00  0.00    +0.000 C 
BRANCH  13  14
ATOM     14  N   UNL     1       2.847   4.512  19.484  0.00  0.00    +0.000 NA
ATOM     15  C   UNL     1       2.600   4.701  20.940  0.00  0.00    +0.000 C 
ATOM     16  C   UNL     1       2.020   3.460  21.654  0.00  0.00    +0.000 C 
ATOM     17  O   UNL     1       0.842   2.967  21.006  0.00  0.00    +0.000 OA
ATOM     18  C   UNL     1       1.089   2.704  19.616  0.00  0.00    +0.000 C 
ATOM     19  C   UNL     1       1.597   3.967  18.908  0.00  0.00    +0.000 C 
ENDBRANCH  13  14
ENDBRANCH   2  13
TORSDOF 2
ENDMDL
MODEL 6
REMARK VINA RESULT:      -6.8      2.034      5.686
REMARK  Name = 
REMARK  2 active torsions:
REMARK  status: ('A' for Active; 'I' for Inactive)
REMARK    1  A    between atoms: C_2  and  C_3
REMARK    2  A    between atoms: C_3  and  N_4
REMARK                            x       y       z     vdW  Elec       q    Type
REMARK                         _______ _______ _______ _____ _____    ______ ____
ROOT
ATOM      1  O   UNL     1       2.623   3.045  16.541  0.00  0.00    +0.000 OA
ATOM      2  C   UNL     1       3.379   3.730  17.252  0.00  0.00    +0.000 C 
ATOM      3  N   UNL     1       4.723   3.883  16.899  0.00  0.00    +0.000 N 
ATOM      4  C   UNL     1       5.144   3.364  15.590  0.00  0.00    +0.000 C 
ATOM      5  C   UNL     1       5.416   4.525  14.657  0.00  0.00    +0.000 C 
ATOM      6  C   UNL     1       6.568   5.356  15.208  0.00  0.00    +0.000 C 
ATOM      7  C   UNL     1       6.587   5.450  16.722  0.00  0.00    +0.000 A 
ATOM      8  C   UNL     1       7.545   6.287  17.317  0.00  0.00    +0.000 A 
ATOM      9  C   UNL     1       7.667   6.353  18.700  0.00  0.00    +0.000 A 
ATOM     10  C   UNL     1       6.860   5.549  19.500  0.00  0.00    +0.000 A 
ATOM     11  C   UNL     1       5.902   4.713  18.916  0.00  0.00    +0.000 A 
ATOM     12  C   UNL     1       5.706   4.698  17.532  0.00  0.00    +0.000 A 
ENDROOT
BRANCH   2  13
ATOM     13  C   UNL     1       2.778   4.371  18.516  0.00  0.00    +0.000 C 
BRANCH  13  14
ATOM     14  N   UNL     1       1.725   3.572  19.199  0.00  0.00    +0.000 NA
ATOM     15  C   UNL     1       1.212   4.337  20.370  0.00  0.00    +0.000 C 
ATOM     16  C   UNL     1       2.182   4.391  21.570  0.00  0.00    +0.000 C 
ATOM     17  O   UNL     1       2.611   3.086  21.975  0.00  0.00    +0.000 OA
ATOM     18  C   UNL     1       3.182   2.365  20.872  0.00  0.00    +0.000 C 
ATOM     19  C   UNL     1       2.178   2.261  19.716  0.00  0.00    +0.000 C 
ENDBRANCH  13  14
ENDBRANCH   2  13
TORSDOF 2
ENDMDL
MODEL 7
REMARK VINA RESULT:      -6.7      1.423      1.765
REMARK  Name = 
REMARK  2 active torsions:
REMARK  status: ('A' for Active; 'I' for Inactive)
REMARK    1  A    between atoms: C_2  and  C_3
REMARK    2  A    between atoms: C_3  and  N_4
REMARK                            x       y       z     vdW  Elec       q    Type
REMARK                         _______ _______ _______ _____ _____    ______ ____
ROOT
ATOM      1  O   UNL     1       5.234   2.469  19.123  0.00  0.00    +0.000 OA
ATOM      2  C   UNL     1       4.832   3.639  19.237  0.00  0.00    +0.000 C 
ATOM      3  N   UNL     1       3.464   3.900  19.365  0.00  0.00    +0.000 N 
ATOM      4  C   UNL     1       2.568   2.749  19.538  0.00  0.00    +0.000 C 
ATOM      5  C   UNL     1       2.058   2.724  20.965  0.00  0.00    +0.000 C 
ATOM      6  C   UNL     1       1.240   3.981  21.231  0.00  0.00    +0.000 C 
ATOM      7  C   UNL     1       1.771   5.218  20.533  0.00  0.00    +0.000 A 
ATOM      8  C   UNL     1       1.150   6.447  20.807  0.00  0.00    +0.000 A 
ATOM      9  C   UNL     1       1.537   7.602  20.138  0.00  0.00    +0.000 A 
ATOM     10  C   UNL     1       2.521   7.530  19.157  0.00  0.00    +0.000 A 
ATOM     11  C   UNL     1       3.147   6.311  18.877  0.00  0.00    +0.000 A 
ATOM     12  C   UNL     1       2.831   5.156  19.599  0.00  0.00    +0.000 A 
ENDROOT
BRANCH   2  13
ATOM     13  C   UNL     1       5.888   4.760  19.215  0.00  0.00    +0.000 C 
BRANCH  13  14
ATOM     14  N   UNL     1       6.930   4.635  18.160  0.00  0.00    +0.000 NA
ATOM     15  C   UNL     1       7.793   5.848  18.178  0.00  0.00    +0.000 C 
ATOM     16  C   UNL     1       7.125   7.113  17.599  0.00  0.00    +0.000 C 
ATOM     17  O   UNL     1       6.600   6.893  16.285  0.00  0.00    +0.000 OA
ATOM     18  C   UNL     1       5.702   5.772  16.270  0.00  0.00    +0.000 C 
ATOM     19  C   UNL     1       6.405   4.508  16.781  0.00  0.00    +0.000 C 
ENDBRANCH  13  14
ENDBRANCH   2  13
TORSDOF 2
ENDMDL
MODEL 8
REMARK VINA RESULT:      -6.4      6.536      8.854
REMARK  Name = 
REMARK  2 active torsions:
REMARK  status: ('A' for Active; 'I' for Inactive)
REMARK    1  A    between atoms: C_2  and  C_3
REMARK    2  A    between atoms: C_3  and  N_4
REMARK                            x       y       z     vdW  Elec       q    Type
REMARK                         _______ _______ _______ _____ _____    ______ ____
ROOT
ATOM      1  O   UNL     1      -1.966  13.062  19.989  0.00  0.00    +0.000 OA
ATOM      2  C   UNL     1      -1.322  12.072  19.600  0.00  0.00    +0.000 C 
ATOM      3  N   UNL     1      -0.395  11.462  20.450  0.00  0.00    +0.000 N 
ATOM      4  C   UNL     1      -0.352  11.918  21.846  0.00  0.00    +0.000 C 
ATOM      5  C   UNL     1      -0.938  10.844  22.740  0.00  0.00    +0.000 C 
ATOM      6  C   UNL     1      -0.082   9.588  22.646  0.00  0.00    +0.000 C 
ATOM      7  C   UNL     1       0.487   9.334  21.263  0.00  0.00    +0.000 A 
ATOM      8  C   UNL     1       1.196   8.141  21.052  0.00  0.00    +0.000 A 
ATOM      9  C   UNL     1       1.811   7.888  19.831  0.00  0.00    +0.000 A 
ATOM     10  C   UNL     1       1.759   8.848  18.825  0.00  0.00    +0.000 A 
ATOM     11  C   UNL     1       1.054  10.040  19.026  0.00  0.00    +0.000 A 
ATOM     12  C   UNL     1       0.358  10.274  20.215  0.00  0.00    +0.000 A 
ENDROOT
BRANCH   2  13
ATOM     13  C   UNL     1      -1.580  11.575  18.165  0.00  0.00    +0.000 C 
BRANCH  13  14
ATOM     14  N   UNL     1      -2.519  10.427  18.046  0.00  0.00    +0.000 NA
ATOM     15  C   UNL     1      -2.270   9.721  16.759  0.00  0.00    +0.000 C 
ATOM     16  C   UNL     1      -2.775  10.477  15.510  0.00  0.00    +0.000 C 
ATOM     17  O   UNL     1      -4.155  10.840  15.622  0.00  0.00    +0.000 OA
ATOM     18  C   UNL     1      -4.396  11.591  16.822  0.00  0.00    +0.000 C 
ATOM     19  C   UNL     1      -3.953  10.794  18.057  0.00  0.00    +0.000 C 
ENDBRANCH  13  14
ENDBRANCH   2  13
TORSDOF 2
ENDMDL
MODEL 9
REMARK VINA RESULT:      -6.4      1.388      1.980
REMARK  Name = 
REMARK  2 active torsions:
REMARK  status: ('A' for Active; 'I' for Inactive)
REMARK    1  A    between atoms: C_2  and  C_3
REMARK    2  A    between atoms: C_3  and  N_4
REMARK                            x       y       z     vdW  Elec       q    Type
REMARK                         _______ _______ _______ _____ _____    ______ ____
ROOT
ATOM      1  O   UNL     1       5.136   3.045  16.995  0.00  0.00    +0.000 OA
ATOM      2  C   UNL     1       4.694   3.861  17.822  0.00  0.00    +0.000 C 
ATOM      3  N   UNL     1       3.313   4.008  17.991  0.00  0.00    +0.000 N 
ATOM      4  C   UNL     1       2.440   3.052  17.297  0.00  0.00    +0.000 C 
ATOM      5  C   UNL     1       1.831   2.106  18.312  0.00  0.00    +0.000 C 
ATOM      6  C   UNL     1       0.961   2.898  19.280  0.00  0.00    +0.000 C 
ATOM      7  C   UNL     1       1.505   4.274  19.610  0.00  0.00    +0.000 A 
ATOM      8  C   UNL     1       0.832   5.034  20.580  0.00  0.00    +0.000 A 
ATOM      9  C   UNL     1       1.232   6.333  20.868  0.00  0.00    +0.000 A 
ATOM     10  C   UNL     1       2.286   6.900  20.156  0.00  0.00    +0.000 A 
ATOM     11  C   UNL     1       2.964   6.151  19.189  0.00  0.00    +0.000 A 
ATOM     12  C   UNL     1       2.631   4.815  18.947  0.00  0.00    +0.000 A 
ENDROOT
BRANCH   2  13
ATOM     13  C   UNL     1       5.717   4.690  18.620  0.00  0.00    +0.000 C 
BRANCH  13  14
ATOM     14  N   UNL     1       7.130   4.570  18.166  0.00  0.00    +0.000 NA
ATOM     15  C   UNL     1       7.916   5.715  18.705  0.00  0.00    +0.000 C 
ATOM     16  C   UNL     1       7.634   7.064  18.009  0.00  0.00    +0.000 C 
ATOM     17  O   UNL     1       7.785   6.980  16.588  0.00  0.00    +0.000 OA
ATOM     18  C   UNL     1       6.969   5.930  16.044  0.00  0.00    +0.000 C 
ATOM     19  C   UNL     1       7.313   4.584  16.697  0.00  0.00    +0.000 C 
ENDBRANCH  13  14
ENDBRANCH   2  13
TORSDOF 2
ENDMDL
