MODEL 1
REMARK VINA RESULT:      -7.3      0.000      0.000
REMARK  Name = 
REMARK  11 active torsions:
REMARK  status: ('A' for Active; 'I' for Inactive)
REMARK    1  A    between atoms: C_1  and  C_2
REMARK    2  A    between atoms: C_2  and  O_3
REMARK    3  A    between atoms: O_3  and  C_4
REMARK    4  A    between atoms: C_12  and  N_13
REMARK    5  A    between atoms: C_14  and  C_15
REMARK    6  A    between atoms: C_21  and  O_22
REMARK    7  A    between atoms: O_22  and  C_23
REMARK    8  A    between atoms: C_24  and  O_25
REMARK    9  A    between atoms: O_25  and  C_26
REMARK   10  A    between atoms: C_27  and  O_28
REMARK   11  A    between atoms: O_28  and  C_29
REMARK                            x       y       z     vdW  Elec       q    Type
REMARK                         _______ _______ _______ _____ _____    ______ ____
ROOT
ATOM      1  C   UNL     1       2.139   8.082  19.381  0.00  0.00    +0.000 A 
ATOM      2  C   UNL     1       2.562   8.135  18.115  0.00  0.00    +0.000 A 
ATOM      3  C   UNL     1       3.164   7.120  17.285  0.00  0.00    +0.000 A 
ATOM      4  C   UNL     1       3.707   5.934  17.621  0.00  0.00    +0.000 A 
ATOM      5  C   UNL     1       3.614   5.242  18.923  0.00  0.00    +0.000 A 
ATOM      6  C   UNL     1       3.161   5.798  20.060  0.00  0.00    +0.000 A 
ATOM      7  C   UNL     1       2.104   6.814  20.140  0.00  0.00    +0.000 A 
ATOM      8  O   UNL     1       1.171   6.564  20.911  0.00  0.00    +0.000 OA
ATOM      9  C   UNL     1       4.022   3.748  18.906  0.00  0.00    +0.000 C 
ATOM     10  C   UNL     1       3.144   2.886  17.951  0.00  0.00    +0.000 C 
ATOM     11  C   UNL     1       2.910   3.424  16.534  0.00  0.00    +0.000 C 
ATOM     12  C   UNL     1       4.145   4.107  15.996  0.00  0.00    +0.000 A 
ATOM     13  C   UNL     1       4.914   3.482  15.015  0.00  0.00    +0.000 A 
ATOM     14  C   UNL     1       6.130   4.023  14.592  0.00  0.00    +0.000 A 
ATOM     15  C   UNL     1       6.601   5.231  15.150  0.00  0.00    +0.000 A 
ATOM     16  C   UNL     1       5.821   5.888  16.143  0.00  0.00    +0.000 A 
ATOM     17  C   UNL     1       4.574   5.334  16.549  0.00  0.00    +0.000 A 
ENDROOT
BRANCH   9  18
ATOM     18  N   UNL     1       3.896   3.146  20.240  0.00  0.00    +0.000 N 
ATOM     19  C   UNL     1       2.800   2.714  20.917  0.00  0.00    +0.000 C 
ATOM     20  C   UNL     1       1.435   2.858  20.307  0.00  0.00    +0.000 C 
ATOM     21  O   UNL     1       2.950   2.220  22.033  0.00  0.00    +0.000 OA
ATOM     22  H   UNL     1       4.756   2.947  20.740  0.00  0.00    +0.000 HD
ENDBRANCH   9  18
BRANCH  14  23
ATOM     23  O   UNL     1       6.709   3.235  13.618  0.00  0.00    +0.000 OA
ATOM     24  C   UNL     1       6.094   3.121  12.346  0.00  0.00    +0.000 C 
ENDBRANCH  14  23
BRANCH  15  25
ATOM     25  O   UNL     1       7.812   5.656  14.672  0.00  0.00    +0.000 OA
ATOM     26  C   UNL     1       8.073   5.785  13.288  0.00  0.00    +0.000 C 
ENDBRANCH  15  25
BRANCH  16  27
ATOM     27  O   UNL     1       6.275   7.113  16.570  0.00  0.00    +0.000 OA
ATOM     28  C   UNL     1       7.278   7.195  17.577  0.00  0.00    +0.000 C 
ENDBRANCH  16  27
BRANCH   1  29
ATOM     29  O   UNL     1       1.595   9.240  19.946  0.00  0.00    +0.000 OA
BRANCH  29  31
ATOM     30  C   UNL     1      -0.508  10.226  19.331  0.00  0.00    +0.000 C 
ATOM     31  C   UNL     1       0.969  10.120  19.000  0.00  0.00    +0.000 C 
ENDBRANCH  29  31
ENDBRANCH   1  29
TORSDOF 6
ENDMDL
MODEL 2
REMARK VINA RESULT:      -7.1      7.650     10.379
REMARK  Name = 
REMARK  11 active torsions:
REMARK  status: ('A' for Active; 'I' for Inactive)
REMARK    1  A    between atoms: C_1  and  C_2
REMARK    2  A    between atoms: C_2  and  O_3
REMARK    3  A    between atoms: O_3  and  C_4
REMARK    4  A    between atoms: C_12  and  N_13
REMARK    5  A    between atoms: C_14  and  C_15
REMARK    6  A    between atoms: C_21  and  O_22
REMARK    7  A    between atoms: O_22  and  C_23
REMARK    8  A    between atoms: C_24  and  O_25
REMARK    9  A    between atoms: O_25  and  C_26
REMARK   10  A    between atoms: C_27  and  O_28
REMARK   11  A    between atoms: O_28  and  C_29
REMARK                            x       y       z     vdW  Elec       q    Type
REMARK                         _______ _______ _______ _____ _____    ______ ____
ROOT
ATOM      1  C   UNL     1       2.106  13.607  19.280  0.00  0.00    +0.000 A 
ATOM      2  C   UNL     1       1.033  13.865  18.527  0.00  0.00    +0.000 A 
ATOM      3  C   UNL     1      -0.365  13.604  18.768  0.00  0.00    +0.000 A 
ATOM      4  C   UNL     1      -0.955  12.804  19.677  0.00  0.00    +0.000 A 
ATOM      5  C   UNL     1      -0.322  12.153  20.842  0.00  0.00    +0.000 A 
ATOM      6  C   UNL     1       1.002  12.070  21.053  0.00  0.00    +0.000 A 
ATOM      7  C   UNL     1       1.986  13.087  20.658  0.00  0.00    +0.000 A 
ATOM      8  O   UNL     1       2.744  13.480  21.551  0.00  0.00    +0.000 OA
ATOM      9  C   UNL     1      -1.306  11.597  21.901  0.00  0.00    +0.000 C 
ATOM     10  C   UNL     1      -2.218  12.695  22.525  0.00  0.00    +0.000 C 
ATOM     11  C   UNL     1      -2.913  13.662  21.560  0.00  0.00    +0.000 C 
ATOM     12  C   UNL     1      -3.355  12.956  20.300  0.00  0.00    +0.000 A 
ATOM     13  C   UNL     1      -4.707  12.682  20.093  0.00  0.00    +0.000 A 
ATOM     14  C   UNL     1      -5.134  11.917  19.006  0.00  0.00    +0.000 A 
ATOM     15  C   UNL     1      -4.195  11.411  18.082  0.00  0.00    +0.000 A 
ATOM     16  C   UNL     1      -2.812  11.694  18.271  0.00  0.00    +0.000 A 
ATOM     17  C   UNL     1      -2.394  12.492  19.374  0.00  0.00    +0.000 A 
ENDROOT
BRANCH   9  18
ATOM     18  N   UNL     1      -0.589  10.970  23.019  0.00  0.00    +0.000 N 
ATOM     19  C   UNL     1      -0.126   9.701  23.175  0.00  0.00    +0.000 C 
ATOM     20  C   UNL     1      -0.361   8.679  22.100  0.00  0.00    +0.000 C 
ATOM     21  O   UNL     1       0.471   9.412  24.211  0.00  0.00    +0.000 OA
ATOM     22  H   UNL     1      -0.323  11.570  23.793  0.00  0.00    +0.000 HD
ENDBRANCH   9  18
BRANCH  14  23
ATOM     23  O   UNL     1      -6.506  11.778  19.008  0.00  0.00    +0.000 OA
ATOM     24  C   UNL     1      -7.109  10.747  19.773  0.00  0.00    +0.000 C 
ENDBRANCH  14  23
BRANCH  15  25
ATOM     25  O   UNL     1      -4.726  10.660  17.067  0.00  0.00    +0.000 OA
ATOM     26  C   UNL     1      -4.410  10.896  15.709  0.00  0.00    +0.000 C 
ENDBRANCH  15  25
BRANCH  16  27
ATOM     27  O   UNL     1      -1.956  11.269  17.283  0.00  0.00    +0.000 OA
ATOM     28  C   UNL     1      -1.284  10.021  17.404  0.00  0.00    +0.000 C 
ENDBRANCH  16  27
BRANCH   1  29
ATOM     29  O   UNL     1       3.364  13.966  18.785  0.00  0.00    +0.000 OA
BRANCH  29  31
ATOM     30  C   UNL     1       3.736  15.817  17.299  0.00  0.00    +0.000 C 
ATOM     31  C   UNL     1       3.600  15.381  18.746  0.00  0.00    +0.000 C 
ENDBRANCH  29  31
ENDBRANCH   1  29
TORSDOF 6
ENDMDL
MODEL 3
REMARK VINA RESULT:      -7.1      8.127     11.242
REMARK  Name = 
REMARK  11 active torsions:
REMARK  status: ('A' for Active; 'I' for Inactive)
REMARK    1  A    between atoms: C_1  and  C_2
REMARK    2  A    between atoms: C_2  and  O_3
REMARK    3  A    between atoms: O_3  and  C_4
REMARK    4  A    between atoms: C_12  and  N_13
REMARK    5  A    between atoms: C_14  and  C_15
REMARK    6  A    between atoms: C_21  and  O_22
REMARK    7  A    between atoms: O_22  and  C_23
REMARK    8  A    between atoms: C_24  and  O_25
REMARK    9  A    between atoms: O_25  and  C_26
REMARK   10  A    between atoms: C_27  and  O_28
REMARK   11  A    between atoms: O_28  and  C_29
REMARK                            x       y       z     vdW  Elec       q    Type
REMARK                         _______ _______ _______ _____ _____    ______ ____
ROOT
ATOM      1  C   UNL     1       1.255  13.664  19.133  0.00  0.00    +0.000 A 
ATOM      2  C   UNL     1       0.056  14.012  18.658  0.00  0.00    +0.000 A 
ATOM      3  C   UNL     1      -1.264  13.799  19.200  0.00  0.00    +0.000 A 
ATOM      4  C   UNL     1      -1.677  12.974  20.182  0.00  0.00    +0.000 A 
ATOM      5  C   UNL     1      -0.835  12.230  21.141  0.00  0.00    +0.000 A 
ATOM      6  C   UNL     1       0.497  12.077  21.039  0.00  0.00    +0.000 A 
ATOM      7  C   UNL     1       1.420  13.071  20.477  0.00  0.00    +0.000 A 
ATOM      8  O   UNL     1       2.382  13.379  21.190  0.00  0.00    +0.000 OA
ATOM      9  C   UNL     1      -1.583  11.657  22.369  0.00  0.00    +0.000 C 
ATOM     10  C   UNL     1      -2.268  12.757  23.235  0.00  0.00    +0.000 C 
ATOM     11  C   UNL     1      -3.108  13.807  22.500  0.00  0.00    +0.000 C 
ATOM     12  C   UNL     1      -3.862  13.195  21.343  0.00  0.00    +0.000 A 
ATOM     13  C   UNL     1      -5.238  12.992  21.439  0.00  0.00    +0.000 A 
ATOM     14  C   UNL     1      -5.942  12.310  20.444  0.00  0.00    +0.000 A 
ATOM     15  C   UNL     1      -5.265  11.817  19.307  0.00  0.00    +0.000 A 
ATOM     16  C   UNL     1      -3.862  12.029  19.188  0.00  0.00    +0.000 A 
ATOM     17  C   UNL     1      -3.163  12.743  20.202  0.00  0.00    +0.000 A 
ENDROOT
BRANCH   9  18
ATOM     18  N   UNL     1      -0.667  10.937  23.264  0.00  0.00    +0.000 N 
ATOM     19  C   UNL     1      -0.177   9.671  23.197  0.00  0.00    +0.000 C 
ATOM     20  C   UNL     1      -0.601   8.759  22.081  0.00  0.00    +0.000 C 
ATOM     21  O   UNL     1       0.603   9.291  24.068  0.00  0.00    +0.000 OA
ATOM     22  H   UNL     1      -0.266  11.460  24.035  0.00  0.00    +0.000 HD
ENDBRANCH   9  18
BRANCH  14  23
ATOM     23  O   UNL     1      -7.284  12.231  20.753  0.00  0.00    +0.000 OA
ATOM     24  C   UNL     1      -7.700  12.296  22.107  0.00  0.00    +0.000 C 
ENDBRANCH  14  23
BRANCH  15  25
ATOM     25  O   UNL     1      -6.053  11.150  18.408  0.00  0.00    +0.000 OA
ATOM     26  C   UNL     1      -6.741   9.961  18.744  0.00  0.00    +0.000 C 
ENDBRANCH  15  25
BRANCH  16  27
ATOM     27  O   UNL     1      -3.277  11.624  18.012  0.00  0.00    +0.000 OA
ATOM     28  C   UNL     1      -2.728  10.316  17.896  0.00  0.00    +0.000 C 
ENDBRANCH  16  27
BRANCH   1  29
ATOM     29  O   UNL     1       2.386  13.995  18.381  0.00  0.00    +0.000 OA
BRANCH  29  31
ATOM     30  C   UNL     1       3.694  15.664  17.251  0.00  0.00    +0.000 C 
ATOM     31  C   UNL     1       2.684  15.399  18.351  0.00  0.00    +0.000 C 
ENDBRANCH  29  31
ENDBRANCH   1  29
TORSDOF 6
ENDMDL
MODEL 4
REMARK VINA RESULT:      -7.0      6.373     11.262
REMARK  Name = 
REMARK  11 active torsions:
REMARK  status: ('A' for Active; 'I' for Inactive)
REMARK    1  A    between atoms: C_1  and  C_2
REMARK    2  A    between atoms: C_2  and  O_3
REMARK    3  A    between atoms: O_3  and  C_4
REMARK    4  A    between atoms: C_12  and  N_13
REMARK    5  A    between atoms: C_14  and  C_15
REMARK    6  A    between atoms: C_21  and  O_22
REMARK    7  A    between atoms: O_22  and  C_23
REMARK    8  A    between atoms: C_24  and  O_25
REMARK    9  A    between atoms: O_25  and  C_26
REMARK   10  A    between atoms: C_27  and  O_28
REMARK   11  A    between atoms: O_28  and  C_29
REMARK                            x       y       z     vdW  Elec       q    Type
REMARK                         _______ _______ _______ _____ _____    ______ ____
ROOT
ATOM      1  C   UNL     1      -4.728  11.281  18.518  0.00  0.00    +0.000 A 
ATOM      2  C   UNL     1      -4.714  12.326  19.350  0.00  0.00    +0.000 A 
ATOM      3  C   UNL     1      -3.610  13.100  19.864  0.00  0.00    +0.000 A 
ATOM      4  C   UNL     1      -2.290  12.832  19.868  0.00  0.00    +0.000 A 
ATOM      5  C   UNL     1      -1.589  11.767  19.121  0.00  0.00    +0.000 A 
ATOM      6  C   UNL     1      -2.191  10.743  18.493  0.00  0.00    +0.000 A 
ATOM      7  C   UNL     1      -3.504  10.809  17.838  0.00  0.00    +0.000 A 
ATOM      8  O   UNL     1      -3.542  10.418  16.665  0.00  0.00    +0.000 OA
ATOM      9  C   UNL     1      -0.051  11.927  19.034  0.00  0.00    +0.000 C 
ATOM     10  C   UNL     1       0.388  13.243  18.326  0.00  0.00    +0.000 C 
ATOM     11  C   UNL     1      -0.290  14.542  18.776  0.00  0.00    +0.000 C 
ATOM     12  C   UNL     1      -0.536  14.546  20.266  0.00  0.00    +0.000 A 
ATOM     13  C   UNL     1       0.251  15.340  21.099  0.00  0.00    +0.000 A 
ATOM     14  C   UNL     1       0.139  15.268  22.489  0.00  0.00    +0.000 A 
ATOM     15  C   UNL     1      -0.791  14.385  23.080  0.00  0.00    +0.000 A 
ATOM     16  C   UNL     1      -1.611  13.577  22.243  0.00  0.00    +0.000 A 
ATOM     17  C   UNL     1      -1.498  13.677  20.827  0.00  0.00    +0.000 A 
ENDROOT
BRANCH   9  18
ATOM     18  N   UNL     1       0.557  10.825  18.276  0.00  0.00    +0.000 N 
ATOM     19  C   UNL     1       1.043   9.626  18.691  0.00  0.00    +0.000 C 
ATOM     20  C   UNL     1       1.035   9.277  20.152  0.00  0.00    +0.000 C 
ATOM     21  O   UNL     1       1.494   8.848  17.852  0.00  0.00    +0.000 OA
ATOM     22  H   UNL     1       0.577  10.916  17.265  0.00  0.00    +0.000 HD
ENDBRANCH   9  18
BRANCH  14  23
ATOM     23  O   UNL     1       1.013  16.142  23.102  0.00  0.00    +0.000 OA
ATOM     24  C   UNL     1       1.565  17.219  22.363  0.00  0.00    +0.000 C 
ENDBRANCH  14  23
BRANCH  15  25
ATOM     25  O   UNL     1      -0.800  14.386  24.450  0.00  0.00    +0.000 OA
ATOM     26  C   UNL     1      -1.605  15.276  25.198  0.00  0.00    +0.000 C 
ENDBRANCH  15  25
BRANCH  16  27
ATOM     27  O   UNL     1      -2.571  12.819  22.869  0.00  0.00    +0.000 OA
ATOM     28  C   UNL     1      -2.257  11.517  23.350  0.00  0.00    +0.000 C 
ENDBRANCH  16  27
BRANCH   1  29
ATOM     29  O   UNL     1      -5.963  10.711  18.191  0.00  0.00    +0.000 OA
BRANCH  29  31
ATOM     30  C   UNL     1      -7.050   9.141  19.648  0.00  0.00    +0.000 C 
ATOM     31  C   UNL     1      -6.874  10.606  19.295  0.00  0.00    +0.000 C 
ENDBRANCH  29  31
ENDBRANCH   1  29
TORSDOF 6
ENDMDL
MODEL 5
REMARK VINA RESULT:      -7.0      7.541     11.985
REMARK  Name = 
REMARK  11 active torsions:
REMARK  status: ('A' for Active; 'I' for Inactive)
REMARK    1  A    between atoms: C_1  and  C_2
REMARK    2  A    between atoms: C_2  and  O_3
REMARK    3  A    between atoms: O_3  and  C_4
REMARK    4  A    between atoms: C_12  and  N_13
REMARK    5  A    between atoms: C_14  and  C_15
REMARK    6  A    between atoms: C_21  and  O_22
REMARK    7  A    between atoms: O_22  and  C_23
REMARK    8  A    between atoms: C_24  and  O_25
REMARK    9  A    between atoms: O_25  and  C_26
REMARK   10  A    between atoms: C_27  and  O_28
REMARK   11  A    between atoms: O_28  and  C_29
REMARK                            x       y       z     vdW  Elec       q    Type
REMARK                         _______ _______ _______ _____ _____    ______ ____
ROOT
ATOM      1  C   UNL     1      -2.305  10.345  17.269  0.00  0.00    +0.000 A 
ATOM      2  C   UNL     1      -3.205  11.290  17.555  0.00  0.00    +0.000 A 
ATOM      3  C   UNL     1      -3.265  12.227  18.651  0.00  0.00    +0.000 A 
ATOM      4  C   UNL     1      -2.592  12.242  19.817  0.00  0.00    +0.000 A 
ATOM      5  C   UNL     1      -1.422  11.419  20.188  0.00  0.00    +0.000 A 
ATOM      6  C   UNL     1      -0.981  10.353  19.498  0.00  0.00    +0.000 A 
ATOM      7  C   UNL     1      -1.052  10.203  18.039  0.00  0.00    +0.000 A 
ATOM      8  O   UNL     1       0.010   9.921  17.473  0.00  0.00    +0.000 OA
ATOM      9  C   UNL     1      -0.645  11.903  21.438  0.00  0.00    +0.000 C 
ATOM     10  C   UNL     1      -0.067  13.340  21.279  0.00  0.00    +0.000 C 
ATOM     11  C   UNL     1      -1.013  14.423  20.747  0.00  0.00    +0.000 C 
ATOM     12  C   UNL     1      -2.413  14.240  21.283  0.00  0.00    +0.000 A 
ATOM     13  C   UNL     1      -2.901  15.102  22.264  0.00  0.00    +0.000 A 
ATOM     14  C   UNL     1      -4.138  14.881  22.874  0.00  0.00    +0.000 A 
ATOM     15  C   UNL     1      -4.928  13.774  22.496  0.00  0.00    +0.000 A 
ATOM     16  C   UNL     1      -4.449  12.893  21.485  0.00  0.00    +0.000 A 
ATOM     17  C   UNL     1      -3.195  13.142  20.860  0.00  0.00    +0.000 A 
ENDROOT
BRANCH   9  18
ATOM     18  N   UNL     1       0.497  11.026  21.728  0.00  0.00    +0.000 N 
ATOM     19  C   UNL     1       0.589   9.922  22.515  0.00  0.00    +0.000 C 
ATOM     20  C   UNL     1      -0.608   9.449  23.288  0.00  0.00    +0.000 C 
ATOM     21  O   UNL     1       1.667   9.335  22.587  0.00  0.00    +0.000 OA
ATOM     22  H   UNL     1       1.360  11.210  21.226  0.00  0.00    +0.000 HD
ENDBRANCH   9  18
BRANCH  14  23
ATOM     23  O   UNL     1      -4.410  15.859  23.809  0.00  0.00    +0.000 OA
ATOM     24  C   UNL     1      -3.565  16.008  24.938  0.00  0.00    +0.000 C 
ENDBRANCH  14  23
BRANCH  15  25
ATOM     25  O   UNL     1      -6.111  13.649  23.173  0.00  0.00    +0.000 OA
ATOM     26  C   UNL     1      -6.280  12.725  24.231  0.00  0.00    +0.000 C 
ENDBRANCH  15  25
BRANCH  16  27
ATOM     27  O   UNL     1      -5.307  11.897  21.082  0.00  0.00    +0.000 OA
ATOM     28  C   UNL     1      -6.417  12.202  20.246  0.00  0.00    +0.000 C 
ENDBRANCH  16  27
BRANCH   1  29
ATOM     29  O   UNL     1      -2.507   9.563  16.128  0.00  0.00    +0.000 OA
BRANCH  29  31
ATOM     30  C   UNL     1      -2.980   9.895  13.796  0.00  0.00    +0.000 C 
ATOM     31  C   UNL     1      -3.480  10.092  15.214  0.00  0.00    +0.000 C 
ENDBRANCH  29  31
ENDBRANCH   1  29
TORSDOF 6
ENDMDL
MODEL 6
REMARK VINA RESULT:      -6.7      8.199     11.680
REMARK  Name = 
REMARK  11 active torsions:
REMARK  status: ('A' for Active; 'I' for Inactive)
REMARK    1  A    between atoms: C_1  and  C_2
REMARK    2  A    between atoms: C_2  and  O_3
REMARK    3  A    between atoms: O_3  and  C_4
REMARK    4  A    between atoms: C_12  and  N_13
REMARK    5  A    between atoms: C_14  and  C_15
REMARK    6  A    between atoms: C_21  and  O_22
REMARK    7  A    between atoms: O_22  and  C_23
REMARK    8  A    between atoms: C_24  and  O_25
REMARK    9  A    between atoms: O_25  and  C_26
REMARK   10  A    between atoms: C_27  and  O_28
REMARK   11  A    between atoms: O_28  and  C_29
REMARK                            x       y       z     vdW  Elec       q    Type
REMARK                         _______ _______ _______ _____ _____    ______ ____
ROOT
ATOM      1  C   UNL     1       2.649  14.344  19.397  0.00  0.00    +0.000 A 
ATOM      2  C   UNL     1       2.207  14.647  20.621  0.00  0.00    +0.000 A 
ATOM      3  C   UNL     1       1.120  14.091  21.389  0.00  0.00    +0.000 A 
ATOM      4  C   UNL     1       0.094  13.310  21.001  0.00  0.00    +0.000 A 
ATOM      5  C   UNL     1      -0.062  12.610  19.709  0.00  0.00    +0.000 A 
ATOM      6  C   UNL     1       0.694  12.828  18.619  0.00  0.00    +0.000 A 
ATOM      7  C   UNL     1       2.117  13.194  18.638  0.00  0.00    +0.000 A 
ATOM      8  O   UNL     1       2.865  12.489  17.951  0.00  0.00    +0.000 OA
ATOM      9  C   UNL     1      -1.151  11.509  19.682  0.00  0.00    +0.000 C 
ATOM     10  C   UNL     1      -0.888  10.366  20.707  0.00  0.00    +0.000 C 
ATOM     11  C   UNL     1      -0.534  10.775  22.141  0.00  0.00    +0.000 C 
ATOM     12  C   UNL     1      -1.313  11.995  22.571  0.00  0.00    +0.000 A 
ATOM     13  C   UNL     1      -2.364  11.865  23.478  0.00  0.00    +0.000 A 
ATOM     14  C   UNL     1      -3.188  12.948  23.794  0.00  0.00    +0.000 A 
ATOM     15  C   UNL     1      -2.959  14.210  23.203  0.00  0.00    +0.000 A 
ATOM     16  C   UNL     1      -1.881  14.362  22.286  0.00  0.00    +0.000 A 
ATOM     17  C   UNL     1      -1.039  13.253  21.988  0.00  0.00    +0.000 A 
ENDROOT
BRANCH   9  18
ATOM     18  N   UNL     1      -1.232  10.871  18.361  0.00  0.00    +0.000 N 
ATOM     19  C   UNL     1      -2.282  10.725  17.511  0.00  0.00    +0.000 C 
ATOM     20  C   UNL     1      -3.640  11.236  17.900  0.00  0.00    +0.000 C 
ATOM     21  O   UNL     1      -2.098  10.160  16.434  0.00  0.00    +0.000 OA
ATOM     22  H   UNL     1      -0.366  10.527  17.960  0.00  0.00    +0.000 HD
ENDBRANCH   9  18
BRANCH  14  23
ATOM     23  O   UNL     1      -4.154  12.584  24.708  0.00  0.00    +0.000 OA
ATOM     24  C   UNL     1      -5.515  12.530  24.311  0.00  0.00    +0.000 C 
ENDBRANCH  14  23
BRANCH  15  25
ATOM     25  O   UNL     1      -3.839  15.192  23.574  0.00  0.00    +0.000 OA
ATOM     26  C   UNL     1      -3.626  16.003  24.713  0.00  0.00    +0.000 C 
ENDBRANCH  15  25
BRANCH  16  27
ATOM     27  O   UNL     1      -1.639  15.634  21.826  0.00  0.00    +0.000 OA
ATOM     28  C   UNL     1      -2.271  16.101  20.640  0.00  0.00    +0.000 C 
ENDBRANCH  16  27
BRANCH   1  29
ATOM     29  O   UNL     1       3.734  15.065  18.889  0.00  0.00    +0.000 OA
BRANCH  29  31
ATOM     30  C   UNL     1       2.803  16.892  17.638  0.00  0.00    +0.000 C 
ATOM     31  C   UNL     1       3.538  15.568  17.559  0.00  0.00    +0.000 C 
ENDBRANCH  29  31
ENDBRANCH   1  29
TORSDOF 6
ENDMDL
MODEL 7
REMARK VINA RESULT:      -6.7      6.031     12.228
REMARK  Name = 
REMARK  11 active torsions:
REMARK  status: ('A' for Active; 'I' for Inactive)
REMARK    1  A    between atoms: C_1  and  C_2
REMARK    2  A    between atoms: C_2  and  O_3
REMARK    3  A    between atoms: O_3  and  C_4
REMARK    4  A    between atoms: C_12  and  N_13
REMARK    5  A    between atoms: C_14  and  C_15
REMARK    6  A    between atoms: C_21  and  O_22
REMARK    7  A    between atoms: O_22  and  C_23
REMARK    8  A    between atoms: C_24  and  O_25
REMARK    9  A    between atoms: O_25  and  C_26
REMARK   10  A    between atoms: C_27  and  O_28
REMARK   11  A    between atoms: O_28  and  C_29
REMARK                            x       y       z     vdW  Elec       q    Type
REMARK                         _______ _______ _______ _____ _____    ______ ____
ROOT
ATOM      1  C   UNL     1      -0.330  10.491  18.726  0.00  0.00    +0.000 A 
ATOM      2  C   UNL     1       0.322  10.941  19.802  0.00  0.00    +0.000 A 
ATOM      3  C   UNL     1      -0.128  11.781  20.886  0.00  0.00    +0.000 A 
ATOM      4  C   UNL     1      -1.226  12.553  20.987  0.00  0.00    +0.000 A 
ATOM      5  C   UNL     1      -2.402  12.562  20.092  0.00  0.00    +0.000 A 
ATOM      6  C   UNL     1      -2.462  11.956  18.894  0.00  0.00    +0.000 A 
ATOM      7  C   UNL     1      -1.781  10.703  18.547  0.00  0.00    +0.000 A 
ATOM      8  O   UNL     1      -2.494   9.816  18.062  0.00  0.00    +0.000 OA
ATOM      9  C   UNL     1      -3.652  13.284  20.653  0.00  0.00    +0.000 C 
ATOM     10  C   UNL     1      -4.182  12.651  21.974  0.00  0.00    +0.000 C 
ATOM     11  C   UNL     1      -3.155  12.361  23.075  0.00  0.00    +0.000 C 
ATOM     12  C   UNL     1      -2.099  13.439  23.138  0.00  0.00    +0.000 A 
ATOM     13  C   UNL     1      -2.108  14.361  24.183  0.00  0.00    +0.000 A 
ATOM     14  C   UNL     1      -1.230  15.447  24.201  0.00  0.00    +0.000 A 
ATOM     15  C   UNL     1      -0.300  15.624  23.153  0.00  0.00    +0.000 A 
ATOM     16  C   UNL     1      -0.270  14.683  22.085  0.00  0.00    +0.000 A 
ATOM     17  C   UNL     1      -1.158  13.571  22.092  0.00  0.00    +0.000 A 
ENDROOT
BRANCH   9  18
ATOM     18  N   UNL     1      -4.767  13.241  19.698  0.00  0.00    +0.000 N 
ATOM     19  C   UNL     1      -5.792  14.110  19.492  0.00  0.00    +0.000 C 
ATOM     20  C   UNL     1      -5.921  15.335  20.350  0.00  0.00    +0.000 C 
ATOM     21  O   UNL     1      -6.608  13.863  18.605  0.00  0.00    +0.000 OA
ATOM     22  H   UNL     1      -4.768  12.483  19.023  0.00  0.00    +0.000 HD
ENDBRANCH   9  18
BRANCH  14  23
ATOM     23  O   UNL     1      -1.421  16.220  25.327  0.00  0.00    +0.000 OA
ATOM     24  C   UNL     1      -0.686  15.940  26.507  0.00  0.00    +0.000 C 
ENDBRANCH  14  23
BRANCH  15  25
ATOM     25  O   UNL     1       0.497  16.732  23.267  0.00  0.00    +0.000 OA
ATOM     26  C   UNL     1       0.106  17.996  22.768  0.00  0.00    +0.000 C 
ENDBRANCH  15  25
BRANCH  16  27
ATOM     27  O   UNL     1       0.726  14.845  21.152  0.00  0.00    +0.000 OA
ATOM     28  C   UNL     1       0.472  15.561  19.949  0.00  0.00    +0.000 C 
ENDBRANCH  16  27
BRANCH   1  29
ATOM     29  O   UNL     1       0.369   9.688  17.818  0.00  0.00    +0.000 OA
BRANCH  29  31
ATOM     30  C   UNL     1       2.282   8.244  17.979  0.00  0.00    +0.000 C 
ATOM     31  C   UNL     1       1.791   9.679  18.011  0.00  0.00    +0.000 C 
ENDBRANCH  29  31
ENDBRANCH   1  29
TORSDOF 6
ENDMDL
MODEL 8
REMARK VINA RESULT:      -6.6      8.890     11.642
REMARK  Name = 
REMARK  11 active torsions:
REMARK  status: ('A' for Active; 'I' for Inactive)
REMARK    1  A    between atoms: C_1  and  C_2
REMARK    2  A    between atoms: C_2  and  O_3
REMARK    3  A    between atoms: O_3  and  C_4
REMARK    4  A    between atoms: C_12  and  N_13
REMARK    5  A    between atoms: C_14  and  C_15
REMARK    6  A    between atoms: C_21  and  O_22
REMARK    7  A    between atoms: O_22  and  C_23
REMARK    8  A    between atoms: C_24  and  O_25
REMARK    9  A    between atoms: O_25  and  C_26
REMARK   10  A    between atoms: C_27  and  O_28
REMARK   11  A    between atoms: O_28  and  C_29
REMARK                            x       y       z     vdW  Elec       q    Type
REMARK                         _______ _______ _______ _____ _____    ______ ____
ROOT
ATOM      1  C   UNL     1      -1.857  14.729  24.096  0.00  0.00    +0.000 A 
ATOM      2  C   UNL     1      -2.569  13.676  23.685  0.00  0.00    +0.000 A 
ATOM      3  C   UNL     1      -2.505  12.926  22.454  0.00  0.00    +0.000 A 
ATOM      4  C   UNL     1      -1.909  13.226  21.284  0.00  0.00    +0.000 A 
ATOM      5  C   UNL     1      -0.946  14.316  21.022  0.00  0.00    +0.000 A 
ATOM      6  C   UNL     1      -0.685  15.331  21.863  0.00  0.00    +0.000 A 
ATOM      7  C   UNL     1      -0.701  15.239  23.329  0.00  0.00    +0.000 A 
ATOM      8  O   UNL     1       0.315  15.640  23.907  0.00  0.00    +0.000 OA
ATOM      9  C   UNL     1      -0.162  14.197  19.692  0.00  0.00    +0.000 C 
ATOM     10  C   UNL     1       0.696  12.900  19.603  0.00  0.00    +0.000 C 
ATOM     11  C   UNL     1       0.012  11.579  19.976  0.00  0.00    +0.000 C 
ATOM     12  C   UNL     1      -1.425  11.554  19.512  0.00  0.00    +0.000 A 
ATOM     13  C   UNL     1      -1.788  10.771  18.417  0.00  0.00    +0.000 A 
ATOM     14  C   UNL     1      -3.077  10.827  17.881  0.00  0.00    +0.000 A 
ATOM     15  C   UNL     1      -4.046  11.680  18.452  0.00  0.00    +0.000 A 
ATOM     16  C   UNL     1      -3.694  12.475  19.579  0.00  0.00    +0.000 A 
ATOM     17  C   UNL     1      -2.382  12.392  20.125  0.00  0.00    +0.000 A 
ENDROOT
BRANCH   9  18
ATOM     18  N   UNL     1       0.768  15.321  19.519  0.00  0.00    +0.000 N 
ATOM     19  C   UNL     1       0.602  16.521  18.903  0.00  0.00    +0.000 C 
ATOM     20  C   UNL     1      -0.699  16.845  18.227  0.00  0.00    +0.000 C 
ATOM     21  O   UNL     1       1.537  17.321  18.903  0.00  0.00    +0.000 OA
ATOM     22  H   UNL     1       1.671  15.248  19.975  0.00  0.00    +0.000 HD
ENDBRANCH   9  18
BRANCH  14  23
ATOM     23  O   UNL     1      -3.204   9.970  16.808  0.00  0.00    +0.000 OA
ATOM     24  C   UNL     1      -2.904  10.429  15.500  0.00  0.00    +0.000 C 
ENDBRANCH  14  23
BRANCH  15  25
ATOM     25  O   UNL     1      -5.268  11.665  17.833  0.00  0.00    +0.000 OA
ATOM     26  C   UNL     1      -6.297  10.776  18.218  0.00  0.00    +0.000 C 
ENDBRANCH  15  25
BRANCH  16  27
ATOM     27  O   UNL     1      -4.706  13.202  20.159  0.00  0.00    +0.000 OA
ATOM     28  C   UNL     1      -5.567  12.597  21.116  0.00  0.00    +0.000 C 
ENDBRANCH  16  27
BRANCH   1  29
ATOM     29  O   UNL     1      -2.143  15.270  25.354  0.00  0.00    +0.000 OA
BRANCH  29  31
ATOM     30  C   UNL     1      -4.073  16.653  24.981  0.00  0.00    +0.000 C 
ATOM     31  C   UNL     1      -2.594  16.633  25.321  0.00  0.00    +0.000 C 
ENDBRANCH  29  31
ENDBRANCH   1  29
TORSDOF 6
ENDMDL
MODEL 9
REMARK VINA RESULT:      -6.6      9.154     11.321
REMARK  Name = 
REMARK  11 active torsions:
REMARK  status: ('A' for Active; 'I' for Inactive)
REMARK    1  A    between atoms: C_1  and  C_2
REMARK    2  A    between atoms: C_2  and  O_3
REMARK    3  A    between atoms: O_3  and  C_4
REMARK    4  A    between atoms: C_12  and  N_13
REMARK    5  A    between atoms: C_14  and  C_15
REMARK    6  A    between atoms: C_21  and  O_22
REMARK    7  A    between atoms: O_22  and  C_23
REMARK    8  A    between atoms: C_24  and  O_25
REMARK    9  A    between atoms: O_25  and  C_26
REMARK   10  A    between atoms: C_27  and  O_28
REMARK   11  A    between atoms: O_28  and  C_29
REMARK                            x       y       z     vdW  Elec       q    Type
REMARK                         _______ _______ _______ _____ _____    ______ ____
ROOT
ATOM      1  C   UNL     1       6.896  12.847  24.863  0.00  0.00    +0.000 A 
ATOM      2  C   UNL     1       8.203  12.959  24.610  0.00  0.00    +0.000 A 
ATOM      3  C   UNL     1       8.895  13.600  23.519  0.00  0.00    +0.000 A 
ATOM      4  C   UNL     1       8.431  14.028  22.329  0.00  0.00    +0.000 A 
ATOM      5  C   UNL     1       7.019  14.171  21.915  0.00  0.00    +0.000 A 
ATOM      6  C   UNL     1       5.967  13.675  22.588  0.00  0.00    +0.000 A 
ATOM      7  C   UNL     1       5.881  13.548  24.048  0.00  0.00    +0.000 A 
ATOM      8  O   UNL     1       4.881  14.047  24.577  0.00  0.00    +0.000 OA
ATOM      9  C   UNL     1       6.788  15.018  20.640  0.00  0.00    +0.000 C 
ATOM     10  C   UNL     1       7.296  16.484  20.780  0.00  0.00    +0.000 C 
ATOM     11  C   UNL     1       8.705  16.688  21.346  0.00  0.00    +0.000 C 
ATOM     12  C   UNL     1       9.653  15.617  20.860  0.00  0.00    +0.000 A 
ATOM     13  C   UNL     1      10.615  15.922  19.899  0.00  0.00    +0.000 A 
ATOM     14  C   UNL     1      11.416  14.928  19.333  0.00  0.00    +0.000 A 
ATOM     15  C   UNL     1      11.271  13.584  19.737  0.00  0.00    +0.000 A 
ATOM     16  C   UNL     1      10.302  13.258  20.729  0.00  0.00    +0.000 A 
ATOM     17  C   UNL     1       9.506  14.285  21.310  0.00  0.00    +0.000 A 
ENDROOT
BRANCH   9  18
ATOM     18  N   UNL     1       5.360  15.104  20.308  0.00  0.00    +0.000 N 
ATOM     19  C   UNL     1       4.721  15.010  19.112  0.00  0.00    +0.000 C 
ATOM     20  C   UNL     1       5.513  14.819  17.850  0.00  0.00    +0.000 C 
ATOM     21  O   UNL     1       3.495  15.098  19.088  0.00  0.00    +0.000 OA
ATOM     22  H   UNL     1       4.709  15.183  21.083  0.00  0.00    +0.000 HD
ENDBRANCH   9  18
BRANCH  14  23
ATOM     23  O   UNL     1      12.290  15.464  18.409  0.00  0.00    +0.000 OA
ATOM     24  C   UNL     1      11.792  15.990  17.190  0.00  0.00    +0.000 C 
ENDBRANCH  14  23
BRANCH  15  25
ATOM     25  O   UNL     1      12.097  12.695  19.102  0.00  0.00    +0.000 OA
ATOM     26  C   UNL     1      11.723  12.041  17.905  0.00  0.00    +0.000 C 
ENDBRANCH  15  25
BRANCH  16  27
ATOM     27  O   UNL     1      10.280  11.954  21.161  0.00  0.00    +0.000 OA
ATOM     28  C   UNL     1       9.418  11.006  20.542  0.00  0.00    +0.000 C 
ENDBRANCH  16  27
BRANCH   1  29
ATOM     29  O   UNL     1       6.501  12.151  26.010  0.00  0.00    +0.000 OA
BRANCH  29  31
ATOM     30  C   UNL     1       6.364  13.724  27.820  0.00  0.00    +0.000 C 
ATOM     31  C   UNL     1       7.154  12.580  27.214  0.00  0.00    +0.000 C 
ENDBRANCH  29  31
ENDBRANCH   1  29
TORSDOF 6
ENDMDL
