MODEL 1
REMARK VINA RESULT:      -7.3      0.000      0.000
REMARK  Name = 
REMARK  2 active torsions:
REMARK  status: ('A' for Active; 'I' for Inactive)
REMARK    1  A    between atoms: C_1  and  C_2
REMARK    2  A    between atoms: C_17  and  C_18
REMARK                            x       y       z     vdW  Elec       q    Type
REMARK                         _______ _______ _______ _____ _____    ______ ____
ROOT
ATOM      1  C   UNL     1       0.309  11.506  19.225  0.00  0.00    +0.000 C 
ATOM      2  C   UNL     1       0.561  10.142  19.812  0.00  0.00    +0.000 A 
ATOM      3  C   UNL     1      -0.092   9.786  21.001  0.00  0.00    +0.000 A 
ATOM      4  C   UNL     1       0.115   8.535  21.573  0.00  0.00    +0.000 A 
ATOM      5  C   UNL     1       0.976   7.621  20.970  0.00  0.00    +0.000 A 
ATOM      6  C   UNL     1       1.632   7.966  19.784  0.00  0.00    +0.000 A 
ATOM      7  C   UNL     1       1.437   9.225  19.188  0.00  0.00    +0.000 A 
ATOM      8  N   UNL     1       2.086   9.605  17.990  0.00  0.00    +0.000 NA
ATOM      9  N   UNL     1       2.866   8.802  17.425  0.00  0.00    +0.000 NA
ATOM     10  C   UNL     1       3.122   7.561  17.920  0.00  0.00    +0.000 A 
ATOM     11  C   UNL     1       3.930   6.543  17.466  0.00  0.00    +0.000 A 
ATOM     12  C   UNL     1       4.721   6.554  16.320  0.00  0.00    +0.000 A 
ATOM     13  C   UNL     1       5.414   5.329  16.175  0.00  0.00    +0.000 A 
ATOM     14  C   UNL     1       5.308   4.228  17.094  0.00  0.00    +0.000 A 
ATOM     15  C   UNL     1       4.499   4.239  18.251  0.00  0.00    +0.000 A 
ATOM     16  C   UNL     1       3.826   5.456  18.374  0.00  0.00    +0.000 A 
ATOM     17  C   UNL     1       2.956   5.816  19.375  0.00  0.00    +0.000 A 
ATOM     18  N   UNL     1       2.524   7.111  19.096  0.00  0.00    +0.000 N 
ENDROOT
BRANCH  17  19
ATOM     19  C   UNL     1       2.586   5.003  20.477  0.00  0.00    +0.000 C 
ATOM     20  N   UNL     1       2.274   4.328  21.369  0.00  0.00    +0.000 NA
ENDBRANCH  17  19
TORSDOF 1
ENDMDL
MODEL 2
REMARK VINA RESULT:      -6.8      1.668      3.540
REMARK  Name = 
REMARK  2 active torsions:
REMARK  status: ('A' for Active; 'I' for Inactive)
REMARK    1  A    between atoms: C_1  and  C_2
REMARK    2  A    between atoms: C_17  and  C_18
REMARK                            x       y       z     vdW  Elec       q    Type
REMARK                         _______ _______ _______ _____ _____    ______ ____
ROOT
ATOM      1  C   UNL     1      -0.172  10.685  20.746  0.00  0.00    +0.000 C 
ATOM      2  C   UNL     1       0.780  10.007  19.798  0.00  0.00    +0.000 A 
ATOM      3  C   UNL     1       1.260  10.724  18.693  0.00  0.00    +0.000 A 
ATOM      4  C   UNL     1       2.142  10.131  17.794  0.00  0.00    +0.000 A 
ATOM      5  C   UNL     1       2.558   8.815  17.985  0.00  0.00    +0.000 A 
ATOM      6  C   UNL     1       2.086   8.091  19.084  0.00  0.00    +0.000 A 
ATOM      7  C   UNL     1       1.194   8.671  20.004  0.00  0.00    +0.000 A 
ATOM      8  N   UNL     1       0.698   7.966  21.126  0.00  0.00    +0.000 NA
ATOM      9  N   UNL     1       1.057   6.781  21.322  0.00  0.00    +0.000 NA
ATOM     10  C   UNL     1       1.915   6.129  20.492  0.00  0.00    +0.000 A 
ATOM     11  C   UNL     1       2.427   4.851  20.523  0.00  0.00    +0.000 A 
ATOM     12  C   UNL     1       2.164   3.871  21.476  0.00  0.00    +0.000 A 
ATOM     13  C   UNL     1       2.871   2.681  21.180  0.00  0.00    +0.000 A 
ATOM     14  C   UNL     1       3.739   2.517  20.046  0.00  0.00    +0.000 A 
ATOM     15  C   UNL     1       3.991   3.527  19.092  0.00  0.00    +0.000 A 
ATOM     16  C   UNL     1       3.285   4.690  19.402  0.00  0.00    +0.000 A 
ATOM     17  C   UNL     1       3.291   5.869  18.694  0.00  0.00    +0.000 A 
ATOM     18  N   UNL     1       2.448   6.753  19.365  0.00  0.00    +0.000 N 
ENDROOT
BRANCH  17  19
ATOM     19  C   UNL     1       4.026   6.112  17.505  0.00  0.00    +0.000 C 
ATOM     20  N   UNL     1       4.639   6.318  16.542  0.00  0.00    +0.000 NA
ENDBRANCH  17  19
TORSDOF 1
ENDMDL
MODEL 3
REMARK VINA RESULT:      -6.7      1.761      3.047
REMARK  Name = 
REMARK  2 active torsions:
REMARK  status: ('A' for Active; 'I' for Inactive)
REMARK    1  A    between atoms: C_1  and  C_2
REMARK    2  A    between atoms: C_17  and  C_18
REMARK                            x       y       z     vdW  Elec       q    Type
REMARK                         _______ _______ _______ _____ _____    ______ ____
ROOT
ATOM      1  C   UNL     1       1.459   8.521  20.513  0.00  0.00    +0.000 C 
ATOM      2  C   UNL     1       1.752   7.072  20.235  0.00  0.00    +0.000 A 
ATOM      3  C   UNL     1       1.170   6.094  21.055  0.00  0.00    +0.000 A 
ATOM      4  C   UNL     1       1.418   4.743  20.830  0.00  0.00    +0.000 A 
ATOM      5  C   UNL     1       2.249   4.348  19.784  0.00  0.00    +0.000 A 
ATOM      6  C   UNL     1       2.834   5.315  18.959  0.00  0.00    +0.000 A 
ATOM      7  C   UNL     1       2.597   6.685  19.170  0.00  0.00    +0.000 A 
ATOM      8  N   UNL     1       3.173   7.688  18.355  0.00  0.00    +0.000 NA
ATOM      9  N   UNL     1       3.924   7.360  17.406  0.00  0.00    +0.000 NA
ATOM     10  C   UNL     1       4.217   6.063  17.119  0.00  0.00    +0.000 A 
ATOM     11  C   UNL     1       5.004   5.496  16.142  0.00  0.00    +0.000 A 
ATOM     12  C   UNL     1       5.728   6.168  15.160  0.00  0.00    +0.000 A 
ATOM     13  C   UNL     1       6.419   5.253  14.331  0.00  0.00    +0.000 A 
ATOM     14  C   UNL     1       6.373   3.824  14.490  0.00  0.00    +0.000 A 
ATOM     15  C   UNL     1       5.632   3.165  15.494  0.00  0.00    +0.000 A 
ATOM     16  C   UNL     1       4.959   4.085  16.300  0.00  0.00    +0.000 A 
ATOM     17  C   UNL     1       4.146   3.799  17.371  0.00  0.00    +0.000 A 
ATOM     18  N   UNL     1       3.690   5.016  17.875  0.00  0.00    +0.000 N 
ENDROOT
BRANCH  17  19
ATOM     19  C   UNL     1       3.845   2.500  17.853  0.00  0.00    +0.000 C 
ATOM     20  N   UNL     1       3.587   1.434  18.236  0.00  0.00    +0.000 NA
ENDBRANCH  17  19
TORSDOF 1
ENDMDL
MODEL 4
REMARK VINA RESULT:      -6.6      4.341      4.976
REMARK  Name = 
REMARK  2 active torsions:
REMARK  status: ('A' for Active; 'I' for Inactive)
REMARK    1  A    between atoms: C_1  and  C_2
REMARK    2  A    between atoms: C_17  and  C_18
REMARK                            x       y       z     vdW  Elec       q    Type
REMARK                         _______ _______ _______ _____ _____    ______ ____
ROOT
ATOM      1  C   UNL     1       0.005   2.549  19.306  0.00  0.00    +0.000 C 
ATOM      2  C   UNL     1       1.343   3.147  19.647  0.00  0.00    +0.000 A 
ATOM      3  C   UNL     1       1.627   3.454  20.986  0.00  0.00    +0.000 A 
ATOM      4  C   UNL     1       2.853   4.008  21.340  0.00  0.00    +0.000 A 
ATOM      5  C   UNL     1       3.814   4.264  20.364  0.00  0.00    +0.000 A 
ATOM      6  C   UNL     1       3.543   3.962  19.026  0.00  0.00    +0.000 A 
ATOM      7  C   UNL     1       2.309   3.401  18.647  0.00  0.00    +0.000 A 
ATOM      8  N   UNL     1       2.003   3.085  17.303  0.00  0.00    +0.000 NA
ATOM      9  N   UNL     1       2.850   3.304  16.405  0.00  0.00    +0.000 NA
ATOM     10  C   UNL     1       4.071   3.843  16.667  0.00  0.00    +0.000 A 
ATOM     11  C   UNL     1       5.128   4.161  15.844  0.00  0.00    +0.000 A 
ATOM     12  C   UNL     1       5.190   3.991  14.463  0.00  0.00    +0.000 A 
ATOM     13  C   UNL     1       6.437   4.431  13.959  0.00  0.00    +0.000 A 
ATOM     14  C   UNL     1       7.489   4.979  14.771  0.00  0.00    +0.000 A 
ATOM     15  C   UNL     1       7.404   5.142  16.170  0.00  0.00    +0.000 A 
ATOM     16  C   UNL     1       6.168   4.703  16.647  0.00  0.00    +0.000 A 
ATOM     17  C   UNL     1       5.739   4.712  17.953  0.00  0.00    +0.000 A 
ATOM     18  N   UNL     1       4.450   4.184  17.965  0.00  0.00    +0.000 N 
ENDROOT
BRANCH  17  19
ATOM     19  C   UNL     1       6.490   5.180  19.062  0.00  0.00    +0.000 C 
ATOM     20  N   UNL     1       7.118   5.553  19.965  0.00  0.00    +0.000 NA
ENDBRANCH  17  19
TORSDOF 1
ENDMDL
MODEL 5
REMARK VINA RESULT:      -6.2      1.010      5.414
REMARK  Name = 
REMARK  2 active torsions:
REMARK  status: ('A' for Active; 'I' for Inactive)
REMARK    1  A    between atoms: C_1  and  C_2
REMARK    2  A    between atoms: C_17  and  C_18
REMARK                            x       y       z     vdW  Elec       q    Type
REMARK                         _______ _______ _______ _____ _____    ______ ____
ROOT
ATOM      1  C   UNL     1       5.684   5.512  15.059  0.00  0.00    +0.000 C 
ATOM      2  C   UNL     1       5.017   4.990  16.303  0.00  0.00    +0.000 A 
ATOM      3  C   UNL     1       5.209   3.648  16.662  0.00  0.00    +0.000 A 
ATOM      4  C   UNL     1       4.608   3.130  17.805  0.00  0.00    +0.000 A 
ATOM      5  C   UNL     1       3.808   3.941  18.606  0.00  0.00    +0.000 A 
ATOM      6  C   UNL     1       3.610   5.281  18.258  0.00  0.00    +0.000 A 
ATOM      7  C   UNL     1       4.208   5.825  17.107  0.00  0.00    +0.000 A 
ATOM      8  N   UNL     1       4.027   7.176  16.726  0.00  0.00    +0.000 NA
ATOM      9  N   UNL     1       3.312   7.928  17.429  0.00  0.00    +0.000 NA
ATOM     10  C   UNL     1       2.691   7.499  18.560  0.00  0.00    +0.000 A 
ATOM     11  C   UNL     1       1.875   8.149  19.460  0.00  0.00    +0.000 A 
ATOM     12  C   UNL     1       1.477   9.482  19.412  0.00  0.00    +0.000 A 
ATOM     13  C   UNL     1       0.638   9.795  20.509  0.00  0.00    +0.000 A 
ATOM     14  C   UNL     1       0.257   8.856  21.528  0.00  0.00    +0.000 A 
ATOM     15  C   UNL     1       0.674   7.508  21.556  0.00  0.00    +0.000 A 
ATOM     16  C   UNL     1       1.498   7.220  20.467  0.00  0.00    +0.000 A 
ATOM     17  C   UNL     1       2.084   6.011  20.176  0.00  0.00    +0.000 A 
ATOM     18  N   UNL     1       2.817   6.183  19.003  0.00  0.00    +0.000 N 
ENDROOT
BRANCH  17  19
ATOM     19  C   UNL     1       1.950   4.825  20.943  0.00  0.00    +0.000 C 
ATOM     20  N   UNL     1       1.848   3.846  21.558  0.00  0.00    +0.000 NA
ENDBRANCH  17  19
TORSDOF 1
ENDMDL
MODEL 6
REMARK VINA RESULT:      -6.2      1.297      6.404
REMARK  Name = 
REMARK  2 active torsions:
REMARK  status: ('A' for Active; 'I' for Inactive)
REMARK    1  A    between atoms: C_1  and  C_2
REMARK    2  A    between atoms: C_17  and  C_18
REMARK                            x       y       z     vdW  Elec       q    Type
REMARK                         _______ _______ _______ _____ _____    ______ ____
ROOT
ATOM      1  C   UNL     1       3.501   3.716  19.167  0.00  0.00    +0.000 C 
ATOM      2  C   UNL     1       3.368   5.134  18.680  0.00  0.00    +0.000 A 
ATOM      3  C   UNL     1       4.000   5.501  17.483  0.00  0.00    +0.000 A 
ATOM      4  C   UNL     1       3.900   6.802  17.000  0.00  0.00    +0.000 A 
ATOM      5  C   UNL     1       3.169   7.756  17.704  0.00  0.00    +0.000 A 
ATOM      6  C   UNL     1       2.534   7.402  18.898  0.00  0.00    +0.000 A 
ATOM      7  C   UNL     1       2.622   6.092  19.404  0.00  0.00    +0.000 A 
ATOM      8  N   UNL     1       1.993   5.701  20.609  0.00  0.00    +0.000 NA
ATOM      9  N   UNL     1       1.328   6.540  21.261  0.00  0.00    +0.000 NA
ATOM     10  C   UNL     1       1.181   7.831  20.858  0.00  0.00    +0.000 A 
ATOM     11  C   UNL     1       0.507   8.894  21.417  0.00  0.00    +0.000 A 
ATOM     12  C   UNL     1      -0.227   8.888  22.600  0.00  0.00    +0.000 A 
ATOM     13  C   UNL     1      -0.779  10.165  22.856  0.00  0.00    +0.000 A 
ATOM     14  C   UNL     1      -0.600  11.309  22.002  0.00  0.00    +0.000 A 
ATOM     15  C   UNL     1       0.149  11.292  20.806  0.00  0.00    +0.000 A 
ATOM     16  C   UNL     1       0.685  10.024  20.574  0.00  0.00    +0.000 A 
ATOM     17  C   UNL     1       1.465   9.644  19.508  0.00  0.00    +0.000 A 
ATOM     18  N   UNL     1       1.771   8.296  19.683  0.00  0.00    +0.000 N 
ENDROOT
BRANCH  17  19
ATOM     19  C   UNL     1       1.871  10.488  18.442  0.00  0.00    +0.000 C 
ATOM     20  N   UNL     1       2.195  11.192  17.577  0.00  0.00    +0.000 NA
ENDBRANCH  17  19
TORSDOF 1
ENDMDL
MODEL 7
REMARK VINA RESULT:      -6.1      1.876      6.041
REMARK  Name = 
REMARK  2 active torsions:
REMARK  status: ('A' for Active; 'I' for Inactive)
REMARK    1  A    between atoms: C_1  and  C_2
REMARK    2  A    between atoms: C_17  and  C_18
REMARK                            x       y       z     vdW  Elec       q    Type
REMARK                         _______ _______ _______ _____ _____    ______ ____
ROOT
ATOM      1  C   UNL     1       3.546   6.302  17.284  0.00  0.00    +0.000 C 
ATOM      2  C   UNL     1       2.789   6.712  18.519  0.00  0.00    +0.000 A 
ATOM      3  C   UNL     1       2.613   5.776  19.547  0.00  0.00    +0.000 A 
ATOM      4  C   UNL     1       1.918   6.118  20.704  0.00  0.00    +0.000 A 
ATOM      5  C   UNL     1       1.390   7.399  20.851  0.00  0.00    +0.000 A 
ATOM      6  C   UNL     1       1.561   8.341  19.832  0.00  0.00    +0.000 A 
ATOM      7  C   UNL     1       2.259   8.016  18.655  0.00  0.00    +0.000 A 
ATOM      8  N   UNL     1       2.448   8.945  17.605  0.00  0.00    +0.000 NA
ATOM      9  N   UNL     1       1.984  10.105  17.713  0.00  0.00    +0.000 NA
ATOM     10  C   UNL     1       1.294  10.518  18.810  0.00  0.00    +0.000 A 
ATOM     11  C   UNL     1       0.710  11.725  19.123  0.00  0.00    +0.000 A 
ATOM     12  C   UNL     1       0.692  12.873  18.335  0.00  0.00    +0.000 A 
ATOM     13  C   UNL     1      -0.003  13.919  18.986  0.00  0.00    +0.000 A 
ATOM     14  C   UNL     1      -0.605  13.802  20.287  0.00  0.00    +0.000 A 
ATOM     15  C   UNL     1      -0.574  12.627  21.068  0.00  0.00    +0.000 A 
ATOM     16  C   UNL     1       0.114  11.609  20.408  0.00  0.00    +0.000 A 
ATOM     17  C   UNL     1       0.339  10.333  20.870  0.00  0.00    +0.000 A 
ATOM     18  N   UNL     1       1.064   9.663  19.886  0.00  0.00    +0.000 N 
ENDROOT
BRANCH  17  19
ATOM     19  C   UNL     1      -0.099   9.821  22.118  0.00  0.00    +0.000 C 
ATOM     20  N   UNL     1      -0.454   9.386  23.134  0.00  0.00    +0.000 NA
ENDBRANCH  17  19
TORSDOF 1
ENDMDL
MODEL 8
REMARK VINA RESULT:      -6.1      1.609      5.826
REMARK  Name = 
REMARK  2 active torsions:
REMARK  status: ('A' for Active; 'I' for Inactive)
REMARK    1  A    between atoms: C_1  and  C_2
REMARK    2  A    between atoms: C_17  and  C_18
REMARK                            x       y       z     vdW  Elec       q    Type
REMARK                         _______ _______ _______ _____ _____    ______ ____
ROOT
ATOM      1  C   UNL     1       2.455   2.159  21.599  0.00  0.00    +0.000 C 
ATOM      2  C   UNL     1       3.066   2.910  20.446  0.00  0.00    +0.000 A 
ATOM      3  C   UNL     1       3.989   2.249  19.622  0.00  0.00    +0.000 A 
ATOM      4  C   UNL     1       4.575   2.910  18.546  0.00  0.00    +0.000 A 
ATOM      5  C   UNL     1       4.249   4.237  18.277  0.00  0.00    +0.000 A 
ATOM      6  C   UNL     1       3.329   4.905  19.092  0.00  0.00    +0.000 A 
ATOM      7  C   UNL     1       2.726   4.256  20.184  0.00  0.00    +0.000 A 
ATOM      8  N   UNL     1       1.792   4.903  21.028  0.00  0.00    +0.000 NA
ATOM      9  N   UNL     1       1.481   6.097  20.808  0.00  0.00    +0.000 NA
ATOM     10  C   UNL     1       2.008   6.813  19.778  0.00  0.00    +0.000 A 
ATOM     11  C   UNL     1       1.806   8.112  19.367  0.00  0.00    +0.000 A 
ATOM     12  C   UNL     1       0.960   9.049  19.953  0.00  0.00    +0.000 A 
ATOM     13  C   UNL     1       1.013  10.279  19.256  0.00  0.00    +0.000 A 
ATOM     14  C   UNL     1       1.835  10.518  18.100  0.00  0.00    +0.000 A 
ATOM     15  C   UNL     1       2.686   9.551  17.523  0.00  0.00    +0.000 A 
ATOM     16  C   UNL     1       2.618   8.347  18.226  0.00  0.00    +0.000 A 
ATOM     17  C   UNL     1       3.309   7.192  17.947  0.00  0.00    +0.000 A 
ATOM     18  N   UNL     1       2.934   6.249  18.902  0.00  0.00    +0.000 N 
ENDROOT
BRANCH  17  19
ATOM     19  C   UNL     1       4.229   7.020  16.880  0.00  0.00    +0.000 C 
ATOM     20  N   UNL     1       4.990   6.892  16.013  0.00  0.00    +0.000 NA
ENDBRANCH  17  19
TORSDOF 1
ENDMDL
MODEL 9
REMARK VINA RESULT:      -5.9      2.526      4.844
REMARK  Name = 
REMARK  2 active torsions:
REMARK  status: ('A' for Active; 'I' for Inactive)
REMARK    1  A    between atoms: C_1  and  C_2
REMARK    2  A    between atoms: C_17  and  C_18
REMARK                            x       y       z     vdW  Elec       q    Type
REMARK                         _______ _______ _______ _____ _____    ______ ____
ROOT
ATOM      1  C   UNL     1       1.865   2.106  21.506  0.00  0.00    +0.000 C 
ATOM      2  C   UNL     1       2.043   3.451  20.853  0.00  0.00    +0.000 A 
ATOM      3  C   UNL     1       1.402   4.566  21.413  0.00  0.00    +0.000 A 
ATOM      4  C   UNL     1       1.543   5.825  20.838  0.00  0.00    +0.000 A 
ATOM      5  C   UNL     1       2.324   5.991  19.697  0.00  0.00    +0.000 A 
ATOM      6  C   UNL     1       2.968   4.886  19.130  0.00  0.00    +0.000 A 
ATOM      7  C   UNL     1       2.839   3.604  19.696  0.00  0.00    +0.000 A 
ATOM      8  N   UNL     1       3.476   2.467  19.147  0.00  0.00    +0.000 NA
ATOM      9  N   UNL     1       4.186   2.588  18.121  0.00  0.00    +0.000 NA
ATOM     10  C   UNL     1       4.374   3.783  17.498  0.00  0.00    +0.000 A 
ATOM     11  C   UNL     1       5.100   4.129  16.380  0.00  0.00    +0.000 A 
ATOM     12  C   UNL     1       5.856   3.276  15.580  0.00  0.00    +0.000 A 
ATOM     13  C   UNL     1       6.462   3.990  14.519  0.00  0.00    +0.000 A 
ATOM     14  C   UNL     1       6.310   5.404  14.305  0.00  0.00    +0.000 A 
ATOM     15  C   UNL     1       5.538   6.249  15.131  0.00  0.00    +0.000 A 
ATOM     16  C   UNL     1       4.949   5.526  16.169  0.00  0.00    +0.000 A 
ATOM     17  C   UNL     1       4.134   6.023  17.159  0.00  0.00    +0.000 A 
ATOM     18  N   UNL     1       3.781   4.950  17.975  0.00  0.00    +0.000 N 
ENDROOT
BRANCH  17  19
ATOM     19  C   UNL     1       3.741   7.379  17.297  0.00  0.00    +0.000 C 
ATOM     20  N   UNL     1       3.432   8.491  17.421  0.00  0.00    +0.000 NA
ENDBRANCH  17  19
TORSDOF 1
ENDMDL
