MODEL 1
REMARK VINA RESULT:      -8.5      0.000      0.000
REMARK  Name = 
REMARK  7 active torsions:
REMARK  status: ('A' for Active; 'I' for Inactive)
REMARK    1  A    between atoms: C_2  and  C_3
REMARK    2  A    between atoms: C_3  and  C_4
REMARK    3  A    between atoms: C_4  and  N_5
REMARK    4  A    between atoms: N_16  and  C_17
REMARK    5  A    between atoms: C_21  and  C_22
REMARK    6  A    between atoms: N_24  and  C_25
REMARK    7  A    between atoms: C_25  and  C_26
REMARK                            x       y       z     vdW  Elec       q    Type
REMARK                         _______ _______ _______ _____ _____    ______ ____
ROOT
ATOM      1  C   UNL     1       0.000  10.869  19.657  0.00  0.00    +0.000 A 
ATOM      2  S   UNL     1       0.862  11.595  20.925  0.00  0.00    +0.000 S 
ATOM      3  C   UNL     1      -0.396  12.669  21.271  0.00  0.00    +0.000 A 
ATOM      4  C   UNL     1      -1.489  12.503  20.440  0.00  0.00    +0.000 A 
ATOM      5  C   UNL     1      -1.277  11.409  19.498  0.00  0.00    +0.000 A 
ATOM      6  C   UNL     1      -2.690  13.406  20.572  0.00  0.00    +0.000 C 
ATOM      7  C   UNL     1      -2.385  14.673  21.391  0.00  0.00    +0.000 C 
ATOM      8  C   UNL     1      -1.603  14.346  22.668  0.00  0.00    +0.000 C 
ATOM      9  C   UNL     1      -0.249  13.706  22.343  0.00  0.00    +0.000 C 
ENDROOT
BRANCH   1  12
ATOM     10  O   UNL     1       2.349  10.895  17.890  0.00  0.00    +0.000 OA
ATOM     11  C   UNL     1       1.680   9.891  18.123  0.00  0.00    +0.000 C 
ATOM     12  N   UNL     1       0.561   9.813  18.938  0.00  0.00    +0.000 N 
ATOM     13  H   UNL     1      -0.028   8.986  18.861  0.00  0.00    +0.000 HD
BRANCH  11  14
ATOM     14  C   UNL     1       1.996   8.580  17.424  0.00  0.00    +0.000 C 
BRANCH  14  15
ATOM     15  C   UNL     1       3.184   7.902  18.105  0.00  0.00    +0.000 C 
BRANCH  15  16
ATOM     16  N   UNL     1       2.859   6.586  18.628  0.00  0.00    +0.000 N 
ATOM     17  C   UNL     1       2.126   6.369  19.766  0.00  0.00    +0.000 C 
ATOM     18  O   UNL     1       1.674   7.169  20.558  0.00  0.00    +0.000 OA
ATOM     19  C   UNL     1       1.960   4.921  19.883  0.00  0.00    +0.000 A 
ATOM     20  C   UNL     1       1.277   4.168  20.819  0.00  0.00    +0.000 A 
ATOM     21  C   UNL     1       1.285   2.778  20.656  0.00  0.00    +0.000 A 
ATOM     22  C   UNL     1       1.967   2.182  19.573  0.00  0.00    +0.000 A 
ATOM     23  C   UNL     1       2.651   2.966  18.639  0.00  0.00    +0.000 A 
ATOM     24  C   UNL     1       2.629   4.336  18.822  0.00  0.00    +0.000 A 
ATOM     25  C   UNL     1       3.218   5.412  18.028  0.00  0.00    +0.000 C 
ATOM     26  O   UNL     1       3.894   5.233  17.030  0.00  0.00    +0.000 OA
ENDBRANCH  15  16
ENDBRANCH  14  15
ENDBRANCH  11  14
ENDBRANCH   1  12
BRANCH   5  27
ATOM     27  C   UNL     1      -2.177  10.922  18.441  0.00  0.00    +0.000 C 
ATOM     28  O   UNL     1      -2.339   9.721  18.230  0.00  0.00    +0.000 OA
ATOM     29  N   UNL     1      -2.862  11.882  17.741  0.00  0.00    +0.000 N 
ATOM     30  H   UNL     1      -2.948  12.808  18.134  0.00  0.00    +0.000 HD
BRANCH  29  31
ATOM     31  C   UNL     1      -3.804  11.528  16.706  0.00  0.00    +0.000 C 
BRANCH  31  32
ATOM     32  C   UNL     1      -5.179  11.759  17.214  0.00  0.00    +0.000 A 
ATOM     33  C   UNL     1      -6.096  12.774  17.033  0.00  0.00    +0.000 A 
ATOM     34  C   UNL     1      -7.240  12.420  17.785  0.00  0.00    +0.000 A 
ATOM     35  C   UNL     1      -6.950  11.213  18.379  0.00  0.00    +0.000 A 
ATOM     36  O   UNL     1      -5.700  10.804  18.041  0.00  0.00    +0.000 OA
ENDBRANCH  31  32
ENDBRANCH  29  31
ENDBRANCH   5  27
TORSDOF 7
ENDMDL
MODEL 2
REMARK VINA RESULT:      -8.1      7.710     11.543
REMARK  Name = 
REMARK  7 active torsions:
REMARK  status: ('A' for Active; 'I' for Inactive)
REMARK    1  A    between atoms: C_2  and  C_3
REMARK    2  A    between atoms: C_3  and  C_4
REMARK    3  A    between atoms: C_4  and  N_5
REMARK    4  A    between atoms: N_16  and  C_17
REMARK    5  A    between atoms: C_21  and  C_22
REMARK    6  A    between atoms: N_24  and  C_25
REMARK    7  A    between atoms: C_25  and  C_26
REMARK                            x       y       z     vdW  Elec       q    Type
REMARK                         _______ _______ _______ _____ _____    ______ ____
ROOT
ATOM      1  C   UNL     1       5.463   6.507  17.424  0.00  0.00    +0.000 A 
ATOM      2  S   UNL     1       4.187   6.764  18.513  0.00  0.00    +0.000 S 
ATOM      3  C   UNL     1       3.537   5.228  18.237  0.00  0.00    +0.000 A 
ATOM      4  C   UNL     1       4.266   4.492  17.320  0.00  0.00    +0.000 A 
ATOM      5  C   UNL     1       5.436   5.232  16.857  0.00  0.00    +0.000 A 
ATOM      6  C   UNL     1       3.808   3.114  16.915  0.00  0.00    +0.000 C 
ATOM      7  C   UNL     1       2.343   2.843  17.304  0.00  0.00    +0.000 C 
ATOM      8  C   UNL     1       2.047   3.292  18.739  0.00  0.00    +0.000 C 
ATOM      9  C   UNL     1       2.266   4.800  18.907  0.00  0.00    +0.000 C 
ENDROOT
BRANCH   1  12
ATOM     10  O   UNL     1       8.076   6.825  18.731  0.00  0.00    +0.000 OA
ATOM     11  C   UNL     1       7.646   7.587  17.868  0.00  0.00    +0.000 C 
ATOM     12  N   UNL     1       6.425   7.497  17.219  0.00  0.00    +0.000 N 
ATOM     13  H   UNL     1       6.098   8.312  16.703  0.00  0.00    +0.000 HD
BRANCH  11  14
ATOM     14  C   UNL     1       8.437   8.822  17.472  0.00  0.00    +0.000 C 
BRANCH  14  15
ATOM     15  C   UNL     1       7.765  10.073  18.040  0.00  0.00    +0.000 C 
BRANCH  15  16
ATOM     16  N   UNL     1       8.701  11.156  18.283  0.00  0.00    +0.000 N 
ATOM     17  C   UNL     1       9.765  11.076  19.145  0.00  0.00    +0.000 C 
ATOM     18  O   UNL     1      10.094  10.171  19.883  0.00  0.00    +0.000 OA
ATOM     19  C   UNL     1      10.491  12.339  19.026  0.00  0.00    +0.000 A 
ATOM     20  C   UNL     1      11.652  12.769  19.640  0.00  0.00    +0.000 A 
ATOM     21  C   UNL     1      12.121  14.045  19.308  0.00  0.00    +0.000 A 
ATOM     22  C   UNL     1      11.425  14.851  18.381  0.00  0.00    +0.000 A 
ATOM     23  C   UNL     1      10.253  14.394  17.773  0.00  0.00    +0.000 A 
ATOM     24  C   UNL     1       9.810  13.130  18.117  0.00  0.00    +0.000 A 
ATOM     25  C   UNL     1       8.651  12.369  17.656  0.00  0.00    +0.000 C 
ATOM     26  O   UNL     1       7.829  12.791  16.861  0.00  0.00    +0.000 OA
ENDBRANCH  15  16
ENDBRANCH  14  15
ENDBRANCH  11  14
ENDBRANCH   1  12
BRANCH   5  27
ATOM     27  C   UNL     1       6.451   4.820  15.876  0.00  0.00    +0.000 C 
ATOM     28  O   UNL     1       7.566   4.431  16.221  0.00  0.00    +0.000 OA
ATOM     29  N   UNL     1       6.065   4.844  14.560  0.00  0.00    +0.000 N 
ATOM     30  H   UNL     1       5.080   4.860  14.338  0.00  0.00    +0.000 HD
BRANCH  29  31
ATOM     31  C   UNL     1       6.959   4.425  13.506  0.00  0.00    +0.000 C 
BRANCH  31  32
ATOM     32  C   UNL     1       6.213   3.549  12.571  0.00  0.00    +0.000 A 
ATOM     33  C   UNL     1       4.886   3.474  12.199  0.00  0.00    +0.000 A 
ATOM     34  C   UNL     1       4.792   2.421  11.259  0.00  0.00    +0.000 A 
ATOM     35  C   UNL     1       6.064   1.919  11.117  0.00  0.00    +0.000 A 
ATOM     36  O   UNL     1       6.935   2.594  11.910  0.00  0.00    +0.000 OA
ENDBRANCH  31  32
ENDBRANCH  29  31
ENDBRANCH   5  27
TORSDOF 7
ENDMDL
MODEL 3
REMARK VINA RESULT:      -8.1      2.968     10.051
REMARK  Name = 
REMARK  7 active torsions:
REMARK  status: ('A' for Active; 'I' for Inactive)
REMARK    1  A    between atoms: C_2  and  C_3
REMARK    2  A    between atoms: C_3  and  C_4
REMARK    3  A    between atoms: C_4  and  N_5
REMARK    4  A    between atoms: N_16  and  C_17
REMARK    5  A    between atoms: C_21  and  C_22
REMARK    6  A    between atoms: N_24  and  C_25
REMARK    7  A    between atoms: C_25  and  C_26
REMARK                            x       y       z     vdW  Elec       q    Type
REMARK                         _______ _______ _______ _____ _____    ______ ____
ROOT
ATOM      1  C   UNL     1       2.251   6.488  19.671  0.00  0.00    +0.000 A 
ATOM      2  S   UNL     1       1.494   5.559  20.873  0.00  0.00    +0.000 S 
ATOM      3  C   UNL     1       2.527   4.245  20.619  0.00  0.00    +0.000 A 
ATOM      4  C   UNL     1       3.461   4.479  19.627  0.00  0.00    +0.000 A 
ATOM      5  C   UNL     1       3.328   5.825  19.081  0.00  0.00    +0.000 A 
ATOM      6  C   UNL     1       4.437   3.399  19.232  0.00  0.00    +0.000 C 
ATOM      7  C   UNL     1       4.015   2.009  19.741  0.00  0.00    +0.000 C 
ATOM      8  C   UNL     1       3.567   2.055  21.206  0.00  0.00    +0.000 C 
ATOM      9  C   UNL     1       2.351   2.970  21.388  0.00  0.00    +0.000 C 
ENDROOT
BRANCH   1  12
ATOM     10  O   UNL     1       1.457   8.581  21.575  0.00  0.00    +0.000 OA
ATOM     11  C   UNL     1       1.460   8.732  20.355  0.00  0.00    +0.000 C 
ATOM     12  N   UNL     1       1.816   7.786  19.406  0.00  0.00    +0.000 N 
ATOM     13  H   UNL     1       1.554   7.961  18.437  0.00  0.00    +0.000 HD
BRANCH  11  14
ATOM     14  C   UNL     1       0.961  10.028  19.741  0.00  0.00    +0.000 C 
BRANCH  14  15
ATOM     15  C   UNL     1       1.027  11.151  20.776  0.00  0.00    +0.000 C 
BRANCH  15  16
ATOM     16  N   UNL     1      -0.286  11.587  21.222  0.00  0.00    +0.000 N 
ATOM     17  C   UNL     1      -0.807  11.318  22.461  0.00  0.00    +0.000 C 
ATOM     18  O   UNL     1      -0.344  10.655  23.366  0.00  0.00    +0.000 OA
ATOM     19  C   UNL     1      -2.096  12.004  22.528  0.00  0.00    +0.000 A 
ATOM     20  C   UNL     1      -3.014  12.093  23.557  0.00  0.00    +0.000 A 
ATOM     21  C   UNL     1      -4.169  12.848  23.323  0.00  0.00    +0.000 A 
ATOM     22  C   UNL     1      -4.377  13.485  22.081  0.00  0.00    +0.000 A 
ATOM     23  C   UNL     1      -3.433  13.379  21.055  0.00  0.00    +0.000 A 
ATOM     24  C   UNL     1      -2.300  12.629  21.310  0.00  0.00    +0.000 A 
ATOM     25  C   UNL     1      -1.140  12.343  20.470  0.00  0.00    +0.000 C 
ATOM     26  O   UNL     1      -1.015  12.733  19.322  0.00  0.00    +0.000 OA
ENDBRANCH  15  16
ENDBRANCH  14  15
ENDBRANCH  11  14
ENDBRANCH   1  12
BRANCH   5  27
ATOM     27  C   UNL     1       4.108   6.459  18.006  0.00  0.00    +0.000 C 
ATOM     28  O   UNL     1       3.652   7.381  17.332  0.00  0.00    +0.000 OA
ATOM     29  N   UNL     1       5.389   5.998  17.835  0.00  0.00    +0.000 N 
ATOM     30  H   UNL     1       5.828   5.483  18.584  0.00  0.00    +0.000 HD
BRANCH  29  31
ATOM     31  C   UNL     1       6.266   6.567  16.839  0.00  0.00    +0.000 C 
BRANCH  31  32
ATOM     32  C   UNL     1       6.326   5.647  15.677  0.00  0.00    +0.000 A 
ATOM     33  C   UNL     1       5.408   4.796  15.097  0.00  0.00    +0.000 A 
ATOM     34  C   UNL     1       6.065   4.181  14.005  0.00  0.00    +0.000 A 
ATOM     35  C   UNL     1       7.342   4.694  13.989  0.00  0.00    +0.000 A 
ATOM     36  O   UNL     1       7.512   5.583  15.001  0.00  0.00    +0.000 OA
ENDBRANCH  31  32
ENDBRANCH  29  31
ENDBRANCH   5  27
TORSDOF 7
ENDMDL
MODEL 4
REMARK VINA RESULT:      -8.0      7.666     11.690
REMARK  Name = 
REMARK  7 active torsions:
REMARK  status: ('A' for Active; 'I' for Inactive)
REMARK    1  A    between atoms: C_2  and  C_3
REMARK    2  A    between atoms: C_3  and  C_4
REMARK    3  A    between atoms: C_4  and  N_5
REMARK    4  A    between atoms: N_16  and  C_17
REMARK    5  A    between atoms: C_21  and  C_22
REMARK    6  A    between atoms: N_24  and  C_25
REMARK    7  A    between atoms: C_25  and  C_26
REMARK                            x       y       z     vdW  Elec       q    Type
REMARK                         _______ _______ _______ _____ _____    ______ ____
ROOT
ATOM      1  C   UNL     1       5.524   6.721  17.370  0.00  0.00    +0.000 A 
ATOM      2  S   UNL     1       4.242   6.917  18.465  0.00  0.00    +0.000 S 
ATOM      3  C   UNL     1       3.633   5.372  18.151  0.00  0.00    +0.000 A 
ATOM      4  C   UNL     1       4.381   4.679  17.217  0.00  0.00    +0.000 A 
ATOM      5  C   UNL     1       5.530   5.460  16.773  0.00  0.00    +0.000 A 
ATOM      6  C   UNL     1       3.959   3.299  16.777  0.00  0.00    +0.000 C 
ATOM      7  C   UNL     1       2.502   2.980  17.159  0.00  0.00    +0.000 C 
ATOM      8  C   UNL     1       2.195   3.385  18.605  0.00  0.00    +0.000 C 
ATOM      9  C   UNL     1       2.374   4.894  18.810  0.00  0.00    +0.000 C 
ENDROOT
BRANCH   1  12
ATOM     10  O   UNL     1       8.128   7.076  18.685  0.00  0.00    +0.000 OA
ATOM     11  C   UNL     1       7.678   7.848  17.841  0.00  0.00    +0.000 C 
ATOM     12  N   UNL     1       6.459   7.741  17.190  0.00  0.00    +0.000 N 
ATOM     13  H   UNL     1       6.110   8.560  16.694  0.00  0.00    +0.000 HD
BRANCH  11  14
ATOM     14  C   UNL     1       8.435   9.113  17.477  0.00  0.00    +0.000 C 
BRANCH  14  15
ATOM     15  C   UNL     1       8.825   9.869  18.747  0.00  0.00    +0.000 C 
BRANCH  15  16
ATOM     16  N   UNL     1       9.380  11.183  18.474  0.00  0.00    +0.000 N 
ATOM     17  C   UNL     1       8.718  12.173  17.796  0.00  0.00    +0.000 C 
ATOM     18  O   UNL     1       7.629  12.147  17.261  0.00  0.00    +0.000 OA
ATOM     19  C   UNL     1       9.589  13.347  17.819  0.00  0.00    +0.000 A 
ATOM     20  C   UNL     1       9.394  14.619  17.317  0.00  0.00    +0.000 A 
ATOM     21  C   UNL     1      10.421  15.551  17.510  0.00  0.00    +0.000 A 
ATOM     22  C   UNL     1      11.603  15.191  18.192  0.00  0.00    +0.000 A 
ATOM     23  C   UNL     1      11.776  13.896  18.691  0.00  0.00    +0.000 A 
ATOM     24  C   UNL     1      10.748  12.995  18.488  0.00  0.00    +0.000 A 
ATOM     25  C   UNL     1      10.614  11.597  18.892  0.00  0.00    +0.000 C 
ATOM     26  O   UNL     1      11.475  10.973  19.486  0.00  0.00    +0.000 OA
ENDBRANCH  15  16
ENDBRANCH  14  15
ENDBRANCH  11  14
ENDBRANCH   1  12
BRANCH   5  27
ATOM     27  C   UNL     1       6.556   5.099  15.782  0.00  0.00    +0.000 C 
ATOM     28  O   UNL     1       7.718   4.863  16.108  0.00  0.00    +0.000 OA
ATOM     29  N   UNL     1       6.130   4.991  14.482  0.00  0.00    +0.000 N 
ATOM     30  H   UNL     1       5.143   4.881  14.298  0.00  0.00    +0.000 HD
BRANCH  29  31
ATOM     31  C   UNL     1       7.033   4.605  13.424  0.00  0.00    +0.000 C 
BRANCH  31  32
ATOM     32  C   UNL     1       6.346   3.627  12.545  0.00  0.00    +0.000 A 
ATOM     33  C   UNL     1       5.022   3.419  12.216  0.00  0.00    +0.000 A 
ATOM     34  C   UNL     1       4.999   2.325  11.320  0.00  0.00    +0.000 A 
ATOM     35  C   UNL     1       6.308   1.933  11.159  0.00  0.00    +0.000 A 
ATOM     36  O   UNL     1       7.134   2.716  11.900  0.00  0.00    +0.000 OA
ENDBRANCH  31  32
ENDBRANCH  29  31
ENDBRANCH   5  27
TORSDOF 7
ENDMDL
MODEL 5
REMARK VINA RESULT:      -8.0      2.918     10.096
REMARK  Name = 
REMARK  7 active torsions:
REMARK  status: ('A' for Active; 'I' for Inactive)
REMARK    1  A    between atoms: C_2  and  C_3
REMARK    2  A    between atoms: C_3  and  C_4
REMARK    3  A    between atoms: C_4  and  N_5
REMARK    4  A    between atoms: N_16  and  C_17
REMARK    5  A    between atoms: C_21  and  C_22
REMARK    6  A    between atoms: N_24  and  C_25
REMARK    7  A    between atoms: C_25  and  C_26
REMARK                            x       y       z     vdW  Elec       q    Type
REMARK                         _______ _______ _______ _____ _____    ______ ____
ROOT
ATOM      1  C   UNL     1       2.273   6.454  19.544  0.00  0.00    +0.000 A 
ATOM      2  S   UNL     1       1.472   5.554  20.739  0.00  0.00    +0.000 S 
ATOM      3  C   UNL     1       2.527   4.244  20.573  0.00  0.00    +0.000 A 
ATOM      4  C   UNL     1       3.503   4.457  19.616  0.00  0.00    +0.000 A 
ATOM      5  C   UNL     1       3.381   5.785  19.022  0.00  0.00    +0.000 A 
ATOM      6  C   UNL     1       4.505   3.377  19.299  0.00  0.00    +0.000 C 
ATOM      7  C   UNL     1       4.074   1.998  19.832  0.00  0.00    +0.000 C 
ATOM      8  C   UNL     1       3.561   2.085  21.274  0.00  0.00    +0.000 C 
ATOM      9  C   UNL     1       2.329   2.992  21.373  0.00  0.00    +0.000 C 
ENDROOT
BRANCH   1  12
ATOM     10  O   UNL     1       1.439   8.619  21.347  0.00  0.00    +0.000 OA
ATOM     11  C   UNL     1       1.462   8.720  20.123  0.00  0.00    +0.000 C 
ATOM     12  N   UNL     1       1.837   7.739  19.219  0.00  0.00    +0.000 N 
ATOM     13  H   UNL     1       1.592   7.873  18.239  0.00  0.00    +0.000 HD
BRANCH  11  14
ATOM     14  C   UNL     1       0.969   9.988  19.448  0.00  0.00    +0.000 C 
BRANCH  14  15
ATOM     15  C   UNL     1       1.147  11.180  20.390  0.00  0.00    +0.000 C 
BRANCH  15  16
ATOM     16  N   UNL     1      -0.114  11.702  20.885  0.00  0.00    +0.000 N 
ATOM     17  C   UNL     1      -0.972  12.475  20.145  0.00  0.00    +0.000 C 
ATOM     18  O   UNL     1      -0.843  12.909  19.020  0.00  0.00    +0.000 OA
ATOM     19  C   UNL     1      -2.148  12.709  20.982  0.00  0.00    +0.000 A 
ATOM     20  C   UNL     1      -3.319  13.390  20.714  0.00  0.00    +0.000 A 
ATOM     21  C   UNL     1      -4.285  13.430  21.726  0.00  0.00    +0.000 A 
ATOM     22  C   UNL     1      -4.058  12.796  22.966  0.00  0.00    +0.000 A 
ATOM     23  C   UNL     1      -2.864  12.113  23.213  0.00  0.00    +0.000 A 
ATOM     24  C   UNL     1      -1.925  12.087  22.199  0.00  0.00    +0.000 A 
ATOM     25  C   UNL     1      -0.609  11.456  22.135  0.00  0.00    +0.000 C 
ATOM     26  O   UNL     1      -0.102  10.840  23.056  0.00  0.00    +0.000 OA
ENDBRANCH  15  16
ENDBRANCH  14  15
ENDBRANCH  11  14
ENDBRANCH   1  12
BRANCH   5  27
ATOM     27  C   UNL     1       4.202   6.394  17.963  0.00  0.00    +0.000 C 
ATOM     28  O   UNL     1       3.806   7.356  17.309  0.00  0.00    +0.000 OA
ATOM     29  N   UNL     1       5.452   5.858  17.785  0.00  0.00    +0.000 N 
ATOM     30  H   UNL     1       5.856   5.300  18.522  0.00  0.00    +0.000 HD
BRANCH  29  31
ATOM     31  C   UNL     1       6.366   6.394  16.804  0.00  0.00    +0.000 C 
BRANCH  31  32
ATOM     32  C   UNL     1       6.394   5.484  15.633  0.00  0.00    +0.000 A 
ATOM     33  C   UNL     1       5.567   4.464  15.208  0.00  0.00    +0.000 A 
ATOM     34  C   UNL     1       6.126   3.969  14.006  0.00  0.00    +0.000 A 
ATOM     35  C   UNL     1       7.257   4.716  13.773  0.00  0.00    +0.000 A 
ATOM     36  O   UNL     1       7.431   5.637  14.756  0.00  0.00    +0.000 OA
ENDBRANCH  31  32
ENDBRANCH  29  31
ENDBRANCH   5  27
TORSDOF 7
ENDMDL
MODEL 6
REMARK VINA RESULT:      -7.9      2.597      9.376
REMARK  Name = 
REMARK  7 active torsions:
REMARK  status: ('A' for Active; 'I' for Inactive)
REMARK    1  A    between atoms: C_2  and  C_3
REMARK    2  A    between atoms: C_3  and  C_4
REMARK    3  A    between atoms: C_4  and  N_5
REMARK    4  A    between atoms: N_16  and  C_17
REMARK    5  A    between atoms: C_21  and  C_22
REMARK    6  A    between atoms: N_24  and  C_25
REMARK    7  A    between atoms: C_25  and  C_26
REMARK                            x       y       z     vdW  Elec       q    Type
REMARK                         _______ _______ _______ _____ _____    ______ ____
ROOT
ATOM      1  C   UNL     1       1.994   6.503  19.997  0.00  0.00    +0.000 A 
ATOM      2  S   UNL     1       1.127   5.307  20.832  0.00  0.00    +0.000 S 
ATOM      3  C   UNL     1       1.638   4.088  19.778  0.00  0.00    +0.000 A 
ATOM      4  C   UNL     1       2.470   4.556  18.777  0.00  0.00    +0.000 A 
ATOM      5  C   UNL     1       2.717   5.988  18.920  0.00  0.00    +0.000 A 
ATOM      6  C   UNL     1       2.986   3.617  17.717  0.00  0.00    +0.000 C 
ATOM      7  C   UNL     1       2.199   2.295  17.667  0.00  0.00    +0.000 C 
ATOM      8  C   UNL     1       1.972   1.720  19.070  0.00  0.00    +0.000 C 
ATOM      9  C   UNL     1       1.151   2.679  19.939  0.00  0.00    +0.000 C 
ENDROOT
BRANCH   1  12
ATOM     10  O   UNL     1      -0.212   7.988  21.248  0.00  0.00    +0.000 OA
ATOM     11  C   UNL     1       0.898   8.467  21.031  0.00  0.00    +0.000 C 
ATOM     12  N   UNL     1       1.975   7.825  20.441  0.00  0.00    +0.000 N 
ATOM     13  H   UNL     1       2.751   8.399  20.112  0.00  0.00    +0.000 HD
BRANCH  11  14
ATOM     14  C   UNL     1       1.175   9.929  21.337  0.00  0.00    +0.000 C 
BRANCH  14  15
ATOM     15  C   UNL     1       1.212  10.734  20.038  0.00  0.00    +0.000 C 
BRANCH  15  16
ATOM     16  N   UNL     1      -0.057  10.723  19.331  0.00  0.00    +0.000 N 
ATOM     17  C   UNL     1      -1.165  11.426  19.727  0.00  0.00    +0.000 C 
ATOM     18  O   UNL     1      -1.334  12.110  20.714  0.00  0.00    +0.000 OA
ATOM     19  C   UNL     1      -2.184  11.207  18.700  0.00  0.00    +0.000 A 
ATOM     20  C   UNL     1      -3.466  11.709  18.586  0.00  0.00    +0.000 A 
ATOM     21  C   UNL     1      -4.209  11.326  17.464  0.00  0.00    +0.000 A 
ATOM     22  C   UNL     1      -3.658  10.459  16.496  0.00  0.00    +0.000 A 
ATOM     23  C   UNL     1      -2.358   9.964  16.633  0.00  0.00    +0.000 A 
ATOM     24  C   UNL     1      -1.645  10.358  17.750  0.00  0.00    +0.000 A 
ATOM     25  C   UNL     1      -0.282  10.037  18.170  0.00  0.00    +0.000 C 
ATOM     26  O   UNL     1       0.463   9.292  17.560  0.00  0.00    +0.000 OA
ENDBRANCH  15  16
ENDBRANCH  14  15
ENDBRANCH  11  14
ENDBRANCH   1  12
BRANCH   5  27
ATOM     27  C   UNL     1       3.523   6.868  18.061  0.00  0.00    +0.000 C 
ATOM     28  O   UNL     1       3.262   8.063  17.930  0.00  0.00    +0.000 OA
ATOM     29  N   UNL     1       4.612   6.292  17.458  0.00  0.00    +0.000 N 
ATOM     30  H   UNL     1       4.973   5.423  17.824  0.00  0.00    +0.000 HD
BRANCH  29  31
ATOM     31  C   UNL     1       5.503   7.062  16.622  0.00  0.00    +0.000 C 
BRANCH  31  32
ATOM     32  C   UNL     1       6.715   7.404  17.407  0.00  0.00    +0.000 A 
ATOM     33  C   UNL     1       7.498   8.536  17.491  0.00  0.00    +0.000 A 
ATOM     34  C   UNL     1       8.522   8.247  18.424  0.00  0.00    +0.000 A 
ATOM     35  C   UNL     1       8.300   6.958  18.849  0.00  0.00    +0.000 A 
ATOM     36  O   UNL     1       7.207   6.435  18.237  0.00  0.00    +0.000 OA
ENDBRANCH  31  32
ENDBRANCH  29  31
ENDBRANCH   5  27
TORSDOF 7
ENDMDL
MODEL 7
REMARK VINA RESULT:      -7.9      2.722      3.830
REMARK  Name = 
REMARK  7 active torsions:
REMARK  status: ('A' for Active; 'I' for Inactive)
REMARK    1  A    between atoms: C_2  and  C_3
REMARK    2  A    between atoms: C_3  and  C_4
REMARK    3  A    between atoms: C_4  and  N_5
REMARK    4  A    between atoms: N_16  and  C_17
REMARK    5  A    between atoms: C_21  and  C_22
REMARK    6  A    between atoms: N_24  and  C_25
REMARK    7  A    between atoms: C_25  and  C_26
REMARK                            x       y       z     vdW  Elec       q    Type
REMARK                         _______ _______ _______ _____ _____    ______ ____
ROOT
ATOM      1  C   UNL     1       1.132  12.921  19.603  0.00  0.00    +0.000 A 
ATOM      2  S   UNL     1       2.555  13.842  19.515  0.00  0.00    +0.000 S 
ATOM      3  C   UNL     1       1.711  15.255  19.133  0.00  0.00    +0.000 A 
ATOM      4  C   UNL     1       0.343  15.064  19.065  0.00  0.00    +0.000 A 
ATOM      5  C   UNL     1      -0.015  13.684  19.379  0.00  0.00    +0.000 A 
ATOM      6  C   UNL     1      -0.567  16.206  18.691  0.00  0.00    +0.000 C 
ATOM      7  C   UNL     1       0.195  17.381  18.051  0.00  0.00    +0.000 C 
ATOM      8  C   UNL     1       1.470  17.720  18.832  0.00  0.00    +0.000 C 
ATOM      9  C   UNL     1       2.441  16.535  18.854  0.00  0.00    +0.000 C 
ENDROOT
BRANCH   1  12
ATOM     10  O   UNL     1       0.456  11.613  22.147  0.00  0.00    +0.000 OA
ATOM     11  C   UNL     1       0.849  11.009  21.151  0.00  0.00    +0.000 C 
ATOM     12  N   UNL     1       1.189  11.565  19.928  0.00  0.00    +0.000 N 
ATOM     13  H   UNL     1       1.714  10.989  19.271  0.00  0.00    +0.000 HD
BRANCH  11  14
ATOM     14  C   UNL     1       1.089   9.511  21.207  0.00  0.00    +0.000 C 
BRANCH  14  15
ATOM     15  C   UNL     1       0.657   8.866  19.890  0.00  0.00    +0.000 C 
BRANCH  15  16
ATOM     16  N   UNL     1       1.684   8.017  19.313  0.00  0.00    +0.000 N 
ATOM     17  C   UNL     1       2.383   8.320  18.173  0.00  0.00    +0.000 C 
ATOM     18  O   UNL     1       2.261   9.263  17.420  0.00  0.00    +0.000 OA
ATOM     19  C   UNL     1       3.368   7.254  17.994  0.00  0.00    +0.000 A 
ATOM     20  C   UNL     1       4.345   7.087  17.031  0.00  0.00    +0.000 A 
ATOM     21  C   UNL     1       5.161   5.955  17.133  0.00  0.00    +0.000 A 
ATOM     22  C   UNL     1       4.982   5.028  18.183  0.00  0.00    +0.000 A 
ATOM     23  C   UNL     1       3.986   5.220  19.145  0.00  0.00    +0.000 A 
ATOM     24  C   UNL     1       3.193   6.345  19.023  0.00  0.00    +0.000 A 
ATOM     25  C   UNL     1       2.098   6.834  19.858  0.00  0.00    +0.000 C 
ATOM     26  O   UNL     1       1.677   6.251  20.841  0.00  0.00    +0.000 OA
ENDBRANCH  15  16
ENDBRANCH  14  15
ENDBRANCH  11  14
ENDBRANCH   1  12
BRANCH   5  27
ATOM     27  C   UNL     1      -1.350  13.066  19.400  0.00  0.00    +0.000 C 
ATOM     28  O   UNL     1      -2.062  13.095  20.402  0.00  0.00    +0.000 OA
ATOM     29  N   UNL     1      -1.773  12.501  18.223  0.00  0.00    +0.000 N 
ATOM     30  H   UNL     1      -1.316  12.764  17.362  0.00  0.00    +0.000 HD
BRANCH  29  31
ATOM     31  C   UNL     1      -3.079  11.898  18.106  0.00  0.00    +0.000 C 
BRANCH  31  32
ATOM     32  C   UNL     1      -3.099  11.038  16.898  0.00  0.00    +0.000 A 
ATOM     33  C   UNL     1      -2.356   9.945  16.503  0.00  0.00    +0.000 A 
ATOM     34  C   UNL     1      -2.853   9.557  15.236  0.00  0.00    +0.000 A 
ATOM     35  C   UNL     1      -3.867  10.438  14.937  0.00  0.00    +0.000 A 
ATOM     36  O   UNL     1      -4.023  11.343  15.938  0.00  0.00    +0.000 OA
ENDBRANCH  31  32
ENDBRANCH  29  31
ENDBRANCH   5  27
TORSDOF 7
ENDMDL
MODEL 8
REMARK VINA RESULT:      -7.9      3.071      9.561
REMARK  Name = 
REMARK  7 active torsions:
REMARK  status: ('A' for Active; 'I' for Inactive)
REMARK    1  A    between atoms: C_2  and  C_3
REMARK    2  A    between atoms: C_3  and  C_4
REMARK    3  A    between atoms: C_4  and  N_5
REMARK    4  A    between atoms: N_16  and  C_17
REMARK    5  A    between atoms: C_21  and  C_22
REMARK    6  A    between atoms: N_24  and  C_25
REMARK    7  A    between atoms: C_25  and  C_26
REMARK                            x       y       z     vdW  Elec       q    Type
REMARK                         _______ _______ _______ _____ _____    ______ ____
ROOT
ATOM      1  C   UNL     1       2.417   7.179  19.398  0.00  0.00    +0.000 A 
ATOM      2  S   UNL     1       1.422   6.524  20.608  0.00  0.00    +0.000 S 
ATOM      3  C   UNL     1       2.137   4.998  20.480  0.00  0.00    +0.000 A 
ATOM      4  C   UNL     1       3.138   4.951  19.526  0.00  0.00    +0.000 A 
ATOM      5  C   UNL     1       3.336   6.255  18.901  0.00  0.00    +0.000 A 
ATOM      6  C   UNL     1       3.856   3.656  19.241  0.00  0.00    +0.000 C 
ATOM      7  C   UNL     1       3.109   2.432  19.802  0.00  0.00    +0.000 C 
ATOM      8  C   UNL     1       2.628   2.672  21.237  0.00  0.00    +0.000 C 
ATOM      9  C   UNL     1       1.646   3.848  21.306  0.00  0.00    +0.000 C 
ENDROOT
BRANCH   1  12
ATOM     10  O   UNL     1       0.501   8.425  17.551  0.00  0.00    +0.000 OA
ATOM     11  C   UNL     1       1.365   9.049  18.163  0.00  0.00    +0.000 C 
ATOM     12  N   UNL     1       2.299   8.523  19.041  0.00  0.00    +0.000 N 
ATOM     13  H   UNL     1       3.094   9.105  19.297  0.00  0.00    +0.000 HD
BRANCH  11  14
ATOM     14  C   UNL     1       1.545  10.539  17.930  0.00  0.00    +0.000 C 
BRANCH  14  15
ATOM     15  C   UNL     1       1.990  11.217  19.226  0.00  0.00    +0.000 C 
BRANCH  15  16
ATOM     16  N   UNL     1       0.882  11.525  20.113  0.00  0.00    +0.000 N 
ATOM     17  C   UNL     1      -0.077  12.468  19.848  0.00  0.00    +0.000 C 
ATOM     18  O   UNL     1      -0.167  13.236  18.913  0.00  0.00    +0.000 OA
ATOM     19  C   UNL     1      -1.043  12.398  20.944  0.00  0.00    +0.000 A 
ATOM     20  C   UNL     1      -2.215  13.098  21.154  0.00  0.00    +0.000 A 
ATOM     21  C   UNL     1      -2.947  12.794  22.307  0.00  0.00    +0.000 A 
ATOM     22  C   UNL     1      -2.494  11.810  23.211  0.00  0.00    +0.000 A 
ATOM     23  C   UNL     1      -1.304  11.114  22.977  0.00  0.00    +0.000 A 
ATOM     24  C   UNL     1      -0.599  11.432  21.831  0.00  0.00    +0.000 A 
ATOM     25  C   UNL     1       0.647  10.887  21.298  0.00  0.00    +0.000 C 
ATOM     26  O   UNL     1       1.309  10.027  21.853  0.00  0.00    +0.000 OA
ENDBRANCH  15  16
ENDBRANCH  14  15
ENDBRANCH  11  14
ENDBRANCH   1  12
BRANCH   5  27
ATOM     27  C   UNL     1       4.280   6.626  17.836  0.00  0.00    +0.000 C 
ATOM     28  O   UNL     1       3.969   7.406  16.938  0.00  0.00    +0.000 OA
ATOM     29  N   UNL     1       5.541   6.093  17.931  0.00  0.00    +0.000 N 
ATOM     30  H   UNL     1       5.851   5.725  18.819  0.00  0.00    +0.000 HD
BRANCH  29  31
ATOM     31  C   UNL     1       6.567   6.413  16.968  0.00  0.00    +0.000 C 
BRANCH  31  32
ATOM     32  C   UNL     1       6.475   5.455  15.839  0.00  0.00    +0.000 A 
ATOM     33  C   UNL     1       5.645   4.387  15.571  0.00  0.00    +0.000 A 
ATOM     34  C   UNL     1       6.055   3.863  14.322  0.00  0.00    +0.000 A 
ATOM     35  C   UNL     1       7.110   4.643  13.908  0.00  0.00    +0.000 A 
ATOM     36  O   UNL     1       7.375   5.611  14.822  0.00  0.00    +0.000 OA
ENDBRANCH  31  32
ENDBRANCH  29  31
ENDBRANCH   5  27
TORSDOF 7
ENDMDL
MODEL 9
REMARK VINA RESULT:      -7.9      0.858      1.796
REMARK  Name = 
REMARK  7 active torsions:
REMARK  status: ('A' for Active; 'I' for Inactive)
REMARK    1  A    between atoms: C_2  and  C_3
REMARK    2  A    between atoms: C_3  and  C_4
REMARK    3  A    between atoms: C_4  and  N_5
REMARK    4  A    between atoms: N_16  and  C_17
REMARK    5  A    between atoms: C_21  and  C_22
REMARK    6  A    between atoms: N_24  and  C_25
REMARK    7  A    between atoms: C_25  and  C_26
REMARK                            x       y       z     vdW  Elec       q    Type
REMARK                         _______ _______ _______ _____ _____    ______ ____
ROOT
ATOM      1  C   UNL     1      -0.353  10.729  19.916  0.00  0.00    +0.000 A 
ATOM      2  S   UNL     1       0.324  11.162  21.410  0.00  0.00    +0.000 S 
ATOM      3  C   UNL     1      -0.894  12.291  21.724  0.00  0.00    +0.000 A 
ATOM      4  C   UNL     1      -1.834  12.364  20.713  0.00  0.00    +0.000 A 
ATOM      5  C   UNL     1      -1.540  11.411  19.647  0.00  0.00    +0.000 A 
ATOM      6  C   UNL     1      -2.970  13.351  20.801  0.00  0.00    +0.000 C 
ATOM      7  C   UNL     1      -2.723  14.441  21.859  0.00  0.00    +0.000 C 
ATOM      8  C   UNL     1      -2.201  13.846  23.172  0.00  0.00    +0.000 C 
ATOM      9  C   UNL     1      -0.861  13.131  22.966  0.00  0.00    +0.000 C 
ENDROOT
BRANCH   1  12
ATOM     10  O   UNL     1       1.974  10.968  18.137  0.00  0.00    +0.000 OA
ATOM     11  C   UNL     1       1.352   9.923  18.312  0.00  0.00    +0.000 C 
ATOM     12  N   UNL     1       0.247   9.745  19.129  0.00  0.00    +0.000 N 
ATOM     13  H   UNL     1      -0.306   8.898  19.006  0.00  0.00    +0.000 HD
BRANCH  11  14
ATOM     14  C   UNL     1       1.719   8.672  17.531  0.00  0.00    +0.000 C 
BRANCH  14  15
ATOM     15  C   UNL     1       3.040   8.105  18.050  0.00  0.00    +0.000 C 
BRANCH  15  16
ATOM     16  N   UNL     1       2.893   6.793  18.656  0.00  0.00    +0.000 N 
ATOM     17  C   UNL     1       3.395   5.636  18.118  0.00  0.00    +0.000 C 
ATOM     18  O   UNL     1       3.975   5.461  17.067  0.00  0.00    +0.000 OA
ATOM     19  C   UNL     1       3.103   4.571  19.077  0.00  0.00    +0.000 A 
ATOM     20  C   UNL     1       3.418   3.227  19.049  0.00  0.00    +0.000 A 
ATOM     21  C   UNL     1       3.011   2.448  20.138  0.00  0.00    +0.000 A 
ATOM     22  C   UNL     1       2.306   3.027  21.215  0.00  0.00    +0.000 A 
ATOM     23  C   UNL     1       1.999   4.391  21.221  0.00  0.00    +0.000 A 
ATOM     24  C   UNL     1       2.412   5.138  20.134  0.00  0.00    +0.000 A 
ATOM     25  C   UNL     1       2.267   6.564  19.848  0.00  0.00    +0.000 C 
ATOM     26  O   UNL     1       1.684   7.350  20.575  0.00  0.00    +0.000 OA
ENDBRANCH  15  16
ENDBRANCH  14  15
ENDBRANCH  11  14
ENDBRANCH   1  12
BRANCH   5  27
ATOM     27  C   UNL     1      -2.275  11.184  18.393  0.00  0.00    +0.000 C 
ATOM     28  O   UNL     1      -1.807  10.505  17.481  0.00  0.00    +0.000 OA
ATOM     29  N   UNL     1      -3.532  11.730  18.321  0.00  0.00    +0.000 N 
ATOM     30  H   UNL     1      -3.998  12.000  19.175  0.00  0.00    +0.000 HD
BRANCH  29  31
ATOM     31  C   UNL     1      -4.367  11.544  17.158  0.00  0.00    +0.000 C 
BRANCH  31  32
ATOM     32  C   UNL     1      -5.680  12.185  17.408  0.00  0.00    +0.000 A 
ATOM     33  C   UNL     1      -6.733  11.888  18.250  0.00  0.00    +0.000 A 
ATOM     34  C   UNL     1      -7.715  12.882  18.031  0.00  0.00    +0.000 A 
ATOM     35  C   UNL     1      -7.202  13.723  17.070  0.00  0.00    +0.000 A 
ATOM     36  O   UNL     1      -5.968  13.307  16.683  0.00  0.00    +0.000 OA
ENDBRANCH  31  32
ENDBRANCH  29  31
ENDBRANCH   5  27
TORSDOF 7
ENDMDL
