MODEL 1
REMARK VINA RESULT:      -9.3      0.000      0.000
REMARK  Name = 
REMARK  6 active torsions:
REMARK  status: ('A' for Active; 'I' for Inactive)
REMARK    1  A    between atoms: C_1  and  O_2
REMARK    2  A    between atoms: O_2  and  C_3
REMARK    3  A    between atoms: C_7  and  C_8
REMARK    4  A    between atoms: C_12  and  C_13
REMARK    5  A    between atoms: C_13  and  C_14
REMARK    6  A    between atoms: C_21  and  C_22
REMARK                            x       y       z     vdW  Elec       q    Type
REMARK                         _______ _______ _______ _____ _____    ______ ____
ROOT
ATOM      1  C   UNL     1       3.368   5.051  18.631  0.00  0.00    +0.000 C 
ATOM      2  N   UNL     1       3.375   4.578  20.052  0.00  0.00    +0.000 NA
ATOM      3  C   UNL     1       2.750   3.451  20.007  0.00  0.00    +0.000 C 
ATOM      4  C   UNL     1       2.517   2.536  21.152  0.00  0.00    +0.000 C 
ATOM      5  C   UNL     1       2.248   3.133  18.645  0.00  0.00    +0.000 C 
ATOM      6  N   UNL     1       1.530   2.026  18.315  0.00  0.00    +0.000 N 
ATOM      7  N   UNL     1       2.583   4.061  17.817  0.00  0.00    +0.000 NA
ATOM      8  H   UNL     1       1.687   1.181  18.850  0.00  0.00    +0.000 HD
ATOM      9  H   UNL     1       1.482   1.869  17.313  0.00  0.00    +0.000 HD
ENDROOT
BRANCH   1  14
ATOM     10  C   UNL     1       6.351   4.972  16.170  0.00  0.00    +0.000 A 
ATOM     11  C   UNL     1       7.416   5.167  17.061  0.00  0.00    +0.000 A 
ATOM     12  C   UNL     1       7.192   5.380  18.426  0.00  0.00    +0.000 A 
ATOM     13  C   UNL     1       5.895   5.368  18.937  0.00  0.00    +0.000 A 
ATOM     14  C   UNL     1       4.800   5.152  18.093  0.00  0.00    +0.000 A 
ATOM     15  C   UNL     1       5.053   4.994  16.717  0.00  0.00    +0.000 A 
BRANCH  10  20
ATOM     16  C   UNL     1       5.928   3.529  12.668  0.00  0.00    +0.000 A 
ATOM     17  C   UNL     1       6.953   4.171  11.978  0.00  0.00    +0.000 A 
ATOM     18  C   UNL     1       7.778   5.081  12.636  0.00  0.00    +0.000 A 
ATOM     19  C   UNL     1       7.579   5.355  13.993  0.00  0.00    +0.000 A 
ATOM     20  C   UNL     1       6.564   4.716  14.723  0.00  0.00    +0.000 A 
ATOM     21  C   UNL     1       5.751   3.796  14.027  0.00  0.00    +0.000 A 
BRANCH  16  23
ATOM     22  C   UNL     1       4.045   3.208  11.255  0.00  0.00    +0.000 C 
ATOM     23  O   UNL     1       5.177   2.660  11.922  0.00  0.00    +0.000 OA
ENDBRANCH  16  23
ENDBRANCH  10  20
ENDBRANCH   1  14
BRANCH   1  24
ATOM     24  C   UNL     1       2.574   6.392  18.579  0.00  0.00    +0.000 C 
ATOM     25  C   UNL     1       3.209   7.463  17.672  0.00  0.00    +0.000 C 
ATOM     26  C   UNL     1       2.293   8.677  17.591  0.00  0.00    +0.000 C 
ATOM     27  O   UNL     1       2.059   9.219  18.890  0.00  0.00    +0.000 OA
ATOM     28  C   UNL     1       1.437   8.282  19.769  0.00  0.00    +0.000 C 
ATOM     29  C   UNL     1       2.295   7.033  19.950  0.00  0.00    +0.000 C 
ENDBRANCH   1  24
TORSDOF 4
ENDMDL
MODEL 2
REMARK VINA RESULT:      -9.2      2.816      8.390
REMARK  Name = 
REMARK  6 active torsions:
REMARK  status: ('A' for Active; 'I' for Inactive)
REMARK    1  A    between atoms: C_1  and  O_2
REMARK    2  A    between atoms: O_2  and  C_3
REMARK    3  A    between atoms: C_7  and  C_8
REMARK    4  A    between atoms: C_12  and  C_13
REMARK    5  A    between atoms: C_13  and  C_14
REMARK    6  A    between atoms: C_21  and  C_22
REMARK                            x       y       z     vdW  Elec       q    Type
REMARK                         _______ _______ _______ _____ _____    ______ ____
ROOT
ATOM      1  C   UNL     1       3.093   5.773  18.810  0.00  0.00    +0.000 C 
ATOM      2  N   UNL     1       2.178   4.821  18.102  0.00  0.00    +0.000 NA
ATOM      3  C   UNL     1       1.782   4.022  19.032  0.00  0.00    +0.000 C 
ATOM      4  C   UNL     1       0.815   2.908  18.872  0.00  0.00    +0.000 C 
ATOM      5  C   UNL     1       2.415   4.317  20.343  0.00  0.00    +0.000 C 
ATOM      6  N   UNL     1       2.205   3.614  21.489  0.00  0.00    +0.000 N 
ATOM      7  N   UNL     1       3.202   5.332  20.243  0.00  0.00    +0.000 NA
ATOM      8  H   UNL     1       1.306   3.166  21.613  0.00  0.00    +0.000 HD
ATOM      9  H   UNL     1       2.535   4.100  22.318  0.00  0.00    +0.000 HD
ENDROOT
BRANCH   1  14
ATOM     10  C   UNL     1       1.253   9.019  19.826  0.00  0.00    +0.000 A 
ATOM     11  C   UNL     1       1.357   9.750  18.634  0.00  0.00    +0.000 A 
ATOM     12  C   UNL     1       2.054   9.246  17.531  0.00  0.00    +0.000 A 
ATOM     13  C   UNL     1       2.636   7.980  17.584  0.00  0.00    +0.000 A 
ATOM     14  C   UNL     1       2.538   7.200  18.743  0.00  0.00    +0.000 A 
ATOM     15  C   UNL     1       1.875   7.756  19.854  0.00  0.00    +0.000 A 
BRANCH  10  20
ATOM     16  C   UNL     1      -1.153  11.080  21.947  0.00  0.00    +0.000 A 
ATOM     17  C   UNL     1      -0.950  10.528  23.210  0.00  0.00    +0.000 A 
ATOM     18  C   UNL     1      -0.045   9.483  23.381  0.00  0.00    +0.000 A 
ATOM     19  C   UNL     1       0.662   8.980  22.285  0.00  0.00    +0.000 A 
ATOM     20  C   UNL     1       0.494   9.520  20.999  0.00  0.00    +0.000 A 
ATOM     21  C   UNL     1      -0.426  10.582  20.863  0.00  0.00    +0.000 A 
BRANCH  16  23
ATOM     22  C   UNL     1      -2.708  12.442  23.117  0.00  0.00    +0.000 C 
ATOM     23  O   UNL     1      -2.066  12.098  21.893  0.00  0.00    +0.000 OA
ENDBRANCH  16  23
ENDBRANCH  10  20
ENDBRANCH   1  14
BRANCH   1  24
ATOM     24  C   UNL     1       4.516   5.615  18.190  0.00  0.00    +0.000 C 
ATOM     25  C   UNL     1       4.596   4.574  17.059  0.00  0.00    +0.000 C 
ATOM     26  C   UNL     1       5.987   4.592  16.440  0.00  0.00    +0.000 C 
ATOM     27  O   UNL     1       6.979   4.312  17.426  0.00  0.00    +0.000 OA
ATOM     28  C   UNL     1       6.980   5.267  18.487  0.00  0.00    +0.000 C 
ATOM     29  C   UNL     1       5.632   5.305  19.203  0.00  0.00    +0.000 C 
ENDBRANCH   1  24
TORSDOF 4
ENDMDL
MODEL 3
REMARK VINA RESULT:      -9.1      3.564      8.514
REMARK  Name = 
REMARK  6 active torsions:
REMARK  status: ('A' for Active; 'I' for Inactive)
REMARK    1  A    between atoms: C_1  and  O_2
REMARK    2  A    between atoms: O_2  and  C_3
REMARK    3  A    between atoms: C_7  and  C_8
REMARK    4  A    between atoms: C_12  and  C_13
REMARK    5  A    between atoms: C_13  and  C_14
REMARK    6  A    between atoms: C_21  and  C_22
REMARK                            x       y       z     vdW  Elec       q    Type
REMARK                         _______ _______ _______ _____ _____    ______ ____
ROOT
ATOM      1  C   UNL     1       3.120   5.818  18.770  0.00  0.00    +0.000 C 
ATOM      2  N   UNL     1       4.329   5.780  19.654  0.00  0.00    +0.000 NA
ATOM      3  C   UNL     1       5.284   5.438  18.858  0.00  0.00    +0.000 C 
ATOM      4  C   UNL     1       6.716   5.298  19.223  0.00  0.00    +0.000 C 
ATOM      5  C   UNL     1       4.805   5.171  17.477  0.00  0.00    +0.000 C 
ATOM      6  N   UNL     1       5.589   4.764  16.443  0.00  0.00    +0.000 N 
ATOM      7  N   UNL     1       3.535   5.372  17.397  0.00  0.00    +0.000 NA
ATOM      8  H   UNL     1       6.560   5.051  16.441  0.00  0.00    +0.000 HD
ATOM      9  H   UNL     1       5.135   4.861  15.539  0.00  0.00    +0.000 HD
ENDROOT
BRANCH   1  14
ATOM     10  C   UNL     1       1.254   9.043  19.807  0.00  0.00    +0.000 A 
ATOM     11  C   UNL     1       1.332   9.773  18.611  0.00  0.00    +0.000 A 
ATOM     12  C   UNL     1       2.019   9.275  17.499  0.00  0.00    +0.000 A 
ATOM     13  C   UNL     1       2.618   8.016  17.547  0.00  0.00    +0.000 A 
ATOM     14  C   UNL     1       2.546   7.238  18.708  0.00  0.00    +0.000 A 
ATOM     15  C   UNL     1       1.893   7.788  19.828  0.00  0.00    +0.000 A 
BRANCH  10  20
ATOM     16  C   UNL     1      -1.064  11.148  21.980  0.00  0.00    +0.000 A 
ATOM     17  C   UNL     1      -0.913  10.534  23.222  0.00  0.00    +0.000 A 
ATOM     18  C   UNL     1      -0.072   9.432  23.361  0.00  0.00    +0.000 A 
ATOM     19  C   UNL     1       0.624   8.936  22.253  0.00  0.00    +0.000 A 
ATOM     20  C   UNL     1       0.506   9.538  20.990  0.00  0.00    +0.000 A 
ATOM     21  C   UNL     1      -0.350  10.655  20.887  0.00  0.00    +0.000 A 
BRANCH  16  23
ATOM     22  C   UNL     1      -2.908  12.264  22.981  0.00  0.00    +0.000 C 
ATOM     23  O   UNL     1      -1.918  12.218  21.958  0.00  0.00    +0.000 OA
ENDBRANCH  16  23
ENDBRANCH  10  20
ENDBRANCH   1  14
BRANCH   1  24
ATOM     24  C   UNL     1       2.113   4.749  19.295  0.00  0.00    +0.000 C 
ATOM     25  C   UNL     1       2.478   4.167  20.674  0.00  0.00    +0.000 C 
ATOM     26  C   UNL     1       1.370   3.237  21.149  0.00  0.00    +0.000 C 
ATOM     27  O   UNL     1       1.167   2.178  20.214  0.00  0.00    +0.000 OA
ATOM     28  C   UNL     1       0.789   2.654  18.922  0.00  0.00    +0.000 C 
ATOM     29  C   UNL     1       1.855   3.576  18.335  0.00  0.00    +0.000 C 
ENDBRANCH   1  24
TORSDOF 4
ENDMDL
MODEL 4
REMARK VINA RESULT:      -9.0      0.464      1.034
REMARK  Name = 
REMARK  6 active torsions:
REMARK  status: ('A' for Active; 'I' for Inactive)
REMARK    1  A    between atoms: C_1  and  O_2
REMARK    2  A    between atoms: O_2  and  C_3
REMARK    3  A    between atoms: C_7  and  C_8
REMARK    4  A    between atoms: C_12  and  C_13
REMARK    5  A    between atoms: C_13  and  C_14
REMARK    6  A    between atoms: C_21  and  C_22
REMARK                            x       y       z     vdW  Elec       q    Type
REMARK                         _______ _______ _______ _____ _____    ______ ____
ROOT
ATOM      1  C   UNL     1       3.517   5.438  18.778  0.00  0.00    +0.000 C 
ATOM      2  N   UNL     1       3.417   4.821  20.139  0.00  0.00    +0.000 NA
ATOM      3  C   UNL     1       2.583   3.852  19.979  0.00  0.00    +0.000 C 
ATOM      4  C   UNL     1       2.162   2.882  21.021  0.00  0.00    +0.000 C 
ATOM      5  C   UNL     1       2.041   3.789  18.598  0.00  0.00    +0.000 C 
ATOM      6  N   UNL     1       1.121   2.888  18.158  0.00  0.00    +0.000 N 
ATOM      7  N   UNL     1       2.560   4.717  17.871  0.00  0.00    +0.000 NA
ATOM      8  H   UNL     1       1.103   1.976  18.597  0.00  0.00    +0.000 HD
ATOM      9  H   UNL     1       1.052   2.854  17.146  0.00  0.00    +0.000 HD
ENDROOT
BRANCH   1  14
ATOM     10  C   UNL     1       6.445   4.944  16.300  0.00  0.00    +0.000 A 
ATOM     11  C   UNL     1       7.527   4.917  17.192  0.00  0.00    +0.000 A 
ATOM     12  C   UNL     1       7.341   5.111  18.565  0.00  0.00    +0.000 A 
ATOM     13  C   UNL     1       6.061   5.303  19.082  0.00  0.00    +0.000 A 
ATOM     14  C   UNL     1       4.946   5.313  18.236  0.00  0.00    +0.000 A 
ATOM     15  C   UNL     1       5.170   5.167  16.854  0.00  0.00    +0.000 A 
BRANCH  10  20
ATOM     16  C   UNL     1       5.933   3.537  12.795  0.00  0.00    +0.000 A 
ATOM     17  C   UNL     1       6.918   4.213  12.078  0.00  0.00    +0.000 A 
ATOM     18  C   UNL     1       7.744   5.133  12.720  0.00  0.00    +0.000 A 
ATOM     19  C   UNL     1       7.587   5.384  14.086  0.00  0.00    +0.000 A 
ATOM     20  C   UNL     1       6.613   4.712  14.843  0.00  0.00    +0.000 A 
ATOM     21  C   UNL     1       5.798   3.782  14.162  0.00  0.00    +0.000 A 
BRANCH  16  23
ATOM     22  C   UNL     1       4.116   3.220  11.296  0.00  0.00    +0.000 C 
ATOM     23  O   UNL     1       5.177   2.660  12.064  0.00  0.00    +0.000 OA
ENDBRANCH  16  23
ENDBRANCH  10  20
ENDBRANCH   1  14
BRANCH   1  24
ATOM     24  C   UNL     1       3.004   6.907  18.882  0.00  0.00    +0.000 C 
ATOM     25  C   UNL     1       2.007   7.144  20.031  0.00  0.00    +0.000 C 
ATOM     26  C   UNL     1       1.673   8.626  20.125  0.00  0.00    +0.000 C 
ATOM     27  O   UNL     1       1.116   9.095  18.897  0.00  0.00    +0.000 OA
ATOM     28  C   UNL     1       2.011   8.936  17.796  0.00  0.00    +0.000 C 
ATOM     29  C   UNL     1       2.386   7.470  17.591  0.00  0.00    +0.000 C 
ENDBRANCH   1  24
TORSDOF 4
ENDMDL
MODEL 5
REMARK VINA RESULT:      -8.9      1.979      3.534
REMARK  Name = 
REMARK  6 active torsions:
REMARK  status: ('A' for Active; 'I' for Inactive)
REMARK    1  A    between atoms: C_1  and  O_2
REMARK    2  A    between atoms: O_2  and  C_3
REMARK    3  A    between atoms: C_7  and  C_8
REMARK    4  A    between atoms: C_12  and  C_13
REMARK    5  A    between atoms: C_13  and  C_14
REMARK    6  A    between atoms: C_21  and  C_22
REMARK                            x       y       z     vdW  Elec       q    Type
REMARK                         _______ _______ _______ _____ _____    ______ ____
ROOT
ATOM      1  C   UNL     1       3.156   5.664  18.314  0.00  0.00    +0.000 C 
ATOM      2  N   UNL     1       2.459   6.698  17.483  0.00  0.00    +0.000 NA
ATOM      3  C   UNL     1       2.101   7.593  18.339  0.00  0.00    +0.000 C 
ATOM      4  C   UNL     1       1.406   8.867  18.029  0.00  0.00    +0.000 C 
ATOM      5  C   UNL     1       2.450   7.219  19.733  0.00  0.00    +0.000 C 
ATOM      6  N   UNL     1       2.163   7.961  20.837  0.00  0.00    +0.000 N 
ATOM      7  N   UNL     1       3.058   6.084  19.754  0.00  0.00    +0.000 NA
ATOM      8  H   UNL     1       2.112   8.966  20.733  0.00  0.00    +0.000 HD
ATOM      9  H   UNL     1       2.679   7.663  21.660  0.00  0.00    +0.000 HD
ENDROOT
BRANCH   1  14
ATOM     10  C   UNL     1       6.294   5.128  16.117  0.00  0.00    +0.000 A 
ATOM     11  C   UNL     1       7.296   5.168  17.098  0.00  0.00    +0.000 A 
ATOM     12  C   UNL     1       6.990   5.420  18.439  0.00  0.00    +0.000 A 
ATOM     13  C   UNL     1       5.667   5.604  18.837  0.00  0.00    +0.000 A 
ATOM     14  C   UNL     1       4.628   5.549  17.901  0.00  0.00    +0.000 A 
ATOM     15  C   UNL     1       4.972   5.345  16.551  0.00  0.00    +0.000 A 
BRANCH  10  20
ATOM     16  C   UNL     1       6.085   3.578  12.641  0.00  0.00    +0.000 A 
ATOM     17  C   UNL     1       7.137   4.217  11.990  0.00  0.00    +0.000 A 
ATOM     18  C   UNL     1       7.912   5.158  12.664  0.00  0.00    +0.000 A 
ATOM     19  C   UNL     1       7.634   5.467  14.000  0.00  0.00    +0.000 A 
ATOM     20  C   UNL     1       6.590   4.833  14.693  0.00  0.00    +0.000 A 
ATOM     21  C   UNL     1       5.830   3.881  13.980  0.00  0.00    +0.000 A 
BRANCH  16  23
ATOM     22  C   UNL     1       4.180   3.141  11.291  0.00  0.00    +0.000 C 
ATOM     23  O   UNL     1       5.389   2.676  11.882  0.00  0.00    +0.000 OA
ENDBRANCH  16  23
ENDBRANCH  10  20
ENDBRANCH   1  14
BRANCH   1  24
ATOM     24  C   UNL     1       2.355   4.332  18.187  0.00  0.00    +0.000 C 
ATOM     25  C   UNL     1       1.364   4.084  19.341  0.00  0.00    +0.000 C 
ATOM     26  C   UNL     1       0.546   2.832  19.055  0.00  0.00    +0.000 C 
ATOM     27  O   UNL     1       1.399   1.699  18.896  0.00  0.00    +0.000 OA
ATOM     28  C   UNL     1       2.319   1.854  17.816  0.00  0.00    +0.000 C 
ATOM     29  C   UNL     1       3.218   3.071  18.021  0.00  0.00    +0.000 C 
ENDBRANCH   1  24
TORSDOF 4
ENDMDL
MODEL 6
REMARK VINA RESULT:      -8.6      2.674      8.009
REMARK  Name = 
REMARK  6 active torsions:
REMARK  status: ('A' for Active; 'I' for Inactive)
REMARK    1  A    between atoms: C_1  and  O_2
REMARK    2  A    between atoms: O_2  and  C_3
REMARK    3  A    between atoms: C_7  and  C_8
REMARK    4  A    between atoms: C_12  and  C_13
REMARK    5  A    between atoms: C_13  and  C_14
REMARK    6  A    between atoms: C_21  and  C_22
REMARK                            x       y       z     vdW  Elec       q    Type
REMARK                         _______ _______ _______ _____ _____    ______ ____
ROOT
ATOM      1  C   UNL     1       3.120   5.138  19.076  0.00  0.00    +0.000 C 
ATOM      2  N   UNL     1       2.149   4.224  18.392  0.00  0.00    +0.000 NA
ATOM      3  C   UNL     1       1.646   3.529  19.354  0.00  0.00    +0.000 C 
ATOM      4  C   UNL     1       0.588   2.497  19.224  0.00  0.00    +0.000 C 
ATOM      5  C   UNL     1       2.253   3.856  20.670  0.00  0.00    +0.000 C 
ATOM      6  N   UNL     1       1.936   3.256  21.849  0.00  0.00    +0.000 N 
ATOM      7  N   UNL     1       3.133   4.788  20.538  0.00  0.00    +0.000 NA
ATOM      8  H   UNL     1       0.996   2.899  21.961  0.00  0.00    +0.000 HD
ATOM      9  H   UNL     1       2.277   3.766  22.658  0.00  0.00    +0.000 HD
ENDROOT
BRANCH   1  14
ATOM     10  C   UNL     1       1.528   8.590  19.787  0.00  0.00    +0.000 A 
ATOM     11  C   UNL     1       1.762   9.231  18.561  0.00  0.00    +0.000 A 
ATOM     12  C   UNL     1       2.470   8.598  17.534  0.00  0.00    +0.000 A 
ATOM     13  C   UNL     1       2.931   7.292  17.697  0.00  0.00    +0.000 A 
ATOM     14  C   UNL     1       2.700   6.601  18.891  0.00  0.00    +0.000 A 
ATOM     15  C   UNL     1       2.031   7.282  19.926  0.00  0.00    +0.000 A 
BRANCH  10  20
ATOM     16  C   UNL     1      -0.857  10.931  21.620  0.00  0.00    +0.000 A 
ATOM     17  C   UNL     1      -0.712  10.499  22.936  0.00  0.00    +0.000 A 
ATOM     18  C   UNL     1       0.146   9.444  23.237  0.00  0.00    +0.000 A 
ATOM     19  C   UNL     1       0.866   8.812  22.218  0.00  0.00    +0.000 A 
ATOM     20  C   UNL     1       0.755   9.229  20.881  0.00  0.00    +0.000 A 
ATOM     21  C   UNL     1      -0.119  10.305  20.614  0.00  0.00    +0.000 A 
BRANCH  16  23
ATOM     22  C   UNL     1      -2.087  12.274  20.094  0.00  0.00    +0.000 C 
ATOM     23  O   UNL     1      -1.729  11.971  21.439  0.00  0.00    +0.000 OA
ENDBRANCH  16  23
ENDBRANCH  10  20
ENDBRANCH   1  14
BRANCH   1  24
ATOM     24  C   UNL     1       4.545   4.812  18.532  0.00  0.00    +0.000 C 
ATOM     25  C   UNL     1       5.646   5.752  19.056  0.00  0.00    +0.000 C 
ATOM     26  C   UNL     1       7.007   5.270  18.571  0.00  0.00    +0.000 C 
ATOM     27  O   UNL     1       7.045   5.225  17.145  0.00  0.00    +0.000 OA
ATOM     28  C   UNL     1       6.068   4.340  16.599  0.00  0.00    +0.000 C 
ATOM     29  C   UNL     1       4.655   4.756  16.999  0.00  0.00    +0.000 C 
ENDBRANCH   1  24
TORSDOF 4
ENDMDL
MODEL 7
REMARK VINA RESULT:      -8.3      3.553      8.229
REMARK  Name = 
REMARK  6 active torsions:
REMARK  status: ('A' for Active; 'I' for Inactive)
REMARK    1  A    between atoms: C_1  and  O_2
REMARK    2  A    between atoms: O_2  and  C_3
REMARK    3  A    between atoms: C_7  and  C_8
REMARK    4  A    between atoms: C_12  and  C_13
REMARK    5  A    between atoms: C_13  and  C_14
REMARK    6  A    between atoms: C_21  and  C_22
REMARK                            x       y       z     vdW  Elec       q    Type
REMARK                         _______ _______ _______ _____ _____    ______ ____
ROOT
ATOM      1  C   UNL     1       3.693   5.596  18.766  0.00  0.00    +0.000 C 
ATOM      2  N   UNL     1       4.840   5.726  19.721  0.00  0.00    +0.000 NA
ATOM      3  C   UNL     1       5.876   5.480  18.995  0.00  0.00    +0.000 C 
ATOM      4  C   UNL     1       7.289   5.523  19.449  0.00  0.00    +0.000 C 
ATOM      5  C   UNL     1       5.521   5.123  17.597  0.00  0.00    +0.000 C 
ATOM      6  N   UNL     1       6.412   4.787  16.625  0.00  0.00    +0.000 N 
ATOM      7  N   UNL     1       4.244   5.167  17.435  0.00  0.00    +0.000 NA
ATOM      8  H   UNL     1       7.339   5.188  16.672  0.00  0.00    +0.000 HD
ATOM      9  H   UNL     1       6.007   4.805  15.694  0.00  0.00    +0.000 HD
ENDROOT
BRANCH   1  14
ATOM     10  C   UNL     1       1.540   8.684  19.650  0.00  0.00    +0.000 A 
ATOM     11  C   UNL     1       1.465   9.305  18.395  0.00  0.00    +0.000 A 
ATOM     12  C   UNL     1       2.137   8.783  17.285  0.00  0.00    +0.000 A 
ATOM     13  C   UNL     1       2.875   7.605  17.398  0.00  0.00    +0.000 A 
ATOM     14  C   UNL     1       2.960   6.935  18.623  0.00  0.00    +0.000 A 
ATOM     15  C   UNL     1       2.316   7.512  19.734  0.00  0.00    +0.000 A 
BRANCH  10  20
ATOM     16  C   UNL     1      -0.803  10.781  21.805  0.00  0.00    +0.000 A 
ATOM     17  C   UNL     1      -0.572  10.243  23.069  0.00  0.00    +0.000 A 
ATOM     18  C   UNL     1       0.331   9.195  23.231  0.00  0.00    +0.000 A 
ATOM     19  C   UNL     1       1.009   8.676  22.123  0.00  0.00    +0.000 A 
ATOM     20  C   UNL     1       0.812   9.203  20.836  0.00  0.00    +0.000 A 
ATOM     21  C   UNL     1      -0.105  10.268  20.710  0.00  0.00    +0.000 A 
BRANCH  16  23
ATOM     22  C   UNL     1      -2.046  12.411  23.006  0.00  0.00    +0.000 C 
ATOM     23  O   UNL     1      -1.712  11.803  21.762  0.00  0.00    +0.000 OA
ENDBRANCH  16  23
ENDBRANCH  10  20
ENDBRANCH   1  14
BRANCH   1  24
ATOM     24  C   UNL     1       2.788   4.427  19.265  0.00  0.00    +0.000 C 
ATOM     25  C   UNL     1       1.586   4.129  18.349  0.00  0.00    +0.000 C 
ATOM     26  C   UNL     1       0.849   2.896  18.854  0.00  0.00    +0.000 C 
ATOM     27  O   UNL     1       0.400   3.092  20.194  0.00  0.00    +0.000 OA
ATOM     28  C   UNL     1       1.475   3.338  21.100  0.00  0.00    +0.000 C 
ATOM     29  C   UNL     1       2.265   4.582  20.703  0.00  0.00    +0.000 C 
ENDBRANCH   1  24
TORSDOF 4
ENDMDL
MODEL 8
REMARK VINA RESULT:      -8.0      1.171      1.716
REMARK  Name = 
REMARK  6 active torsions:
REMARK  status: ('A' for Active; 'I' for Inactive)
REMARK    1  A    between atoms: C_1  and  O_2
REMARK    2  A    between atoms: O_2  and  C_3
REMARK    3  A    between atoms: C_7  and  C_8
REMARK    4  A    between atoms: C_12  and  C_13
REMARK    5  A    between atoms: C_13  and  C_14
REMARK    6  A    between atoms: C_21  and  C_22
REMARK                            x       y       z     vdW  Elec       q    Type
REMARK                         _______ _______ _______ _____ _____    ______ ____
ROOT
ATOM      1  C   UNL     1       2.924   5.105  19.040  0.00  0.00    +0.000 C 
ATOM      2  N   UNL     1       2.844   4.635  20.460  0.00  0.00    +0.000 NA
ATOM      3  C   UNL     1       2.167   3.540  20.386  0.00  0.00    +0.000 C 
ATOM      4  C   UNL     1       1.837   2.640  21.519  0.00  0.00    +0.000 C 
ATOM      5  C   UNL     1       1.711   3.245  19.003  0.00  0.00    +0.000 C 
ATOM      6  N   UNL     1       0.954   2.174  18.641  0.00  0.00    +0.000 N 
ATOM      7  N   UNL     1       2.128   4.153  18.191  0.00  0.00    +0.000 NA
ATOM      8  H   UNL     1       1.045   1.324  19.183  0.00  0.00    +0.000 HD
ATOM      9  H   UNL     1       0.943   2.018  17.638  0.00  0.00    +0.000 HD
ENDROOT
BRANCH   1  14
ATOM     10  C   UNL     1       6.006   4.875  16.715  0.00  0.00    +0.000 A 
ATOM     11  C   UNL     1       7.039   5.017  17.653  0.00  0.00    +0.000 A 
ATOM     12  C   UNL     1       6.766   5.242  19.006  0.00  0.00    +0.000 A 
ATOM     13  C   UNL     1       5.447   5.296  19.459  0.00  0.00    +0.000 A 
ATOM     14  C   UNL     1       4.382   5.134  18.566  0.00  0.00    +0.000 A 
ATOM     15  C   UNL     1       4.688   4.961  17.203  0.00  0.00    +0.000 A 
BRANCH  10  20
ATOM     16  C   UNL     1       7.524   5.114  13.227  0.00  0.00    +0.000 A 
ATOM     17  C   UNL     1       6.787   4.153  12.537  0.00  0.00    +0.000 A 
ATOM     18  C   UNL     1       5.805   3.416  13.197  0.00  0.00    +0.000 A 
ATOM     19  C   UNL     1       5.557   3.637  14.555  0.00  0.00    +0.000 A 
ATOM     20  C   UNL     1       6.271   4.606  15.279  0.00  0.00    +0.000 A 
ATOM     21  C   UNL     1       7.253   5.338  14.578  0.00  0.00    +0.000 A 
BRANCH  16  23
ATOM     22  C   UNL     1       7.990   6.479  11.339  0.00  0.00    +0.000 C 
ATOM     23  O   UNL     1       8.464   5.774  12.482  0.00  0.00    +0.000 OA
ENDBRANCH  16  23
ENDBRANCH  10  20
ENDBRANCH   1  14
BRANCH   1  24
ATOM     24  C   UNL     1       2.201   6.484  18.953  0.00  0.00    +0.000 C 
ATOM     25  C   UNL     1       2.819   7.454  17.929  0.00  0.00    +0.000 C 
ATOM     26  C   UNL     1       1.965   8.710  17.831  0.00  0.00    +0.000 C 
ATOM     27  O   UNL     1       1.863   9.350  19.102  0.00  0.00    +0.000 OA
ATOM     28  C   UNL     1       1.261   8.511  20.088  0.00  0.00    +0.000 C 
ATOM     29  C   UNL     1       2.064   7.228  20.292  0.00  0.00    +0.000 C 
ENDBRANCH   1  24
TORSDOF 4
ENDMDL
MODEL 9
REMARK VINA RESULT:      -7.9      1.195      1.269
REMARK  Name = 
REMARK  6 active torsions:
REMARK  status: ('A' for Active; 'I' for Inactive)
REMARK    1  A    between atoms: C_1  and  O_2
REMARK    2  A    between atoms: O_2  and  C_3
REMARK    3  A    between atoms: C_7  and  C_8
REMARK    4  A    between atoms: C_12  and  C_13
REMARK    5  A    between atoms: C_13  and  C_14
REMARK    6  A    between atoms: C_21  and  C_22
REMARK                            x       y       z     vdW  Elec       q    Type
REMARK                         _______ _______ _______ _____ _____    ______ ____
ROOT
ATOM      1  C   UNL     1       4.167   4.368  18.653  0.00  0.00    +0.000 C 
ATOM      2  N   UNL     1       4.665   3.789  19.943  0.00  0.00    +0.000 NA
ATOM      3  C   UNL     1       4.408   2.530  19.836  0.00  0.00    +0.000 C 
ATOM      4  C   UNL     1       4.745   1.484  20.833  0.00  0.00    +0.000 C 
ATOM      5  C   UNL     1       3.700   2.198  18.573  0.00  0.00    +0.000 C 
ATOM      6  N   UNL     1       3.280   0.955  18.216  0.00  0.00    +0.000 N 
ATOM      7  N   UNL     1       3.531   3.259  17.863  0.00  0.00    +0.000 NA
ATOM      8  H   UNL     1       3.806   0.160  18.556  0.00  0.00    +0.000 HD
ATOM      9  H   UNL     1       3.033   0.888  17.233  0.00  0.00    +0.000 HD
ENDROOT
BRANCH   1  14
ATOM     10  C   UNL     1       6.552   5.159  15.714  0.00  0.00    +0.000 A 
ATOM     11  C   UNL     1       7.513   5.939  16.374  0.00  0.00    +0.000 A 
ATOM     12  C   UNL     1       7.381   6.263  17.728  0.00  0.00    +0.000 A 
ATOM     13  C   UNL     1       6.298   5.783  18.464  0.00  0.00    +0.000 A 
ATOM     14  C   UNL     1       5.325   4.980  17.858  0.00  0.00    +0.000 A 
ATOM     15  C   UNL     1       5.458   4.715  16.482  0.00  0.00    +0.000 A 
BRANCH  10  20
ATOM     16  C   UNL     1       5.925   3.433  12.373  0.00  0.00    +0.000 A 
ATOM     17  C   UNL     1       6.923   3.996  11.580  0.00  0.00    +0.000 A 
ATOM     18  C   UNL     1       7.794   4.943  12.115  0.00  0.00    +0.000 A 
ATOM     19  C   UNL     1       7.670   5.333  13.452  0.00  0.00    +0.000 A 
ATOM     20  C   UNL     1       6.685   4.777  14.285  0.00  0.00    +0.000 A 
ATOM     21  C   UNL     1       5.824   3.818  13.712  0.00  0.00    +0.000 A 
BRANCH  16  23
ATOM     22  C   UNL     1       3.938   3.023  11.138  0.00  0.00    +0.000 C 
ATOM     23  O   UNL     1       5.124   2.519  11.744  0.00  0.00    +0.000 OA
ENDBRANCH  16  23
ENDBRANCH  10  20
ENDBRANCH   1  14
BRANCH   1  24
ATOM     24  C   UNL     1       3.027   5.377  18.994  0.00  0.00    +0.000 C 
ATOM     25  C   UNL     1       3.295   6.813  18.506  0.00  0.00    +0.000 C 
ATOM     26  C   UNL     1       2.073   7.682  18.771  0.00  0.00    +0.000 C 
ATOM     27  O   UNL     1       1.757   7.694  20.163  0.00  0.00    +0.000 OA
ATOM     28  C   UNL     1       1.463   6.392  20.668  0.00  0.00    +0.000 C 
ATOM     29  C   UNL     1       2.644   5.443  20.482  0.00  0.00    +0.000 C 
ENDBRANCH   1  24
TORSDOF 4
ENDMDL
