MODEL 1
REMARK VINA RESULT:      -7.3      0.000      0.000
REMARK  Name = 
REMARK  8 active torsions:
REMARK  status: ('A' for Active; 'I' for Inactive)
REMARK    1  A    between atoms: C_1  and  C_2
REMARK    2  A    between atoms: C_4  and  C_5
REMARK    3  A    between atoms: C_10  and  C_12
REMARK    4  A    between atoms: C_12  and  N_13
REMARK    5  A    between atoms: N_13  and  C_14
REMARK    6  A    between atoms: C_14  and  C_15
REMARK    7  A    between atoms: C_15  and  O_17
REMARK    8  A    between atoms: C_19  and  C_20
REMARK                            x       y       z     vdW  Elec       q    Type
REMARK                         _______ _______ _______ _____ _____    ______ ____
ROOT
ATOM      1  C   UNL     1       0.853   8.427  21.613  0.00  0.00    +0.000 C 
ATOM      2  C   UNL     1       1.514   7.819  20.419  0.00  0.00    +0.000 A 
ATOM      3  S   UNL     1       1.933   6.151  20.487  0.00  0.00    +0.000 S 
ATOM      4  C   UNL     1       2.295   6.084  18.821  0.00  0.00    +0.000 A 
ATOM      5  C   UNL     1       2.250   7.350  18.273  0.00  0.00    +0.000 A 
ATOM      6  C   UNL     1       1.819   8.377  19.188  0.00  0.00    +0.000 A 
ENDROOT
BRANCH   6   7
ATOM      7  C   UNL     1       1.645   9.765  18.740  0.00  0.00    +0.000 C 
ATOM      8  O   UNL     1       2.007  10.082  17.618  0.00  0.00    +0.000 OA
ATOM      9  N   UNL     1       1.167  10.625  19.705  0.00  0.00    +0.000 N 
ATOM     10  C   UNL     1       1.015  11.963  19.444  0.00  0.00    +0.000 A 
ATOM     11  N   UNL     1       1.086  12.590  18.299  0.00  0.00    +0.000 NA
ATOM     12  C   UNL     1       0.942  13.948  18.515  0.00  0.00    +0.000 A 
ATOM     13  C   UNL     1       0.756  14.296  19.829  0.00  0.00    +0.000 A 
ATOM     14 CL   UNL     1       0.582  15.865  20.487  0.00  0.00    +0.000 Cl
ATOM     15  S   UNL     1       0.716  12.922  20.827  0.00  0.00    +0.000 S 
ATOM     16  H   UNL     1       1.076  10.327  20.662  0.00  0.00    +0.000 HD
ENDBRANCH   6   7
BRANCH   4  17
ATOM     17  C   UNL     1       2.554   4.808  18.074  0.00  0.00    +0.000 C 
ATOM     18  C   UNL     1       1.386   3.813  18.172  0.00  0.00    +0.000 C 
ATOM     19  C   UNL     1       2.008   2.497  17.742  0.00  0.00    +0.000 C 
ATOM     20  C   UNL     1       3.452   2.599  18.217  0.00  0.00    +0.000 C 
ATOM     21  N   UNL     1       3.703   4.009  18.504  0.00  0.00    +0.000 N 
ATOM     22  C   UNL     1       5.004   4.374  18.797  0.00  0.00    +0.000 C 
ATOM     23  O   UNL     1       5.868   3.512  18.990  0.00  0.00    +0.000 OA
BRANCH  22  24
ATOM     24  C   UNL     1       5.358   5.865  18.927  0.00  0.00    +0.000 C 
BRANCH  24  25
ATOM     25  N   UNL     1       5.749   6.486  17.629  0.00  0.00    +0.000 NA
ATOM     26  H   UNL     1       5.541   7.490  17.731  0.00  0.00    +0.000 HD
BRANCH  25  27
ATOM     27  C   UNL     1       7.221   6.387  17.415  0.00  0.00    +0.000 C 
BRANCH  27  28
ATOM     28  C   UNL     1       7.498   5.282  16.395  0.00  0.00    +0.000 C 
ATOM     29  O   UNL     1       7.357   5.392  15.188  0.00  0.00    +0.000 OA
BRANCH  28  30
ATOM     30  O   UNL     1       7.984   4.161  16.992  0.00  0.00    +0.000 OA
ATOM     31  H   UNL     1       7.479   3.403  16.615  0.00  0.00    +0.000 HD
ENDBRANCH  28  30
ENDBRANCH  27  28
ENDBRANCH  25  27
ENDBRANCH  24  25
ENDBRANCH  22  24
ENDBRANCH   4  17
TORSDOF 7
ENDMDL
MODEL 2
REMARK VINA RESULT:      -7.3      2.728      3.629
REMARK  Name = 
REMARK  8 active torsions:
REMARK  status: ('A' for Active; 'I' for Inactive)
REMARK    1  A    between atoms: C_1  and  C_2
REMARK    2  A    between atoms: C_4  and  C_5
REMARK    3  A    between atoms: C_10  and  C_12
REMARK    4  A    between atoms: C_12  and  N_13
REMARK    5  A    between atoms: N_13  and  C_14
REMARK    6  A    between atoms: C_14  and  C_15
REMARK    7  A    between atoms: C_15  and  O_17
REMARK    8  A    between atoms: C_19  and  C_20
REMARK                            x       y       z     vdW  Elec       q    Type
REMARK                         _______ _______ _______ _____ _____    ______ ____
ROOT
ATOM      1  C   UNL     1       1.976   4.124  20.738  0.00  0.00    +0.000 C 
ATOM      2  C   UNL     1       2.841   4.874  19.779  0.00  0.00    +0.000 A 
ATOM      3  S   UNL     1       3.991   3.984  18.859  0.00  0.00    +0.000 S 
ATOM      4  C   UNL     1       4.339   5.313  17.845  0.00  0.00    +0.000 A 
ATOM      5  C   UNL     1       3.706   6.446  18.313  0.00  0.00    +0.000 A 
ATOM      6  C   UNL     1       2.847   6.220  19.449  0.00  0.00    +0.000 A 
ENDROOT
BRANCH   6   7
ATOM      7  C   UNL     1       2.044   7.310  20.019  0.00  0.00    +0.000 C 
ATOM      8  O   UNL     1       1.552   7.174  21.128  0.00  0.00    +0.000 OA
ATOM      9  N   UNL     1       1.836   8.376  19.171  0.00  0.00    +0.000 N 
ATOM     10  C   UNL     1       1.053   9.436  19.550  0.00  0.00    +0.000 A 
ATOM     11  N   UNL     1       0.568   9.719  20.730  0.00  0.00    +0.000 NA
ATOM     12  C   UNL     1      -0.229  10.844  20.636  0.00  0.00    +0.000 A 
ATOM     13  C   UNL     1      -0.309  11.378  19.376  0.00  0.00    +0.000 A 
ATOM     14 CL   UNL     1      -1.222  12.731  18.862  0.00  0.00    +0.000 Cl
ATOM     15  S   UNL     1       0.649  10.504  18.278  0.00  0.00    +0.000 S 
ATOM     16  H   UNL     1       2.112   8.327  18.205  0.00  0.00    +0.000 HD
ENDBRANCH   6   7
BRANCH   4  17
ATOM     17  C   UNL     1       5.162   5.214  16.594  0.00  0.00    +0.000 C 
ATOM     18  C   UNL     1       4.465   4.410  15.484  0.00  0.00    +0.000 C 
ATOM     19  C   UNL     1       5.596   4.080  14.526  0.00  0.00    +0.000 C 
ATOM     20  C   UNL     1       6.815   3.944  15.429  0.00  0.00    +0.000 C 
ATOM     21  N   UNL     1       6.465   4.556  16.707  0.00  0.00    +0.000 N 
ATOM     22  C   UNL     1       7.476   4.700  17.639  0.00  0.00    +0.000 C 
ATOM     23  O   UNL     1       8.573   4.159  17.462  0.00  0.00    +0.000 OA
BRANCH  22  24
ATOM     24  C   UNL     1       7.209   5.499  18.926  0.00  0.00    +0.000 C 
BRANCH  24  25
ATOM     25  N   UNL     1       8.070   6.710  19.047  0.00  0.00    +0.000 NA
ATOM     26  H   UNL     1       9.034   6.376  18.900  0.00  0.00    +0.000 HD
BRANCH  25  27
ATOM     27  C   UNL     1       7.791   7.673  17.944  0.00  0.00    +0.000 C 
BRANCH  27  28
ATOM     28  C   UNL     1       8.352   9.041  18.331  0.00  0.00    +0.000 C 
ATOM     29  O   UNL     1       9.155   9.242  19.228  0.00  0.00    +0.000 OA
BRANCH  28  30
ATOM     30  O   UNL     1       7.891  10.021  17.509  0.00  0.00    +0.000 OA
ATOM     31  H   UNL     1       7.059  10.360  17.918  0.00  0.00    +0.000 HD
ENDBRANCH  28  30
ENDBRANCH  27  28
ENDBRANCH  25  27
ENDBRANCH  24  25
ENDBRANCH  22  24
ENDBRANCH   4  17
TORSDOF 7
ENDMDL
MODEL 3
REMARK VINA RESULT:      -7.2      1.149      1.218
REMARK  Name = 
REMARK  8 active torsions:
REMARK  status: ('A' for Active; 'I' for Inactive)
REMARK    1  A    between atoms: C_1  and  C_2
REMARK    2  A    between atoms: C_4  and  C_5
REMARK    3  A    between atoms: C_10  and  C_12
REMARK    4  A    between atoms: C_12  and  N_13
REMARK    5  A    between atoms: N_13  and  C_14
REMARK    6  A    between atoms: C_14  and  C_15
REMARK    7  A    between atoms: C_15  and  O_17
REMARK    8  A    between atoms: C_19  and  C_20
REMARK                            x       y       z     vdW  Elec       q    Type
REMARK                         _______ _______ _______ _____ _____    ______ ____
ROOT
ATOM      1  C   UNL     1       0.873   8.374  21.566  0.00  0.00    +0.000 C 
ATOM      2  C   UNL     1       1.548   7.697  20.418  0.00  0.00    +0.000 A 
ATOM      3  S   UNL     1       1.880   6.014  20.553  0.00  0.00    +0.000 S 
ATOM      4  C   UNL     1       2.302   5.877  18.904  0.00  0.00    +0.000 A 
ATOM      5  C   UNL     1       2.341   7.125  18.318  0.00  0.00    +0.000 A 
ATOM      6  C   UNL     1       1.927   8.201  19.184  0.00  0.00    +0.000 A 
ENDROOT
BRANCH   6   7
ATOM      7  C   UNL     1       1.840   9.580  18.688  0.00  0.00    +0.000 C 
ATOM      8  O   UNL     1       2.215   9.834  17.554  0.00  0.00    +0.000 OA
ATOM      9  N   UNL     1       1.422  10.503  19.624  0.00  0.00    +0.000 N 
ATOM     10  C   UNL     1       1.355  11.838  19.316  0.00  0.00    +0.000 A 
ATOM     11  N   UNL     1       1.461  12.419  18.150  0.00  0.00    +0.000 NA
ATOM     12  C   UNL     1       1.405  13.789  18.319  0.00  0.00    +0.000 A 
ATOM     13  C   UNL     1       1.248  14.194  19.620  0.00  0.00    +0.000 A 
ATOM     14 CL   UNL     1       1.179  15.794  20.223  0.00  0.00    +0.000 Cl
ATOM     15  S   UNL     1       1.126  12.861  20.666  0.00  0.00    +0.000 S 
ATOM     16  H   UNL     1       1.318  10.245  20.590  0.00  0.00    +0.000 HD
ENDBRANCH   6   7
BRANCH   4  17
ATOM     17  C   UNL     1       2.524   4.566  18.207  0.00  0.00    +0.000 C 
ATOM     18  C   UNL     1       1.256   3.699  18.150  0.00  0.00    +0.000 C 
ATOM     19  C   UNL     1       1.790   2.317  17.816  0.00  0.00    +0.000 C 
ATOM     20  C   UNL     1       3.159   2.281  18.483  0.00  0.00    +0.000 C 
ATOM     21  N   UNL     1       3.515   3.662  18.794  0.00  0.00    +0.000 N 
ATOM     22  C   UNL     1       4.795   3.898  19.260  0.00  0.00    +0.000 C 
ATOM     23  O   UNL     1       5.531   2.956  19.574  0.00  0.00    +0.000 OA
BRANCH  22  24
ATOM     24  C   UNL     1       5.282   5.347  19.429  0.00  0.00    +0.000 C 
BRANCH  24  25
ATOM     25  N   UNL     1       6.760   5.448  19.597  0.00  0.00    +0.000 NA
ATOM     26  H   UNL     1       7.050   4.549  20.009  0.00  0.00    +0.000 HD
BRANCH  25  27
ATOM     27  C   UNL     1       7.440   5.538  18.274  0.00  0.00    +0.000 C 
BRANCH  27  28
ATOM     28  C   UNL     1       7.742   7.007  17.975  0.00  0.00    +0.000 C 
ATOM     29  O   UNL     1       7.279   7.641  17.041  0.00  0.00    +0.000 OA
BRANCH  28  30
ATOM     30  O   UNL     1       8.554   7.552  18.919  0.00  0.00    +0.000 OA
ATOM     31  H   UNL     1       8.126   7.376  19.791  0.00  0.00    +0.000 HD
ENDBRANCH  28  30
ENDBRANCH  27  28
ENDBRANCH  25  27
ENDBRANCH  24  25
ENDBRANCH  22  24
ENDBRANCH   4  17
TORSDOF 7
ENDMDL
MODEL 4
REMARK VINA RESULT:      -7.0      2.744      4.355
REMARK  Name = 
REMARK  8 active torsions:
REMARK  status: ('A' for Active; 'I' for Inactive)
REMARK    1  A    between atoms: C_1  and  C_2
REMARK    2  A    between atoms: C_4  and  C_5
REMARK    3  A    between atoms: C_10  and  C_12
REMARK    4  A    between atoms: C_12  and  N_13
REMARK    5  A    between atoms: N_13  and  C_14
REMARK    6  A    between atoms: C_14  and  C_15
REMARK    7  A    between atoms: C_15  and  O_17
REMARK    8  A    between atoms: C_19  and  C_20
REMARK                            x       y       z     vdW  Elec       q    Type
REMARK                         _______ _______ _______ _____ _____    ______ ____
ROOT
ATOM      1  C   UNL     1       1.684  10.125  17.981  0.00  0.00    +0.000 C 
ATOM      2  C   UNL     1       1.939   8.771  18.559  0.00  0.00    +0.000 A 
ATOM      3  S   UNL     1       2.930   7.684  17.666  0.00  0.00    +0.000 S 
ATOM      4  C   UNL     1       3.044   6.583  18.965  0.00  0.00    +0.000 A 
ATOM      5  C   UNL     1       2.207   6.970  19.991  0.00  0.00    +0.000 A 
ATOM      6  C   UNL     1       1.538   8.227  19.769  0.00  0.00    +0.000 A 
ENDROOT
BRANCH   6   7
ATOM      7  C   UNL     1       0.670   8.815  20.797  0.00  0.00    +0.000 C 
ATOM      8  O   UNL     1      -0.091   8.094  21.423  0.00  0.00    +0.000 OA
ATOM      9  N   UNL     1       0.733  10.189  20.886  0.00  0.00    +0.000 N 
ATOM     10  C   UNL     1      -0.069  10.876  21.762  0.00  0.00    +0.000 A 
ATOM     11  N   UNL     1      -0.821  10.413  22.725  0.00  0.00    +0.000 NA
ATOM     12  C   UNL     1      -1.514  11.459  23.304  0.00  0.00    +0.000 A 
ATOM     13  C   UNL     1      -1.249  12.687  22.755  0.00  0.00    +0.000 A 
ATOM     14 CL   UNL     1      -1.937  14.197  23.172  0.00  0.00    +0.000 Cl
ATOM     15  S   UNL     1      -0.089  12.569  21.520  0.00  0.00    +0.000 S 
ATOM     16  H   UNL     1       1.241  10.727  20.205  0.00  0.00    +0.000 HD
ENDBRANCH   6   7
BRANCH   4  17
ATOM     17  C   UNL     1       3.981   5.410  18.985  0.00  0.00    +0.000 C 
ATOM     18  C   UNL     1       5.430   5.800  18.650  0.00  0.00    +0.000 C 
ATOM     19  C   UNL     1       6.082   4.471  18.312  0.00  0.00    +0.000 C 
ATOM     20  C   UNL     1       4.955   3.656  17.690  0.00  0.00    +0.000 C 
ATOM     21  N   UNL     1       3.706   4.325  18.042  0.00  0.00    +0.000 N 
ATOM     22  C   UNL     1       2.528   3.675  17.725  0.00  0.00    +0.000 C 
ATOM     23  O   UNL     1       2.541   2.668  17.009  0.00  0.00    +0.000 OA
BRANCH  22  24
ATOM     24  C   UNL     1       1.192   4.244  18.233  0.00  0.00    +0.000 C 
BRANCH  24  25
ATOM     25  N   UNL     1       0.825   3.744  19.589  0.00  0.00    +0.000 NA
ATOM     26  H   UNL     1      -0.172   3.489  19.526  0.00  0.00    +0.000 HD
BRANCH  25  27
ATOM     27  C   UNL     1       1.557   2.486  19.907  0.00  0.00    +0.000 C 
BRANCH  27  28
ATOM     28  C   UNL     1       2.380   2.702  21.177  0.00  0.00    +0.000 C 
ATOM     29  O   UNL     1       1.917   2.950  22.279  0.00  0.00    +0.000 OA
BRANCH  28  30
ATOM     30  O   UNL     1       3.708   2.525  20.948  0.00  0.00    +0.000 OA
ATOM     31  H   UNL     1       3.851   2.698  19.987  0.00  0.00    +0.000 HD
ENDBRANCH  28  30
ENDBRANCH  27  28
ENDBRANCH  25  27
ENDBRANCH  24  25
ENDBRANCH  22  24
ENDBRANCH   4  17
TORSDOF 7
ENDMDL
MODEL 5
REMARK VINA RESULT:      -7.0      3.973      8.907
REMARK  Name = 
REMARK  8 active torsions:
REMARK  status: ('A' for Active; 'I' for Inactive)
REMARK    1  A    between atoms: C_1  and  C_2
REMARK    2  A    between atoms: C_4  and  C_5
REMARK    3  A    between atoms: C_10  and  C_12
REMARK    4  A    between atoms: C_12  and  N_13
REMARK    5  A    between atoms: N_13  and  C_14
REMARK    6  A    between atoms: C_14  and  C_15
REMARK    7  A    between atoms: C_15  and  O_17
REMARK    8  A    between atoms: C_19  and  C_20
REMARK                            x       y       z     vdW  Elec       q    Type
REMARK                         _______ _______ _______ _____ _____    ______ ____
ROOT
ATOM      1  C   UNL     1      -1.482  10.049  18.573  0.00  0.00    +0.000 C 
ATOM      2  C   UNL     1      -0.311  10.967  18.448  0.00  0.00    +0.000 A 
ATOM      3  S   UNL     1      -0.608  12.662  18.446  0.00  0.00    +0.000 S 
ATOM      4  C   UNL     1       1.049  13.041  18.601  0.00  0.00    +0.000 A 
ATOM      5  C   UNL     1       1.811  11.896  18.491  0.00  0.00    +0.000 A 
ATOM      6  C   UNL     1       1.044  10.681  18.381  0.00  0.00    +0.000 A 
ENDROOT
BRANCH   6   7
ATOM      7  C   UNL     1       1.704   9.370  18.331  0.00  0.00    +0.000 C 
ATOM      8  O   UNL     1       2.214   8.995  17.287  0.00  0.00    +0.000 OA
ATOM      9  N   UNL     1       1.590   8.625  19.485  0.00  0.00    +0.000 N 
ATOM     10  C   UNL     1       2.106   7.355  19.558  0.00  0.00    +0.000 A 
ATOM     11  N   UNL     1       2.900   6.742  18.721  0.00  0.00    +0.000 NA
ATOM     12  C   UNL     1       3.106   5.447  19.157  0.00  0.00    +0.000 A 
ATOM     13  C   UNL     1       2.459   5.132  20.325  0.00  0.00    +0.000 A 
ATOM     14 CL   UNL     1       2.439   3.631  21.145  0.00  0.00    +0.000 Cl
ATOM     15  S   UNL     1       1.605   6.469  20.931  0.00  0.00    +0.000 S 
ATOM     16  H   UNL     1       0.989   8.923  20.234  0.00  0.00    +0.000 HD
ENDBRANCH   6   7
BRANCH   4  17
ATOM     17  C   UNL     1       1.566  14.422  18.884  0.00  0.00    +0.000 C 
ATOM     18  C   UNL     1       2.795  14.784  18.034  0.00  0.00    +0.000 C 
ATOM     19  C   UNL     1       3.383  15.981  18.759  0.00  0.00    +0.000 C 
ATOM     20  C   UNL     1       3.055  15.723  20.224  0.00  0.00    +0.000 C 
ATOM     21  N   UNL     1       2.019  14.694  20.249  0.00  0.00    +0.000 N 
ATOM     22  C   UNL     1       1.439  14.407  21.471  0.00  0.00    +0.000 C 
ATOM     23  O   UNL     1       1.916  14.869  22.514  0.00  0.00    +0.000 OA
BRANCH  22  24
ATOM     24  C   UNL     1       0.222  13.469  21.529  0.00  0.00    +0.000 C 
BRANCH  24  25
ATOM     25  N   UNL     1       0.587  12.064  21.872  0.00  0.00    +0.000 NA
ATOM     26  H   UNL     1       1.137  12.129  22.742  0.00  0.00    +0.000 HD
BRANCH  25  27
ATOM     27  C   UNL     1      -0.627  11.268  22.208  0.00  0.00    +0.000 C 
BRANCH  27  28
ATOM     28  C   UNL     1      -0.191   9.887  22.699  0.00  0.00    +0.000 C 
ATOM     29  O   UNL     1       0.363   9.665  23.763  0.00  0.00    +0.000 OA
BRANCH  28  30
ATOM     30  O   UNL     1      -0.549   8.910  21.825  0.00  0.00    +0.000 OA
ATOM     31  H   UNL     1       0.179   8.847  21.162  0.00  0.00    +0.000 HD
ENDBRANCH  28  30
ENDBRANCH  27  28
ENDBRANCH  25  27
ENDBRANCH  24  25
ENDBRANCH  22  24
ENDBRANCH   4  17
TORSDOF 7
ENDMDL
MODEL 6
REMARK VINA RESULT:      -6.9      2.316      2.714
REMARK  Name = 
REMARK  8 active torsions:
REMARK  status: ('A' for Active; 'I' for Inactive)
REMARK    1  A    between atoms: C_1  and  C_2
REMARK    2  A    between atoms: C_4  and  C_5
REMARK    3  A    between atoms: C_10  and  C_12
REMARK    4  A    between atoms: C_12  and  N_13
REMARK    5  A    between atoms: N_13  and  C_14
REMARK    6  A    between atoms: C_14  and  C_15
REMARK    7  A    between atoms: C_15  and  O_17
REMARK    8  A    between atoms: C_19  and  C_20
REMARK                            x       y       z     vdW  Elec       q    Type
REMARK                         _______ _______ _______ _____ _____    ______ ____
ROOT
ATOM      1  C   UNL     1       2.196   9.817  17.890  0.00  0.00    +0.000 C 
ATOM      2  C   UNL     1       2.082   8.458  18.500  0.00  0.00    +0.000 A 
ATOM      3  S   UNL     1       2.604   7.108  17.570  0.00  0.00    +0.000 S 
ATOM      4  C   UNL     1       2.503   6.042  18.899  0.00  0.00    +0.000 A 
ATOM      5  C   UNL     1       1.928   6.681  19.978  0.00  0.00    +0.000 A 
ATOM      6  C   UNL     1       1.655   8.080  19.762  0.00  0.00    +0.000 A 
ENDROOT
BRANCH   6   7
ATOM      7  C   UNL     1       1.112   8.920  20.838  0.00  0.00    +0.000 C 
ATOM      8  O   UNL     1       1.327   8.617  22.001  0.00  0.00    +0.000 OA
ATOM      9  N   UNL     1       0.300   9.949  20.411  0.00  0.00    +0.000 N 
ATOM     10  C   UNL     1      -0.324  10.774  21.312  0.00  0.00    +0.000 A 
ATOM     11  N   UNL     1      -0.137  10.875  22.601  0.00  0.00    +0.000 NA
ATOM     12  C   UNL     1      -1.038  11.785  23.121  0.00  0.00    +0.000 A 
ATOM     13  C   UNL     1      -1.875  12.348  22.192  0.00  0.00    +0.000 A 
ATOM     14 CL   UNL     1      -3.137  13.472  22.457  0.00  0.00    +0.000 Cl
ATOM     15  S   UNL     1      -1.526  11.780  20.629  0.00  0.00    +0.000 S 
ATOM     16  H   UNL     1       0.016  10.015  19.448  0.00  0.00    +0.000 HD
ENDBRANCH   6   7
BRANCH   4  17
ATOM     17  C   UNL     1       3.036   4.638  18.886  0.00  0.00    +0.000 C 
ATOM     18  C   UNL     1       2.334   3.725  19.904  0.00  0.00    +0.000 C 
ATOM     19  C   UNL     1       3.277   2.541  20.022  0.00  0.00    +0.000 C 
ATOM     20  C   UNL     1       4.658   3.147  19.807  0.00  0.00    +0.000 C 
ATOM     21  N   UNL     1       4.452   4.464  19.209  0.00  0.00    +0.000 N 
ATOM     22  C   UNL     1       5.574   5.142  18.770  0.00  0.00    +0.000 C 
ATOM     23  O   UNL     1       6.706   4.729  19.048  0.00  0.00    +0.000 OA
BRANCH  22  24
ATOM     24  C   UNL     1       5.404   6.445  17.971  0.00  0.00    +0.000 C 
BRANCH  24  25
ATOM     25  N   UNL     1       6.248   6.489  16.743  0.00  0.00    +0.000 NA
ATOM     26  H   UNL     1       7.138   6.040  17.006  0.00  0.00    +0.000 HD
BRANCH  25  27
ATOM     27  C   UNL     1       5.661   5.645  15.664  0.00  0.00    +0.000 C 
BRANCH  27  28
ATOM     28  C   UNL     1       6.679   4.577  15.265  0.00  0.00    +0.000 C 
ATOM     29  O   UNL     1       6.577   3.838  14.299  0.00  0.00    +0.000 OA
BRANCH  28  30
ATOM     30  O   UNL     1       7.759   4.583  16.089  0.00  0.00    +0.000 OA
ATOM     31  H   UNL     1       7.437   4.286  16.974  0.00  0.00    +0.000 HD
ENDBRANCH  28  30
ENDBRANCH  27  28
ENDBRANCH  25  27
ENDBRANCH  24  25
ENDBRANCH  22  24
ENDBRANCH   4  17
TORSDOF 7
ENDMDL
MODEL 7
REMARK VINA RESULT:      -6.8      2.762      4.665
REMARK  Name = 
REMARK  8 active torsions:
REMARK  status: ('A' for Active; 'I' for Inactive)
REMARK    1  A    between atoms: C_1  and  C_2
REMARK    2  A    between atoms: C_4  and  C_5
REMARK    3  A    between atoms: C_10  and  C_12
REMARK    4  A    between atoms: C_12  and  N_13
REMARK    5  A    between atoms: N_13  and  C_14
REMARK    6  A    between atoms: C_14  and  C_15
REMARK    7  A    between atoms: C_15  and  O_17
REMARK    8  A    between atoms: C_19  and  C_20
REMARK                            x       y       z     vdW  Elec       q    Type
REMARK                         _______ _______ _______ _____ _____    ______ ____
ROOT
ATOM      1  C   UNL     1       1.640   9.355  17.649  0.00  0.00    +0.000 C 
ATOM      2  C   UNL     1       2.308   8.159  18.246  0.00  0.00    +0.000 A 
ATOM      3  S   UNL     1       3.440   7.297  17.278  0.00  0.00    +0.000 S 
ATOM      4  C   UNL     1       3.991   6.365  18.598  0.00  0.00    +0.000 A 
ATOM      5  C   UNL     1       3.207   6.603  19.708  0.00  0.00    +0.000 A 
ATOM      6  C   UNL     1       2.209   7.627  19.522  0.00  0.00    +0.000 A 
ENDROOT
BRANCH   6   7
ATOM      7  C   UNL     1       1.344   8.051  20.630  0.00  0.00    +0.000 C 
ATOM      8  O   UNL     1       0.798   7.205  21.321  0.00  0.00    +0.000 OA
ATOM      9  N   UNL     1       1.148   9.412  20.718  0.00  0.00    +0.000 N 
ATOM     10  C   UNL     1       0.313   9.944  21.668  0.00  0.00    +0.000 A 
ATOM     11  N   UNL     1      -0.242   9.358  22.696  0.00  0.00    +0.000 NA
ATOM     12  C   UNL     1      -1.067  10.258  23.342  0.00  0.00    +0.000 A 
ATOM     13  C   UNL     1      -1.097  11.507  22.775  0.00  0.00    +0.000 A 
ATOM     14 CL   UNL     1      -2.023  12.861  23.261  0.00  0.00    +0.000 Cl
ATOM     15  S   UNL     1      -0.056  11.597  21.436  0.00  0.00    +0.000 S 
ATOM     16  H   UNL     1       1.476  10.028  19.993  0.00  0.00    +0.000 HD
ENDBRANCH   6   7
BRANCH   4  17
ATOM     17  C   UNL     1       5.200   5.477  18.544  0.00  0.00    +0.000 C 
ATOM     18  C   UNL     1       6.478   6.233  18.147  0.00  0.00    +0.000 C 
ATOM     19  C   UNL     1       7.433   5.123  17.747  0.00  0.00    +0.000 C 
ATOM     20  C   UNL     1       6.525   4.048  17.163  0.00  0.00    +0.000 C 
ATOM     21  N   UNL     1       5.165   4.367  17.591  0.00  0.00    +0.000 N 
ATOM     22  C   UNL     1       4.180   3.436  17.318  0.00  0.00    +0.000 C 
ATOM     23  O   UNL     1       4.416   2.473  16.579  0.00  0.00    +0.000 OA
BRANCH  22  24
ATOM     24  C   UNL     1       2.772   3.632  17.904  0.00  0.00    +0.000 C 
BRANCH  24  25
ATOM     25  N   UNL     1       2.413   2.597  18.914  0.00  0.00    +0.000 NA
ATOM     26  H   UNL     1       2.987   1.774  18.679  0.00  0.00    +0.000 HD
BRANCH  25  27
ATOM     27  C   UNL     1       2.833   3.019  20.280  0.00  0.00    +0.000 C 
BRANCH  27  28
ATOM     28  C   UNL     1       1.589   3.158  21.158  0.00  0.00    +0.000 C 
ATOM     29  O   UNL     1       1.403   2.565  22.208  0.00  0.00    +0.000 OA
BRANCH  28  30
ATOM     30  O   UNL     1       0.725   4.080  20.657  0.00  0.00    +0.000 OA
ATOM     31  H   UNL     1       0.547   4.721  21.385  0.00  0.00    +0.000 HD
ENDBRANCH  28  30
ENDBRANCH  27  28
ENDBRANCH  25  27
ENDBRANCH  24  25
ENDBRANCH  22  24
ENDBRANCH   4  17
TORSDOF 7
ENDMDL
MODEL 8
REMARK VINA RESULT:      -6.7      0.956      1.045
REMARK  Name = 
REMARK  8 active torsions:
REMARK  status: ('A' for Active; 'I' for Inactive)
REMARK    1  A    between atoms: C_1  and  C_2
REMARK    2  A    between atoms: C_4  and  C_5
REMARK    3  A    between atoms: C_10  and  C_12
REMARK    4  A    between atoms: C_12  and  N_13
REMARK    5  A    between atoms: N_13  and  C_14
REMARK    6  A    between atoms: C_14  and  C_15
REMARK    7  A    between atoms: C_15  and  O_17
REMARK    8  A    between atoms: C_19  and  C_20
REMARK                            x       y       z     vdW  Elec       q    Type
REMARK                         _______ _______ _______ _____ _____    ______ ____
ROOT
ATOM      1  C   UNL     1       1.205   8.357  21.768  0.00  0.00    +0.000 C 
ATOM      2  C   UNL     1       1.668   7.819  20.454  0.00  0.00    +0.000 A 
ATOM      3  S   UNL     1       2.375   6.250  20.425  0.00  0.00    +0.000 S 
ATOM      4  C   UNL     1       2.349   6.174  18.720  0.00  0.00    +0.000 A 
ATOM      5  C   UNL     1       1.959   7.389  18.196  0.00  0.00    +0.000 A 
ATOM      6  C   UNL     1       1.579   8.367  19.184  0.00  0.00    +0.000 A 
ENDROOT
BRANCH   6   7
ATOM      7  C   UNL     1       1.068   9.686  18.787  0.00  0.00    +0.000 C 
ATOM      8  O   UNL     1       0.441   9.796  17.745  0.00  0.00    +0.000 OA
ATOM      9  N   UNL     1       1.449  10.723  19.611  0.00  0.00    +0.000 N 
ATOM     10  C   UNL     1       1.096  12.017  19.325  0.00  0.00    +0.000 A 
ATOM     11  N   UNL     1       0.250  12.460  18.432  0.00  0.00    +0.000 NA
ATOM     12  C   UNL     1       0.262  13.842  18.441  0.00  0.00    +0.000 A 
ATOM     13  C   UNL     1       1.119  14.395  19.358  0.00  0.00    +0.000 A 
ATOM     14 CL   UNL     1       1.438  16.053  19.633  0.00  0.00    +0.000 Cl
ATOM     15  S   UNL     1       1.907  13.193  20.263  0.00  0.00    +0.000 S 
ATOM     16  H   UNL     1       2.127  10.579  20.341  0.00  0.00    +0.000 HD
ENDBRANCH   6   7
BRANCH   4  17
ATOM     17  C   UNL     1       2.646   4.928  17.937  0.00  0.00    +0.000 C 
ATOM     18  C   UNL     1       1.620   3.810  18.185  0.00  0.00    +0.000 C 
ATOM     19  C   UNL     1       2.322   2.568  17.665  0.00  0.00    +0.000 C 
ATOM     20  C   UNL     1       3.796   2.836  17.941  0.00  0.00    +0.000 C 
ATOM     21  N   UNL     1       3.924   4.267  18.202  0.00  0.00    +0.000 N 
ATOM     22  C   UNL     1       5.203   4.778  18.318  0.00  0.00    +0.000 C 
ATOM     23  O   UNL     1       6.177   4.020  18.387  0.00  0.00    +0.000 OA
BRANCH  22  24
ATOM     24  C   UNL     1       5.402   6.301  18.410  0.00  0.00    +0.000 C 
BRANCH  24  25
ATOM     25  N   UNL     1       6.019   6.881  17.183  0.00  0.00    +0.000 NA
ATOM     26  H   UNL     1       6.931   6.411  17.086  0.00  0.00    +0.000 HD
BRANCH  25  27
ATOM     27  C   UNL     1       5.233   6.516  15.970  0.00  0.00    +0.000 C 
BRANCH  27  28
ATOM     28  C   UNL     1       6.001   5.451  15.187  0.00  0.00    +0.000 C 
ATOM     29  O   UNL     1       5.495   4.625  14.445  0.00  0.00    +0.000 OA
BRANCH  28  30
ATOM     30  O   UNL     1       7.343   5.569  15.369  0.00  0.00    +0.000 OA
ATOM     31  H   UNL     1       7.713   5.894  14.513  0.00  0.00    +0.000 HD
ENDBRANCH  28  30
ENDBRANCH  27  28
ENDBRANCH  25  27
ENDBRANCH  24  25
ENDBRANCH  22  24
ENDBRANCH   4  17
TORSDOF 7
ENDMDL
MODEL 9
REMARK VINA RESULT:      -6.7      4.156      8.687
REMARK  Name = 
REMARK  8 active torsions:
REMARK  status: ('A' for Active; 'I' for Inactive)
REMARK    1  A    between atoms: C_1  and  C_2
REMARK    2  A    between atoms: C_4  and  C_5
REMARK    3  A    between atoms: C_10  and  C_12
REMARK    4  A    between atoms: C_12  and  N_13
REMARK    5  A    between atoms: N_13  and  C_14
REMARK    6  A    between atoms: C_14  and  C_15
REMARK    7  A    between atoms: C_15  and  O_17
REMARK    8  A    between atoms: C_19  and  C_20
REMARK                            x       y       z     vdW  Elec       q    Type
REMARK                         _______ _______ _______ _____ _____    ______ ____
ROOT
ATOM      1  C   UNL     1       2.533  12.383  18.198  0.00  0.00    +0.000 C 
ATOM      2  C   UNL     1       1.328  11.695  18.752  0.00  0.00    +0.000 A 
ATOM      3  S   UNL     1       0.087  12.667  19.442  0.00  0.00    +0.000 S 
ATOM      4  C   UNL     1      -1.003  11.358  19.542  0.00  0.00    +0.000 A 
ATOM      5  C   UNL     1      -0.366  10.181  19.205  0.00  0.00    +0.000 A 
ATOM      6  C   UNL     1       0.996  10.350  18.763  0.00  0.00    +0.000 A 
ENDROOT
BRANCH   6   7
ATOM      7  C   UNL     1       1.788   9.204  18.297  0.00  0.00    +0.000 C 
ATOM      8  O   UNL     1       2.217   9.197  17.154  0.00  0.00    +0.000 OA
ATOM      9  N   UNL     1       1.886   8.168  19.200  0.00  0.00    +0.000 N 
ATOM     10  C   UNL     1       2.545   7.009  18.874  0.00  0.00    +0.000 A 
ATOM     11  N   UNL     1       3.303   6.758  17.840  0.00  0.00    +0.000 NA
ATOM     12  C   UNL     1       3.698   5.434  17.878  0.00  0.00    +0.000 A 
ATOM     13  C   UNL     1       3.225   4.731  18.957  0.00  0.00    +0.000 A 
ATOM     14 CL   UNL     1       3.463   3.077  19.322  0.00  0.00    +0.000 Cl
ATOM     15  S   UNL     1       2.301   5.726  19.978  0.00  0.00    +0.000 S 
ATOM     16  H   UNL     1       1.343   8.169  20.047  0.00  0.00    +0.000 HD
ENDBRANCH   6   7
BRANCH   4  17
ATOM     17  C   UNL     1      -2.458  11.507  19.883  0.00  0.00    +0.000 C 
ATOM     18  C   UNL     1      -3.278  12.122  18.738  0.00  0.00    +0.000 C 
ATOM     19  C   UNL     1      -4.559  12.565  19.422  0.00  0.00    +0.000 C 
ATOM     20  C   UNL     1      -4.112  12.947  20.827  0.00  0.00    +0.000 C 
ATOM     21  N   UNL     1      -2.787  12.366  21.021  0.00  0.00    +0.000 N 
ATOM     22  C   UNL     1      -2.241  12.441  22.290  0.00  0.00    +0.000 C 
ATOM     23  O   UNL     1      -2.776  13.135  23.162  0.00  0.00    +0.000 OA
BRANCH  22  24
ATOM     24  C   UNL     1      -0.935  11.690  22.595  0.00  0.00    +0.000 C 
BRANCH  24  25
ATOM     25  N   UNL     1      -1.163  10.297  23.075  0.00  0.00    +0.000 NA
ATOM     26  H   UNL     1      -1.550   9.789  22.265  0.00  0.00    +0.000 HD
BRANCH  25  27
ATOM     27  C   UNL     1       0.128   9.631  23.405  0.00  0.00    +0.000 C 
BRANCH  27  28
ATOM     28  C   UNL     1       0.489   8.667  22.274  0.00  0.00    +0.000 C 
ATOM     29  O   UNL     1      -0.316   8.082  21.568  0.00  0.00    +0.000 OA
BRANCH  28  30
ATOM     30  O   UNL     1       1.835   8.582  22.101  0.00  0.00    +0.000 OA
ATOM     31  H   UNL     1       2.079   9.287  21.455  0.00  0.00    +0.000 HD
ENDBRANCH  28  30
ENDBRANCH  27  28
ENDBRANCH  25  27
ENDBRANCH  24  25
ENDBRANCH  22  24
ENDBRANCH   4  17
TORSDOF 7
ENDMDL
