MODEL 1
REMARK VINA RESULT:      -7.4      0.000      0.000
REMARK  Name = 
REMARK  5 active torsions:
REMARK  status: ('A' for Active; 'I' for Inactive)
REMARK    1  A    between atoms: C_1  and  N_2
REMARK    2  A    between atoms: N_2  and  C_3
REMARK    3  A    between atoms: C_9  and  C_10
REMARK    4  A    between atoms: C_9  and  C_15
REMARK    5  A    between atoms: C_11  and  C_12
REMARK                            x       y       z     vdW  Elec       q    Type
REMARK                         _______ _______ _______ _____ _____    ______ ____
ROOT
ATOM      1  C   UNL     1       5.627   4.175  14.233  0.00  0.00    +0.000 A 
ATOM      2  C   UNL     1       6.982   4.501  14.335  0.00  0.00    +0.000 A 
ATOM      3  C   UNL     1       7.556   4.816  15.566  0.00  0.00    +0.000 A 
ATOM      4  C   UNL     1       6.770   4.801  16.713  0.00  0.00    +0.000 A 
ATOM      5  C   UNL     1       5.422   4.472  16.660  0.00  0.00    +0.000 A 
ATOM      6  C   UNL     1       4.847   4.229  15.397  0.00  0.00    +0.000 A 
ATOM      7  C   UNL     1       4.642   4.394  17.962  0.00  0.00    +0.000 C 
ATOM      8  O   UNL     1       5.529   4.369  19.120  0.00  0.00    +0.000 OA
ATOM      9  C   UNL     1       6.676   5.082  19.120  0.00  0.00    +0.000 C 
ATOM     10  O   UNL     1       7.165   5.530  20.149  0.00  0.00    +0.000 OA
ATOM     11  N   UNL     1       7.321   5.174  17.925  0.00  0.00    +0.000 N 
ATOM     12  H   UNL     1       8.252   5.569  17.970  0.00  0.00    +0.000 HD
ENDROOT
BRANCH   7  13
ATOM     13  C   UNL     1       3.769   3.086  18.042  0.00  0.00    +0.000 C 
ATOM     14  F   UNL     1       4.340   2.011  17.441  0.00  0.00    +0.000 F 
ATOM     15  F   UNL     1       3.533   2.701  19.325  0.00  0.00    +0.000 F 
ATOM     16  F   UNL     1       2.552   3.232  17.457  0.00  0.00    +0.000 F 
ENDBRANCH   7  13
BRANCH   1  18
ATOM     17  C   UNL     1       5.773   3.136  12.038  0.00  0.00    +0.000 C 
ATOM     18  N   UNL     1       5.003   3.904  13.005  0.00  0.00    +0.000 N 
ATOM     19  H   UNL     1       4.066   3.525  13.132  0.00  0.00    +0.000 HD
ENDBRANCH   1  18
BRANCH   7  20
ATOM     20  C   UNL     1       3.791   5.598  18.171  0.00  0.00    +0.000 C 
ATOM     21  C   UNL     1       3.001   6.496  18.178  0.00  0.00    +0.000 C 
BRANCH  21  22
ATOM     22  C   UNL     1       1.992   7.509  18.057  0.00  0.00    +0.000 C 
ATOM     23  C   UNL     1       1.866   8.518  19.170  0.00  0.00    +0.000 C 
ATOM     24  C   UNL     1       2.389   8.939  17.826  0.00  0.00    +0.000 C 
ENDBRANCH  21  22
ENDBRANCH   7  20
TORSDOF 4
ENDMDL
MODEL 2
REMARK VINA RESULT:      -7.4      2.868      5.370
REMARK  Name = 
REMARK  5 active torsions:
REMARK  status: ('A' for Active; 'I' for Inactive)
REMARK    1  A    between atoms: C_1  and  N_2
REMARK    2  A    between atoms: N_2  and  C_3
REMARK    3  A    between atoms: C_9  and  C_10
REMARK    4  A    between atoms: C_9  and  C_15
REMARK    5  A    between atoms: C_11  and  C_12
REMARK                            x       y       z     vdW  Elec       q    Type
REMARK                         _______ _______ _______ _____ _____    ______ ____
ROOT
ATOM      1  C   UNL     1       2.432   3.838  18.425  0.00  0.00    +0.000 A 
ATOM      2  C   UNL     1       3.120   3.116  19.403  0.00  0.00    +0.000 A 
ATOM      3  C   UNL     1       4.513   3.128  19.461  0.00  0.00    +0.000 A 
ATOM      4  C   UNL     1       5.231   3.875  18.535  0.00  0.00    +0.000 A 
ATOM      5  C   UNL     1       4.589   4.618  17.553  0.00  0.00    +0.000 A 
ATOM      6  C   UNL     1       3.185   4.533  17.467  0.00  0.00    +0.000 A 
ATOM      7  C   UNL     1       5.432   5.478  16.626  0.00  0.00    +0.000 C 
ATOM      8  O   UNL     1       6.792   5.637  17.127  0.00  0.00    +0.000 OA
ATOM      9  C   UNL     1       7.408   4.622  17.770  0.00  0.00    +0.000 C 
ATOM     10  O   UNL     1       8.623   4.473  17.739  0.00  0.00    +0.000 OA
ATOM     11  N   UNL     1       6.614   3.840  18.551  0.00  0.00    +0.000 N 
ATOM     12  H   UNL     1       7.107   3.189  19.148  0.00  0.00    +0.000 HD
ENDROOT
BRANCH   7  13
ATOM     13  C   UNL     1       4.840   6.930  16.477  0.00  0.00    +0.000 C 
ATOM     14  F   UNL     1       3.648   7.099  17.105  0.00  0.00    +0.000 F 
ATOM     15  F   UNL     1       5.663   7.878  17.000  0.00  0.00    +0.000 F 
ATOM     16  F   UNL     1       4.628   7.279  15.182  0.00  0.00    +0.000 F 
ENDBRANCH   7  13
BRANCH   1  18
ATOM     17  C   UNL     1       0.350   2.680  18.918  0.00  0.00    +0.000 C 
ATOM     18  N   UNL     1       1.034   3.807  18.302  0.00  0.00    +0.000 N 
ATOM     19  H   UNL     1       0.612   4.696  18.563  0.00  0.00    +0.000 HD
ENDBRANCH   1  18
BRANCH   7  20
ATOM     20  C   UNL     1       5.599   4.849  15.287  0.00  0.00    +0.000 C 
ATOM     21  C   UNL     1       5.829   4.194  14.312  0.00  0.00    +0.000 C 
BRANCH  21  22
ATOM     22  C   UNL     1       6.181   3.309  13.238  0.00  0.00    +0.000 C 
ATOM     23  C   UNL     1       5.333   3.337  11.992  0.00  0.00    +0.000 C 
ATOM     24  C   UNL     1       6.738   3.867  11.961  0.00  0.00    +0.000 C 
ENDBRANCH  21  22
ENDBRANCH   7  20
TORSDOF 4
ENDMDL
MODEL 3
REMARK VINA RESULT:      -6.8      2.850      5.635
REMARK  Name = 
REMARK  5 active torsions:
REMARK  status: ('A' for Active; 'I' for Inactive)
REMARK    1  A    between atoms: C_1  and  N_2
REMARK    2  A    between atoms: N_2  and  C_3
REMARK    3  A    between atoms: C_9  and  C_10
REMARK    4  A    between atoms: C_9  and  C_15
REMARK    5  A    between atoms: C_11  and  C_12
REMARK                            x       y       z     vdW  Elec       q    Type
REMARK                         _______ _______ _______ _____ _____    ______ ____
ROOT
ATOM      1  C   UNL     1       2.725   7.816  18.244  0.00  0.00    +0.000 A 
ATOM      2  C   UNL     1       1.888   7.164  19.155  0.00  0.00    +0.000 A 
ATOM      3  C   UNL     1       2.204   5.898  19.644  0.00  0.00    +0.000 A 
ATOM      4  C   UNL     1       3.372   5.272  19.225  0.00  0.00    +0.000 A 
ATOM      5  C   UNL     1       4.239   5.887  18.330  0.00  0.00    +0.000 A 
ATOM      6  C   UNL     1       3.864   7.134  17.793  0.00  0.00    +0.000 A 
ATOM      7  C   UNL     1       5.539   5.183  17.979  0.00  0.00    +0.000 C 
ATOM      8  O   UNL     1       5.826   4.091  18.902  0.00  0.00    +0.000 OA
ATOM      9  C   UNL     1       4.824   3.338  19.405  0.00  0.00    +0.000 C 
ATOM     10  O   UNL     1       4.982   2.164  19.714  0.00  0.00    +0.000 OA
ATOM     11  N   UNL     1       3.657   3.990  19.659  0.00  0.00    +0.000 N 
ATOM     12  H   UNL     1       2.973   3.458  20.182  0.00  0.00    +0.000 HD
ENDROOT
BRANCH   7  13
ATOM     13  C   UNL     1       6.771   6.161  18.052  0.00  0.00    +0.000 C 
ATOM     14  F   UNL     1       7.836   5.752  17.315  0.00  0.00    +0.000 F 
ATOM     15  F   UNL     1       6.469   7.405  17.594  0.00  0.00    +0.000 F 
ATOM     16  F   UNL     1       7.239   6.321  19.317  0.00  0.00    +0.000 F 
ENDBRANCH   7  13
BRANCH   1  18
ATOM     17  C   UNL     1       1.328   9.806  18.318  0.00  0.00    +0.000 C 
ATOM     18  N   UNL     1       2.413   9.067  17.690  0.00  0.00    +0.000 N 
ATOM     19  H   UNL     1       3.244   9.643  17.567  0.00  0.00    +0.000 HD
ENDBRANCH   1  18
BRANCH   7  20
ATOM     20  C   UNL     1       5.473   4.533  16.641  0.00  0.00    +0.000 C 
ATOM     21  C   UNL     1       5.624   4.009  15.577  0.00  0.00    +0.000 C 
BRANCH  21  22
ATOM     22  C   UNL     1       5.960   3.396  14.323  0.00  0.00    +0.000 C 
ATOM     23  C   UNL     1       5.187   3.819  13.100  0.00  0.00    +0.000 C 
ATOM     24  C   UNL     1       6.630   4.204  13.250  0.00  0.00    +0.000 C 
ENDBRANCH  21  22
ENDBRANCH   7  20
TORSDOF 4
ENDMDL
MODEL 4
REMARK VINA RESULT:      -6.8      3.273      5.218
REMARK  Name = 
REMARK  5 active torsions:
REMARK  status: ('A' for Active; 'I' for Inactive)
REMARK    1  A    between atoms: C_1  and  N_2
REMARK    2  A    between atoms: N_2  and  C_3
REMARK    3  A    between atoms: C_9  and  C_10
REMARK    4  A    between atoms: C_9  and  C_15
REMARK    5  A    between atoms: C_11  and  C_12
REMARK                            x       y       z     vdW  Elec       q    Type
REMARK                         _______ _______ _______ _____ _____    ______ ____
ROOT
ATOM      1  C   UNL     1       4.439   3.005  19.476  0.00  0.00    +0.000 A 
ATOM      2  C   UNL     1       3.315   3.479  20.159  0.00  0.00    +0.000 A 
ATOM      3  C   UNL     1       2.769   4.728  19.868  0.00  0.00    +0.000 A 
ATOM      4  C   UNL     1       3.347   5.516  18.879  0.00  0.00    +0.000 A 
ATOM      5  C   UNL     1       4.458   5.080  18.167  0.00  0.00    +0.000 A 
ATOM      6  C   UNL     1       5.036   3.848  18.527  0.00  0.00    +0.000 A 
ATOM      7  C   UNL     1       4.987   5.955  17.043  0.00  0.00    +0.000 C 
ATOM      8  O   UNL     1       4.032   6.993  16.672  0.00  0.00    +0.000 OA
ATOM      9  C   UNL     1       3.261   7.582  17.612  0.00  0.00    +0.000 C 
ATOM     10  O   UNL     1       2.869   8.736  17.503  0.00  0.00    +0.000 OA
ATOM     11  N   UNL     1       2.847   6.781  18.632  0.00  0.00    +0.000 N 
ATOM     12  H   UNL     1       2.145   7.187  19.237  0.00  0.00    +0.000 HD
ENDROOT
BRANCH   7  13
ATOM     13  C   UNL     1       5.267   5.121  15.736  0.00  0.00    +0.000 C 
ATOM     14  F   UNL     1       6.502   4.556  15.704  0.00  0.00    +0.000 F 
ATOM     15  F   UNL     1       4.392   4.092  15.584  0.00  0.00    +0.000 F 
ATOM     16  F   UNL     1       5.176   5.871  14.607  0.00  0.00    +0.000 F 
ENDBRANCH   7  13
BRANCH   1  18
ATOM     17  C   UNL     1       5.048   1.375  21.176  0.00  0.00    +0.000 C 
ATOM     18  N   UNL     1       5.047   1.777  19.777  0.00  0.00    +0.000 N 
ATOM     19  H   UNL     1       4.715   1.031  19.169  0.00  0.00    +0.000 HD
ENDBRANCH   1  18
BRANCH   7  20
ATOM     20  C   UNL     1       6.209   6.702  17.451  0.00  0.00    +0.000 C 
ATOM     21  C   UNL     1       7.169   7.400  17.601  0.00  0.00    +0.000 C 
BRANCH  21  22
ATOM     22  C   UNL     1       8.291   8.295  17.638  0.00  0.00    +0.000 C 
ATOM     23  C   UNL     1       8.025   9.752  17.919  0.00  0.00    +0.000 C 
ATOM     24  C   UNL     1       8.723   8.901  18.941  0.00  0.00    +0.000 C 
ENDBRANCH  21  22
ENDBRANCH   7  20
TORSDOF 4
ENDMDL
MODEL 5
REMARK VINA RESULT:      -6.8      2.757      4.312
REMARK  Name = 
REMARK  5 active torsions:
REMARK  status: ('A' for Active; 'I' for Inactive)
REMARK    1  A    between atoms: C_1  and  N_2
REMARK    2  A    between atoms: N_2  and  C_3
REMARK    3  A    between atoms: C_9  and  C_10
REMARK    4  A    between atoms: C_9  and  C_15
REMARK    5  A    between atoms: C_11  and  C_12
REMARK                            x       y       z     vdW  Elec       q    Type
REMARK                         _______ _______ _______ _____ _____    ______ ____
ROOT
ATOM      1  C   UNL     1       8.027   7.895  18.115  0.00  0.00    +0.000 A 
ATOM      2  C   UNL     1       8.520   7.113  19.163  0.00  0.00    +0.000 A 
ATOM      3  C   UNL     1       7.887   5.929  19.538  0.00  0.00    +0.000 A 
ATOM      4  C   UNL     1       6.749   5.514  18.856  0.00  0.00    +0.000 A 
ATOM      5  C   UNL     1       6.230   6.253  17.801  0.00  0.00    +0.000 A 
ATOM      6  C   UNL     1       6.842   7.483  17.487  0.00  0.00    +0.000 A 
ATOM      7  C   UNL     1       5.033   5.700  17.046  0.00  0.00    +0.000 C 
ATOM      8  O   UNL     1       4.807   4.293  17.354  0.00  0.00    +0.000 OA
ATOM      9  C   UNL     1       5.034   3.818  18.598  0.00  0.00    +0.000 C 
ATOM     10  O   UNL     1       4.407   2.875  19.062  0.00  0.00    +0.000 OA
ATOM     11  N   UNL     1       6.083   4.373  19.266  0.00  0.00    +0.000 N 
ATOM     12  H   UNL     1       6.342   3.904  20.123  0.00  0.00    +0.000 HD
ENDROOT
BRANCH   7  13
ATOM     13  C   UNL     1       5.236   5.786  15.486  0.00  0.00    +0.000 C 
ATOM     14  F   UNL     1       4.824   6.962  14.948  0.00  0.00    +0.000 F 
ATOM     15  F   UNL     1       6.541   5.659  15.128  0.00  0.00    +0.000 F 
ATOM     16  F   UNL     1       4.559   4.817  14.817  0.00  0.00    +0.000 F 
ENDBRANCH   7  13
BRANCH   1  18
ATOM     17  C   UNL     1       9.028   9.995  18.828  0.00  0.00    +0.000 C 
ATOM     18  N   UNL     1       8.606   9.119  17.745  0.00  0.00    +0.000 N 
ATOM     19  H   UNL     1       9.338   8.995  17.048  0.00  0.00    +0.000 HD
ENDBRANCH   1  18
BRANCH   7  20
ATOM     20  C   UNL     1       3.768   6.377  17.441  0.00  0.00    +0.000 C 
ATOM     21  C   UNL     1       2.820   7.077  17.647  0.00  0.00    +0.000 C 
BRANCH  21  22
ATOM     22  C   UNL     1       1.758   8.029  17.812  0.00  0.00    +0.000 C 
ATOM     23  C   UNL     1       1.622   8.710  19.150  0.00  0.00    +0.000 C 
ATOM     24  C   UNL     1       2.076   9.490  17.950  0.00  0.00    +0.000 C 
ENDBRANCH  21  22
ENDBRANCH   7  20
TORSDOF 4
ENDMDL
MODEL 6
REMARK VINA RESULT:      -6.8      2.605      5.620
REMARK  Name = 
REMARK  5 active torsions:
REMARK  status: ('A' for Active; 'I' for Inactive)
REMARK    1  A    between atoms: C_1  and  N_2
REMARK    2  A    between atoms: N_2  and  C_3
REMARK    3  A    between atoms: C_9  and  C_10
REMARK    4  A    between atoms: C_9  and  C_15
REMARK    5  A    between atoms: C_11  and  C_12
REMARK                            x       y       z     vdW  Elec       q    Type
REMARK                         _______ _______ _______ _____ _____    ______ ____
ROOT
ATOM      1  C   UNL     1       2.999   7.535  17.905  0.00  0.00    +0.000 A 
ATOM      2  C   UNL     1       1.893   6.893  18.467  0.00  0.00    +0.000 A 
ATOM      3  C   UNL     1       1.862   5.507  18.614  0.00  0.00    +0.000 A 
ATOM      4  C   UNL     1       2.951   4.749  18.201  0.00  0.00    +0.000 A 
ATOM      5  C   UNL     1       4.077   5.345  17.648  0.00  0.00    +0.000 A 
ATOM      6  C   UNL     1       4.057   6.739  17.441  0.00  0.00    +0.000 A 
ATOM      7  C   UNL     1       5.265   4.466  17.295  0.00  0.00    +0.000 C 
ATOM      8  O   UNL     1       5.154   3.143  17.899  0.00  0.00    +0.000 OA
ATOM      9  C   UNL     1       3.949   2.545  18.022  0.00  0.00    +0.000 C 
ATOM     10  O   UNL     1       3.820   1.328  18.004  0.00  0.00    +0.000 OA
ATOM     11  N   UNL     1       2.899   3.369  18.287  0.00  0.00    +0.000 N 
ATOM     12  H   UNL     1       2.037   2.900  18.536  0.00  0.00    +0.000 HD
ENDROOT
BRANCH   7  13
ATOM     13  C   UNL     1       6.620   5.079  17.814  0.00  0.00    +0.000 C 
ATOM     14  F   UNL     1       7.048   6.145  17.090  0.00  0.00    +0.000 F 
ATOM     15  F   UNL     1       6.528   5.522  19.095  0.00  0.00    +0.000 F 
ATOM     16  F   UNL     1       7.642   4.184  17.791  0.00  0.00    +0.000 F 
ENDBRANCH   7  13
BRANCH   1  18
ATOM     17  C   UNL     1       1.810   9.657  17.923  0.00  0.00    +0.000 C 
ATOM     18  N   UNL     1       3.044   8.921  17.692  0.00  0.00    +0.000 N 
ATOM     19  H   UNL     1       3.837   9.351  18.166  0.00  0.00    +0.000 HD
ENDBRANCH   1  18
BRANCH   7  20
ATOM     20  C   UNL     1       5.344   4.202  15.832  0.00  0.00    +0.000 C 
ATOM     21  C   UNL     1       5.485   4.179  14.644  0.00  0.00    +0.000 C 
BRANCH  21  22
ATOM     22  C   UNL     1       5.702   4.300  13.230  0.00  0.00    +0.000 C 
ATOM     23  C   UNL     1       6.309   3.126  12.505  0.00  0.00    +0.000 C 
ATOM     24  C   UNL     1       4.872   3.495  12.273  0.00  0.00    +0.000 C 
ENDBRANCH  21  22
ENDBRANCH   7  20
TORSDOF 4
ENDMDL
MODEL 7
REMARK VINA RESULT:      -6.7      3.707      5.443
REMARK  Name = 
REMARK  5 active torsions:
REMARK  status: ('A' for Active; 'I' for Inactive)
REMARK    1  A    between atoms: C_1  and  N_2
REMARK    2  A    between atoms: N_2  and  C_3
REMARK    3  A    between atoms: C_9  and  C_10
REMARK    4  A    between atoms: C_9  and  C_15
REMARK    5  A    between atoms: C_11  and  C_12
REMARK                            x       y       z     vdW  Elec       q    Type
REMARK                         _______ _______ _______ _____ _____    ______ ____
ROOT
ATOM      1  C   UNL     1       3.533   5.637  19.120  0.00  0.00    +0.000 A 
ATOM      2  C   UNL     1       2.886   5.182  17.968  0.00  0.00    +0.000 A 
ATOM      3  C   UNL     1       3.579   5.018  16.770  0.00  0.00    +0.000 A 
ATOM      4  C   UNL     1       4.938   5.306  16.719  0.00  0.00    +0.000 A 
ATOM      5  C   UNL     1       5.625   5.749  17.842  0.00  0.00    +0.000 A 
ATOM      6  C   UNL     1       4.890   5.978  19.022  0.00  0.00    +0.000 A 
ATOM      7  C   UNL     1       7.125   5.965  17.737  0.00  0.00    +0.000 C 
ATOM      8  O   UNL     1       7.674   5.356  16.531  0.00  0.00    +0.000 OA
ATOM      9  C   UNL     1       6.962   5.348  15.383  0.00  0.00    +0.000 C 
ATOM     10  O   UNL     1       7.499   5.362  14.283  0.00  0.00    +0.000 OA
ATOM     11  N   UNL     1       5.615   5.205  15.517  0.00  0.00    +0.000 N 
ATOM     12  H   UNL     1       5.114   5.039  14.654  0.00  0.00    +0.000 HD
ENDROOT
BRANCH   7  13
ATOM     13  C   UNL     1       7.894   5.319  18.951  0.00  0.00    +0.000 C 
ATOM     14  F   UNL     1       8.715   6.185  19.599  0.00  0.00    +0.000 F 
ATOM     15  F   UNL     1       7.048   4.840  19.901  0.00  0.00    +0.000 F 
ATOM     16  F   UNL     1       8.680   4.277  18.577  0.00  0.00    +0.000 F 
ENDBRANCH   7  13
BRANCH   1  18
ATOM     17  C   UNL     1       2.218   4.712  20.946  0.00  0.00    +0.000 C 
ATOM     18  N   UNL     1       2.857   5.864  20.329  0.00  0.00    +0.000 N 
ATOM     19  H   UNL     1       3.433   6.379  20.993  0.00  0.00    +0.000 HD
ENDBRANCH   1  18
BRANCH   7  20
ATOM     20  C   UNL     1       7.470   7.408  17.616  0.00  0.00    +0.000 C 
ATOM     21  C   UNL     1       7.766   8.563  17.723  0.00  0.00    +0.000 C 
BRANCH  21  22
ATOM     22  C   UNL     1       8.120   9.924  18.005  0.00  0.00    +0.000 C 
ATOM     23  C   UNL     1       9.009  10.192  19.193  0.00  0.00    +0.000 C 
ATOM     24  C   UNL     1       9.533  10.389  17.800  0.00  0.00    +0.000 C 
ENDBRANCH  21  22
ENDBRANCH   7  20
TORSDOF 4
ENDMDL
MODEL 8
REMARK VINA RESULT:      -6.7      3.062      4.820
REMARK  Name = 
REMARK  5 active torsions:
REMARK  status: ('A' for Active; 'I' for Inactive)
REMARK    1  A    between atoms: C_1  and  N_2
REMARK    2  A    between atoms: N_2  and  C_3
REMARK    3  A    between atoms: C_9  and  C_10
REMARK    4  A    between atoms: C_9  and  C_15
REMARK    5  A    between atoms: C_11  and  C_12
REMARK                            x       y       z     vdW  Elec       q    Type
REMARK                         _______ _______ _______ _____ _____    ______ ____
ROOT
ATOM      1  C   UNL     1       7.071   6.294  17.935  0.00  0.00    +0.000 A 
ATOM      2  C   UNL     1       7.401   5.246  17.072  0.00  0.00    +0.000 A 
ATOM      3  C   UNL     1       6.437   4.334  16.644  0.00  0.00    +0.000 A 
ATOM      4  C   UNL     1       5.124   4.471  17.079  0.00  0.00    +0.000 A 
ATOM      5  C   UNL     1       4.748   5.504  17.927  0.00  0.00    +0.000 A 
ATOM      6  C   UNL     1       5.751   6.370  18.405  0.00  0.00    +0.000 A 
ATOM      7  C   UNL     1       3.280   5.643  18.296  0.00  0.00    +0.000 C 
ATOM      8  O   UNL     1       2.428   4.839  17.427  0.00  0.00    +0.000 OA
ATOM      9  C   UNL     1       2.848   3.636  16.979  0.00  0.00    +0.000 C 
ATOM     10  O   UNL     1       2.070   2.726  16.728  0.00  0.00    +0.000 OA
ATOM     11  N   UNL     1       4.178   3.532  16.708  0.00  0.00    +0.000 N 
ATOM     12  H   UNL     1       4.452   2.686  16.224  0.00  0.00    +0.000 HD
ENDROOT
BRANCH   7  13
ATOM     13  C   UNL     1       2.781   7.131  18.154  0.00  0.00    +0.000 C 
ATOM     14  F   UNL     1       3.588   7.905  17.385  0.00  0.00    +0.000 F 
ATOM     15  F   UNL     1       1.550   7.209  17.583  0.00  0.00    +0.000 F 
ATOM     16  F   UNL     1       2.690   7.768  19.350  0.00  0.00    +0.000 F 
ENDBRANCH   7  13
BRANCH   1  18
ATOM     17  C   UNL     1       8.023   8.531  17.841  0.00  0.00    +0.000 C 
ATOM     18  N   UNL     1       8.024   7.199  18.428  0.00  0.00    +0.000 N 
ATOM     19  H   UNL     1       8.023   7.232  19.445  0.00  0.00    +0.000 HD
ENDBRANCH   1  18
BRANCH   7  20
ATOM     20  C   UNL     1       3.002   5.133  19.667  0.00  0.00    +0.000 C 
ATOM     21  C   UNL     1       2.705   4.558  20.673  0.00  0.00    +0.000 C 
BRANCH  21  22
ATOM     22  C   UNL     1       2.289   3.756  21.788  0.00  0.00    +0.000 C 
ATOM     23  C   UNL     1       1.189   2.750  21.565  0.00  0.00    +0.000 C 
ATOM     24  C   UNL     1       2.596   2.286  21.810  0.00  0.00    +0.000 C 
ENDBRANCH  21  22
ENDBRANCH   7  20
TORSDOF 4
ENDMDL
MODEL 9
REMARK VINA RESULT:      -6.6      6.705      9.504
REMARK  Name = 
REMARK  5 active torsions:
REMARK  status: ('A' for Active; 'I' for Inactive)
REMARK    1  A    between atoms: C_1  and  N_2
REMARK    2  A    between atoms: N_2  and  C_3
REMARK    3  A    between atoms: C_9  and  C_10
REMARK    4  A    between atoms: C_9  and  C_15
REMARK    5  A    between atoms: C_11  and  C_12
REMARK                            x       y       z     vdW  Elec       q    Type
REMARK                         _______ _______ _______ _____ _____    ______ ____
ROOT
ATOM      1  C   UNL     1      -0.845  10.811  22.559  0.00  0.00    +0.000 A 
ATOM      2  C   UNL     1      -0.225   9.676  23.088  0.00  0.00    +0.000 A 
ATOM      3  C   UNL     1       0.585   8.863  22.297  0.00  0.00    +0.000 A 
ATOM      4  C   UNL     1       0.785   9.188  20.960  0.00  0.00    +0.000 A 
ATOM      5  C   UNL     1       0.199  10.313  20.395  0.00  0.00    +0.000 A 
ATOM      6  C   UNL     1      -0.674  11.079  21.193  0.00  0.00    +0.000 A 
ATOM      7  C   UNL     1       0.527  10.655  18.951  0.00  0.00    +0.000 C 
ATOM      8  O   UNL     1       1.682   9.906  18.470  0.00  0.00    +0.000 OA
ATOM      9  C   UNL     1       1.891   8.634  18.873  0.00  0.00    +0.000 C 
ATOM     10  O   UNL     1       2.459   7.811  18.168  0.00  0.00    +0.000 OA
ATOM     11  N   UNL     1       1.537   8.350  20.157  0.00  0.00    +0.000 N 
ATOM     12  H   UNL     1       1.844   7.447  20.496  0.00  0.00    +0.000 HD
ENDROOT
BRANCH   7  13
ATOM     13  C   UNL     1       0.883  12.180  18.778  0.00  0.00    +0.000 C 
ATOM     14  F   UNL     1      -0.171  12.944  18.392  0.00  0.00    +0.000 F 
ATOM     15  F   UNL     1       1.333  12.738  19.933  0.00  0.00    +0.000 F 
ATOM     16  F   UNL     1       1.850  12.389  17.849  0.00  0.00    +0.000 F 
ENDBRANCH   7  13
BRANCH   1  18
ATOM     17  C   UNL     1      -2.674  12.415  22.563  0.00  0.00    +0.000 C 
ATOM     18  N   UNL     1      -1.709  11.623  23.311  0.00  0.00    +0.000 N 
ATOM     19  H   UNL     1      -2.149  11.106  24.070  0.00  0.00    +0.000 HD
ENDBRANCH   1  18
BRANCH   7  20
ATOM     20  C   UNL     1      -0.576  10.274  18.027  0.00  0.00    +0.000 C 
ATOM     21  C   UNL     1      -1.584  10.062  17.419  0.00  0.00    +0.000 C 
BRANCH  21  22
ATOM     22  C   UNL     1      -2.870   9.875  16.809  0.00  0.00    +0.000 C 
ATOM     23  C   UNL     1      -3.491  11.048  16.095  0.00  0.00    +0.000 C 
ATOM     24  C   UNL     1      -2.995   9.866  15.313  0.00  0.00    +0.000 C 
ENDBRANCH  21  22
ENDBRANCH   7  20
TORSDOF 4
ENDMDL
