MODEL 1
REMARK VINA RESULT:      -6.7      0.000      0.000
REMARK  Name = 
REMARK  8 active torsions:
REMARK  status: ('A' for Active; 'I' for Inactive)
REMARK    1  A    between atoms: C_2  and  C_3
REMARK    2  A    between atoms: C_3  and  N_4
REMARK    3  A    between atoms: N_7  and  C_8
REMARK    4  A    between atoms: C_8  and  C_9
REMARK    5  A    between atoms: C_9  and  C_10
REMARK    6  A    between atoms: C_10  and  C_11
REMARK    7  A    between atoms: C_11  and  O_12
REMARK    8  A    between atoms: C_18  and  O_19
REMARK                            x       y       z     vdW  Elec       q    Type
REMARK                         _______ _______ _______ _____ _____    ______ ____
ROOT
ATOM      1  N   UNL     1       4.923   4.769  16.502  0.00  0.00    +0.000 N 
ATOM      2  C   UNL     1       3.924   4.078  17.212  0.00  0.00    +0.000 A 
ATOM      3  O   UNL     1       2.927   3.547  16.746  0.00  0.00    +0.000 OA
ATOM      4  N   UNL     1       4.319   4.086  18.566  0.00  0.00    +0.000 N 
ATOM      5  C   UNL     1       5.573   4.707  18.669  0.00  0.00    +0.000 A 
ATOM      6  N   UNL     1       6.334   4.837  19.759  0.00  0.00    +0.000 NA
ATOM      7  C   UNL     1       7.517   5.433  19.535  0.00  0.00    +0.000 A 
ATOM      8  N   UNL     1       8.389   5.568  20.593  0.00  0.00    +0.000 N 
ATOM      9  N   UNL     1       7.942   5.927  18.354  0.00  0.00    +0.000 NA
ATOM     10  C   UNL     1       7.122   5.758  17.308  0.00  0.00    +0.000 A 
ATOM     11  C   UNL     1       5.921   5.138  17.408  0.00  0.00    +0.000 A 
ATOM     12  H   UNL     1       7.901   5.562  21.478  0.00  0.00    +0.000 HD
ATOM     13  H   UNL     1       9.050   6.313  20.423  0.00  0.00    +0.000 HD
ENDROOT
BRANCH  10  14
ATOM     14  O   UNL     1       7.610   6.247  16.145  0.00  0.00    +0.000 OA
ATOM     15  H   UNL     1       8.332   5.618  15.967  0.00  0.00    +0.000 HD
ENDBRANCH  10  14
BRANCH   1  16
ATOM     16  C   UNL     1       4.985   4.908  15.071  0.00  0.00    +0.000 C 
BRANCH  16  18
ATOM     17  C   UNL     1       6.159   3.725  13.191  0.00  0.00    +0.000 C 
ATOM     18  C   UNL     1       5.862   3.840  14.493  0.00  0.00    +0.000 C 
ENDBRANCH  16  18
ENDBRANCH   1  16
BRANCH   4  19
ATOM     19  C   UNL     1       3.626   3.419  19.639  0.00  0.00    +0.000 C 
BRANCH  19  20
ATOM     20  C   UNL     1       2.633   4.301  20.401  0.00  0.00    +0.000 C 
BRANCH  20  21
ATOM     21  C   UNL     1       1.158   3.937  20.212  0.00  0.00    +0.000 C 
BRANCH  21  22
ATOM     22  C   UNL     1       0.933   2.552  19.617  0.00  0.00    +0.000 C 
BRANCH  22  23
ATOM     23  O   UNL     1       0.616   2.671  18.235  0.00  0.00    +0.000 OA
ATOM     24  H   UNL     1      -0.224   3.154  18.164  0.00  0.00    +0.000 HD
ENDBRANCH  22  23
ENDBRANCH  21  22
ENDBRANCH  20  21
ENDBRANCH  19  20
ENDBRANCH   4  19
TORSDOF 8
ENDMDL
MODEL 2
REMARK VINA RESULT:      -6.4      2.491      3.627
REMARK  Name = 
REMARK  8 active torsions:
REMARK  status: ('A' for Active; 'I' for Inactive)
REMARK    1  A    between atoms: C_2  and  C_3
REMARK    2  A    between atoms: C_3  and  N_4
REMARK    3  A    between atoms: N_7  and  C_8
REMARK    4  A    between atoms: C_8  and  C_9
REMARK    5  A    between atoms: C_9  and  C_10
REMARK    6  A    between atoms: C_10  and  C_11
REMARK    7  A    between atoms: C_11  and  O_12
REMARK    8  A    between atoms: C_18  and  O_19
REMARK                            x       y       z     vdW  Elec       q    Type
REMARK                         _______ _______ _______ _____ _____    ______ ____
ROOT
ATOM      1  N   UNL     1       5.041   4.765  18.060  0.00  0.00    +0.000 N 
ATOM      2  C   UNL     1       4.508   4.124  19.192  0.00  0.00    +0.000 A 
ATOM      3  O   UNL     1       4.939   3.118  19.736  0.00  0.00    +0.000 OA
ATOM      4  N   UNL     1       3.398   4.892  19.600  0.00  0.00    +0.000 N 
ATOM      5  C   UNL     1       3.301   6.023  18.775  0.00  0.00    +0.000 A 
ATOM      6  N   UNL     1       2.446   7.043  18.884  0.00  0.00    +0.000 NA
ATOM      7  C   UNL     1       2.632   8.015  17.974  0.00  0.00    +0.000 A 
ATOM      8  N   UNL     1       1.826   9.130  18.039  0.00  0.00    +0.000 N 
ATOM      9  N   UNL     1       3.544   8.003  16.981  0.00  0.00    +0.000 NA
ATOM     10  C   UNL     1       4.364   6.944  16.938  0.00  0.00    +0.000 A 
ATOM     11  C   UNL     1       4.294   5.923  17.827  0.00  0.00    +0.000 A 
ATOM     12  H   UNL     1       0.950   8.928  18.501  0.00  0.00    +0.000 HD
ATOM     13  H   UNL     1       1.792   9.602  17.146  0.00  0.00    +0.000 HD
ENDROOT
BRANCH  10  14
ATOM     14  O   UNL     1       5.277   6.998  15.940  0.00  0.00    +0.000 OA
ATOM     15  H   UNL     1       5.711   7.848  16.132  0.00  0.00    +0.000 HD
ENDBRANCH  10  14
BRANCH   1  16
ATOM     16  C   UNL     1       6.250   4.386  17.378  0.00  0.00    +0.000 C 
BRANCH  16  18
ATOM     17  C   UNL     1       7.679   6.142  18.468  0.00  0.00    +0.000 C 
ATOM     18  C   UNL     1       7.441   4.861  18.151  0.00  0.00    +0.000 C 
ENDBRANCH  16  18
ENDBRANCH   1  16
BRANCH   4  19
ATOM     19  C   UNL     1       2.600   4.643  20.774  0.00  0.00    +0.000 C 
BRANCH  19  20
ATOM     20  C   UNL     1       1.194   4.108  20.486  0.00  0.00    +0.000 C 
BRANCH  20  21
ATOM     21  C   UNL     1       1.109   2.603  20.220  0.00  0.00    +0.000 C 
BRANCH  21  22
ATOM     22  C   UNL     1       1.244   2.226  18.749  0.00  0.00    +0.000 C 
BRANCH  22  23
ATOM     23  O   UNL     1       2.444   1.488  18.553  0.00  0.00    +0.000 OA
ATOM     24  H   UNL     1       2.464   0.773  19.211  0.00  0.00    +0.000 HD
ENDBRANCH  22  23
ENDBRANCH  21  22
ENDBRANCH  20  21
ENDBRANCH  19  20
ENDBRANCH   4  19
TORSDOF 8
ENDMDL
MODEL 3
REMARK VINA RESULT:      -6.4      1.045      1.045
REMARK  Name = 
REMARK  8 active torsions:
REMARK  status: ('A' for Active; 'I' for Inactive)
REMARK    1  A    between atoms: C_2  and  C_3
REMARK    2  A    between atoms: C_3  and  N_4
REMARK    3  A    between atoms: N_7  and  C_8
REMARK    4  A    between atoms: C_8  and  C_9
REMARK    5  A    between atoms: C_9  and  C_10
REMARK    6  A    between atoms: C_10  and  C_11
REMARK    7  A    between atoms: C_11  and  O_12
REMARK    8  A    between atoms: C_18  and  O_19
REMARK                            x       y       z     vdW  Elec       q    Type
REMARK                         _______ _______ _______ _____ _____    ______ ____
ROOT
ATOM      1  N   UNL     1       4.924   4.917  16.321  0.00  0.00    +0.000 N 
ATOM      2  C   UNL     1       3.852   4.350  17.033  0.00  0.00    +0.000 A 
ATOM      3  O   UNL     1       2.821   3.891  16.565  0.00  0.00    +0.000 OA
ATOM      4  N   UNL     1       4.217   4.381  18.395  0.00  0.00    +0.000 N 
ATOM      5  C   UNL     1       5.520   4.891  18.503  0.00  0.00    +0.000 A 
ATOM      6  N   UNL     1       6.266   4.998  19.606  0.00  0.00    +0.000 NA
ATOM      7  C   UNL     1       7.503   5.476  19.387  0.00  0.00    +0.000 A 
ATOM      8  N   UNL     1       8.361   5.577  20.460  0.00  0.00    +0.000 N 
ATOM      9  N   UNL     1       7.996   5.878  18.197  0.00  0.00    +0.000 NA
ATOM     10  C   UNL     1       7.186   5.738  17.139  0.00  0.00    +0.000 A 
ATOM     11  C   UNL     1       5.932   5.233  17.235  0.00  0.00    +0.000 A 
ATOM     12  H   UNL     1       7.856   5.654  21.332  0.00  0.00    +0.000 HD
ATOM     13  H   UNL     1       9.090   6.252  20.276  0.00  0.00    +0.000 HD
ENDROOT
BRANCH  10  14
ATOM     14  O   UNL     1       7.741   6.130  15.969  0.00  0.00    +0.000 OA
ATOM     15  H   UNL     1       8.444   5.464  15.865  0.00  0.00    +0.000 HD
ENDBRANCH  10  14
BRANCH   1  16
ATOM     16  C   UNL     1       5.028   4.988  14.887  0.00  0.00    +0.000 C 
BRANCH  16  18
ATOM     17  C   UNL     1       6.207   3.671  13.100  0.00  0.00    +0.000 C 
ATOM     18  C   UNL     1       5.824   3.826  14.377  0.00  0.00    +0.000 C 
ENDBRANCH  16  18
ENDBRANCH   1  16
BRANCH   4  19
ATOM     19  C   UNL     1       3.444   3.826  19.477  0.00  0.00    +0.000 C 
BRANCH  19  20
ATOM     20  C   UNL     1       2.329   4.738  19.996  0.00  0.00    +0.000 C 
BRANCH  20  21
ATOM     21  C   UNL     1       1.152   4.018  20.661  0.00  0.00    +0.000 C 
BRANCH  21  22
ATOM     22  C   UNL     1       1.419   2.550  20.969  0.00  0.00    +0.000 C 
BRANCH  22  23
ATOM     23  O   UNL     1       1.497   2.364  22.378  0.00  0.00    +0.000 OA
ATOM     24  H   UNL     1       2.080   3.054  22.736  0.00  0.00    +0.000 HD
ENDBRANCH  22  23
ENDBRANCH  21  22
ENDBRANCH  20  21
ENDBRANCH  19  20
ENDBRANCH   4  19
TORSDOF 8
ENDMDL
MODEL 4
REMARK VINA RESULT:      -6.4      2.526      3.363
REMARK  Name = 
REMARK  8 active torsions:
REMARK  status: ('A' for Active; 'I' for Inactive)
REMARK    1  A    between atoms: C_2  and  C_3
REMARK    2  A    between atoms: C_3  and  N_4
REMARK    3  A    between atoms: N_7  and  C_8
REMARK    4  A    between atoms: C_8  and  C_9
REMARK    5  A    between atoms: C_9  and  C_10
REMARK    6  A    between atoms: C_10  and  C_11
REMARK    7  A    between atoms: C_11  and  O_12
REMARK    8  A    between atoms: C_18  and  O_19
REMARK                            x       y       z     vdW  Elec       q    Type
REMARK                         _______ _______ _______ _____ _____    ______ ____
ROOT
ATOM      1  N   UNL     1       4.774   4.666  18.275  0.00  0.00    +0.000 N 
ATOM      2  C   UNL     1       4.358   3.905  19.382  0.00  0.00    +0.000 A 
ATOM      3  O   UNL     1       4.848   2.859  19.780  0.00  0.00    +0.000 OA
ATOM      4  N   UNL     1       3.283   4.606  19.966  0.00  0.00    +0.000 N 
ATOM      5  C   UNL     1       3.096   5.811  19.271  0.00  0.00    +0.000 A 
ATOM      6  N   UNL     1       2.245   6.798  19.562  0.00  0.00    +0.000 NA
ATOM      7  C   UNL     1       2.334   7.858  18.740  0.00  0.00    +0.000 A 
ATOM      8  N   UNL     1       1.526   8.946  18.992  0.00  0.00    +0.000 N 
ATOM      9  N   UNL     1       3.148   7.964  17.670  0.00  0.00    +0.000 NA
ATOM     10  C   UNL     1       3.972   6.931  17.446  0.00  0.00    +0.000 A 
ATOM     11  C   UNL     1       3.997   5.826  18.230  0.00  0.00    +0.000 A 
ATOM     12  H   UNL     1       0.699   8.681  19.510  0.00  0.00    +0.000 HD
ATOM     13  H   UNL     1       1.402   9.503  18.158  0.00  0.00    +0.000 HD
ENDROOT
BRANCH  10  14
ATOM     14  O   UNL     1       4.785   7.102  16.378  0.00  0.00    +0.000 OA
ATOM     15  H   UNL     1       5.089   6.189  16.228  0.00  0.00    +0.000 HD
ENDBRANCH  10  14
BRANCH   1  16
ATOM     16  C   UNL     1       5.918   4.380  17.449  0.00  0.00    +0.000 C 
BRANCH  16  18
ATOM     17  C   UNL     1       5.954   4.037  14.960  0.00  0.00    +0.000 C 
ATOM     18  C   UNL     1       5.476   3.729  16.175  0.00  0.00    +0.000 C 
ENDBRANCH  16  18
ENDBRANCH   1  16
BRANCH   4  19
ATOM     19  C   UNL     1       2.602   4.226  21.178  0.00  0.00    +0.000 C 
BRANCH  19  20
ATOM     20  C   UNL     1       1.609   3.071  21.015  0.00  0.00    +0.000 C 
BRANCH  20  21
ATOM     21  C   UNL     1       0.637   3.205  19.841  0.00  0.00    +0.000 C 
BRANCH  21  22
ATOM     22  C   UNL     1       1.011   2.363  18.627  0.00  0.00    +0.000 C 
BRANCH  22  23
ATOM     23  O   UNL     1       2.057   1.463  18.974  0.00  0.00    +0.000 OA
ATOM     24  H   UNL     1       2.290   0.957  18.177  0.00  0.00    +0.000 HD
ENDBRANCH  22  23
ENDBRANCH  21  22
ENDBRANCH  20  21
ENDBRANCH  19  20
ENDBRANCH   4  19
TORSDOF 8
ENDMDL
MODEL 5
REMARK VINA RESULT:      -6.2      2.905      5.833
REMARK  Name = 
REMARK  8 active torsions:
REMARK  status: ('A' for Active; 'I' for Inactive)
REMARK    1  A    between atoms: C_2  and  C_3
REMARK    2  A    between atoms: C_3  and  N_4
REMARK    3  A    between atoms: N_7  and  C_8
REMARK    4  A    between atoms: C_8  and  C_9
REMARK    5  A    between atoms: C_9  and  C_10
REMARK    6  A    between atoms: C_10  and  C_11
REMARK    7  A    between atoms: C_11  and  O_12
REMARK    8  A    between atoms: C_18  and  O_19
REMARK                            x       y       z     vdW  Elec       q    Type
REMARK                         _______ _______ _______ _____ _____    ______ ____
ROOT
ATOM      1  N   UNL     1       3.477   4.894  19.442  0.00  0.00    +0.000 N 
ATOM      2  C   UNL     1       4.291   4.534  18.352  0.00  0.00    +0.000 A 
ATOM      3  O   UNL     1       4.825   3.452  18.162  0.00  0.00    +0.000 OA
ATOM      4  N   UNL     1       4.339   5.657  17.502  0.00  0.00    +0.000 N 
ATOM      5  C   UNL     1       3.509   6.660  18.027  0.00  0.00    +0.000 A 
ATOM      6  N   UNL     1       3.207   7.840  17.481  0.00  0.00    +0.000 NA
ATOM      7  C   UNL     1       2.335   8.570  18.198  0.00  0.00    +0.000 A 
ATOM      8  N   UNL     1       1.929   9.784  17.688  0.00  0.00    +0.000 N 
ATOM      9  N   UNL     1       1.812   8.227  19.393  0.00  0.00    +0.000 NA
ATOM     10  C   UNL     1       2.164   7.027  19.874  0.00  0.00    +0.000 A 
ATOM     11  C   UNL     1       3.007   6.191  19.220  0.00  0.00    +0.000 A 
ATOM     12  H   UNL     1       2.610  10.162  17.044  0.00  0.00    +0.000 HD
ATOM     13  H   UNL     1       1.588  10.387  18.423  0.00  0.00    +0.000 HD
ENDROOT
BRANCH  10  14
ATOM     14  O   UNL     1       1.589   6.723  21.060  0.00  0.00    +0.000 OA
ATOM     15  H   UNL     1       2.370   6.491  21.592  0.00  0.00    +0.000 HD
ENDBRANCH  10  14
BRANCH   1  16
ATOM     16  C   UNL     1       3.064   4.012  20.501  0.00  0.00    +0.000 C 
BRANCH  16  18
ATOM     17  C   UNL     1       0.675   3.406  20.009  0.00  0.00    +0.000 C 
ATOM     18  C   UNL     1       1.981   3.100  20.011  0.00  0.00    +0.000 C 
ENDBRANCH  16  18
ENDBRANCH   1  16
BRANCH   4  19
ATOM     19  C   UNL     1       4.999   5.705  16.222  0.00  0.00    +0.000 C 
BRANCH  19  20
ATOM     20  C   UNL     1       6.529   5.727  16.294  0.00  0.00    +0.000 C 
BRANCH  20  21
ATOM     21  C   UNL     1       7.117   6.542  17.449  0.00  0.00    +0.000 C 
BRANCH  21  22
ATOM     22  C   UNL     1       7.755   5.694  18.542  0.00  0.00    +0.000 C 
BRANCH  22  23
ATOM     23  O   UNL     1       7.680   4.319  18.186  0.00  0.00    +0.000 OA
ATOM     24  H   UNL     1       7.405   3.822  18.975  0.00  0.00    +0.000 HD
ENDBRANCH  22  23
ENDBRANCH  21  22
ENDBRANCH  20  21
ENDBRANCH  19  20
ENDBRANCH   4  19
TORSDOF 8
ENDMDL
MODEL 6
REMARK VINA RESULT:      -6.2      1.077      1.392
REMARK  Name = 
REMARK  8 active torsions:
REMARK  status: ('A' for Active; 'I' for Inactive)
REMARK    1  A    between atoms: C_2  and  C_3
REMARK    2  A    between atoms: C_3  and  N_4
REMARK    3  A    between atoms: N_7  and  C_8
REMARK    4  A    between atoms: C_8  and  C_9
REMARK    5  A    between atoms: C_9  and  C_10
REMARK    6  A    between atoms: C_10  and  C_11
REMARK    7  A    between atoms: C_11  and  O_12
REMARK    8  A    between atoms: C_18  and  O_19
REMARK                            x       y       z     vdW  Elec       q    Type
REMARK                         _______ _______ _______ _____ _____    ______ ____
ROOT
ATOM      1  N   UNL     1       4.990   4.699  16.417  0.00  0.00    +0.000 N 
ATOM      2  C   UNL     1       4.022   3.908  17.062  0.00  0.00    +0.000 A 
ATOM      3  O   UNL     1       3.076   3.336  16.541  0.00  0.00    +0.000 OA
ATOM      4  N   UNL     1       4.378   3.876  18.426  0.00  0.00    +0.000 N 
ATOM      5  C   UNL     1       5.584   4.574  18.597  0.00  0.00    +0.000 A 
ATOM      6  N   UNL     1       6.304   4.699  19.714  0.00  0.00    +0.000 NA
ATOM      7  C   UNL     1       7.450   5.384  19.554  0.00  0.00    +0.000 A 
ATOM      8  N   UNL     1       8.281   5.524  20.644  0.00  0.00    +0.000 N 
ATOM      9  N   UNL     1       7.872   5.963  18.412  0.00  0.00    +0.000 NA
ATOM     10  C   UNL     1       7.094   5.791  17.335  0.00  0.00    +0.000 A 
ATOM     11  C   UNL     1       5.936   5.088  17.369  0.00  0.00    +0.000 A 
ATOM     12  H   UNL     1       7.771   5.441  21.513  0.00  0.00    +0.000 HD
ATOM     13  H   UNL     1       8.894   6.319  20.530  0.00  0.00    +0.000 HD
ENDROOT
BRANCH  10  14
ATOM     14  O   UNL     1       7.579   6.369  16.211  0.00  0.00    +0.000 OA
ATOM     15  H   UNL     1       8.499   6.545  16.476  0.00  0.00    +0.000 HD
ENDBRANCH  10  14
BRANCH   1  16
ATOM     16  C   UNL     1       5.081   4.912  14.996  0.00  0.00    +0.000 C 
BRANCH  16  18
ATOM     17  C   UNL     1       6.225   3.777  13.069  0.00  0.00    +0.000 C 
ATOM     18  C   UNL     1       5.912   3.834  14.372  0.00  0.00    +0.000 C 
ENDBRANCH  16  18
ENDBRANCH   1  16
BRANCH   4  19
ATOM     19  C   UNL     1       3.704   3.112  19.444  0.00  0.00    +0.000 C 
BRANCH  19  20
ATOM     20  C   UNL     1       2.308   3.626  19.808  0.00  0.00    +0.000 C 
BRANCH  20  21
ATOM     21  C   UNL     1       2.260   4.620  20.971  0.00  0.00    +0.000 C 
BRANCH  21  22
ATOM     22  C   UNL     1       1.788   6.014  20.576  0.00  0.00    +0.000 C 
BRANCH  22  23
ATOM     23  O   UNL     1       2.685   6.570  19.623  0.00  0.00    +0.000 OA
ATOM     24  H   UNL     1       2.430   7.497  19.480  0.00  0.00    +0.000 HD
ENDBRANCH  22  23
ENDBRANCH  21  22
ENDBRANCH  20  21
ENDBRANCH  19  20
ENDBRANCH   4  19
TORSDOF 8
ENDMDL
MODEL 7
REMARK VINA RESULT:      -6.1      3.393      4.883
REMARK  Name = 
REMARK  8 active torsions:
REMARK  status: ('A' for Active; 'I' for Inactive)
REMARK    1  A    between atoms: C_2  and  C_3
REMARK    2  A    between atoms: C_3  and  N_4
REMARK    3  A    between atoms: N_7  and  C_8
REMARK    4  A    between atoms: C_8  and  C_9
REMARK    5  A    between atoms: C_9  and  C_10
REMARK    6  A    between atoms: C_10  and  C_11
REMARK    7  A    between atoms: C_11  and  O_12
REMARK    8  A    between atoms: C_18  and  O_19
REMARK                            x       y       z     vdW  Elec       q    Type
REMARK                         _______ _______ _______ _____ _____    ______ ____
ROOT
ATOM      1  N   UNL     1       4.805   4.777  17.475  0.00  0.00    +0.000 N 
ATOM      2  C   UNL     1       4.548   6.144  17.682  0.00  0.00    +0.000 A 
ATOM      3  O   UNL     1       5.186   7.086  17.238  0.00  0.00    +0.000 OA
ATOM      4  N   UNL     1       3.384   6.215  18.474  0.00  0.00    +0.000 N 
ATOM      5  C   UNL     1       2.898   4.915  18.685  0.00  0.00    +0.000 A 
ATOM      6  N   UNL     1       1.772   4.554  19.304  0.00  0.00    +0.000 NA
ATOM      7  C   UNL     1       1.543   3.230  19.300  0.00  0.00    +0.000 A 
ATOM      8  N   UNL     1       0.380   2.768  19.876  0.00  0.00    +0.000 N 
ATOM      9  N   UNL     1       2.360   2.288  18.783  0.00  0.00    +0.000 NA
ATOM     10  C   UNL     1       3.470   2.731  18.179  0.00  0.00    +0.000 A 
ATOM     11  C   UNL     1       3.784   4.046  18.089  0.00  0.00    +0.000 A 
ATOM     12  H   UNL     1       0.026   3.416  20.567  0.00  0.00    +0.000 HD
ATOM     13  H   UNL     1       0.470   1.797  20.141  0.00  0.00    +0.000 HD
ENDROOT
BRANCH  10  14
ATOM     14  O   UNL     1       4.237   1.747  17.654  0.00  0.00    +0.000 OA
ATOM     15  H   UNL     1       3.714   1.502  16.870  0.00  0.00    +0.000 HD
ENDBRANCH  10  14
BRANCH   1  16
ATOM     16  C   UNL     1       5.838   4.241  16.627  0.00  0.00    +0.000 C 
BRANCH  16  18
ATOM     17  C   UNL     1       6.171   3.940  14.155  0.00  0.00    +0.000 C 
ATOM     18  C   UNL     1       5.432   4.365  15.191  0.00  0.00    +0.000 C 
ENDBRANCH  16  18
ENDBRANCH   1  16
BRANCH   4  19
ATOM     19  C   UNL     1       2.713   7.430  18.862  0.00  0.00    +0.000 C 
BRANCH  19  20
ATOM     20  C   UNL     1       2.030   8.175  17.711  0.00  0.00    +0.000 C 
BRANCH  20  21
ATOM     21  C   UNL     1       1.828   9.676  17.933  0.00  0.00    +0.000 C 
BRANCH  21  22
ATOM     22  C   UNL     1       0.485  10.034  18.560  0.00  0.00    +0.000 C 
BRANCH  22  23
ATOM     23  O   UNL     1      -0.513  10.096  17.548  0.00  0.00    +0.000 OA
ATOM     24  H   UNL     1      -0.276   9.455  16.858  0.00  0.00    +0.000 HD
ENDBRANCH  22  23
ENDBRANCH  21  22
ENDBRANCH  20  21
ENDBRANCH  19  20
ENDBRANCH   4  19
TORSDOF 8
ENDMDL
MODEL 8
REMARK VINA RESULT:      -6.1      3.150      6.024
REMARK  Name = 
REMARK  8 active torsions:
REMARK  status: ('A' for Active; 'I' for Inactive)
REMARK    1  A    between atoms: C_2  and  C_3
REMARK    2  A    between atoms: C_3  and  N_4
REMARK    3  A    between atoms: N_7  and  C_8
REMARK    4  A    between atoms: C_8  and  C_9
REMARK    5  A    between atoms: C_9  and  C_10
REMARK    6  A    between atoms: C_10  and  C_11
REMARK    7  A    between atoms: C_11  and  O_12
REMARK    8  A    between atoms: C_18  and  O_19
REMARK                            x       y       z     vdW  Elec       q    Type
REMARK                         _______ _______ _______ _____ _____    ______ ____
ROOT
ATOM      1  N   UNL     1       3.065   5.146  19.845  0.00  0.00    +0.000 N 
ATOM      2  C   UNL     1       3.852   4.615  18.808  0.00  0.00    +0.000 A 
ATOM      3  O   UNL     1       4.296   3.480  18.731  0.00  0.00    +0.000 OA
ATOM      4  N   UNL     1       3.999   5.643  17.854  0.00  0.00    +0.000 N 
ATOM      5  C   UNL     1       3.253   6.757  18.267  0.00  0.00    +0.000 A 
ATOM      6  N   UNL     1       3.053   7.899  17.604  0.00  0.00    +0.000 NA
ATOM      7  C   UNL     1       2.241   8.764  18.234  0.00  0.00    +0.000 A 
ATOM      8  N   UNL     1       1.940   9.951  17.603  0.00  0.00    +0.000 N 
ATOM      9  N   UNL     1       1.683   8.584  19.449  0.00  0.00    +0.000 NA
ATOM     10  C   UNL     1       1.931   7.413  20.049  0.00  0.00    +0.000 A 
ATOM     11  C   UNL     1       2.705   6.450  19.492  0.00  0.00    +0.000 A 
ATOM     12  H   UNL     1       2.654  10.208  16.935  0.00  0.00    +0.000 HD
ATOM     13  H   UNL     1       1.646  10.650  18.271  0.00  0.00    +0.000 HD
ENDROOT
BRANCH  10  14
ATOM     14  O   UNL     1       1.325   7.275  21.251  0.00  0.00    +0.000 OA
ATOM     15  H   UNL     1       0.918   6.396  21.154  0.00  0.00    +0.000 HD
ENDBRANCH  10  14
BRANCH   1  16
ATOM     16  C   UNL     1       2.572   4.410  20.979  0.00  0.00    +0.000 C 
BRANCH  16  18
ATOM     17  C   UNL     1       0.901   3.015  19.723  0.00  0.00    +0.000 C 
ATOM     18  C   UNL     1       1.196   3.894  20.693  0.00  0.00    +0.000 C 
ENDBRANCH  16  18
ENDBRANCH   1  16
BRANCH   4  19
ATOM     19  C   UNL     1       4.669   5.510  16.584  0.00  0.00    +0.000 C 
BRANCH  19  20
ATOM     20  C   UNL     1       6.185   5.720  16.639  0.00  0.00    +0.000 C 
BRANCH  20  21
ATOM     21  C   UNL     1       7.013   4.720  15.827  0.00  0.00    +0.000 C 
BRANCH  21  22
ATOM     22  C   UNL     1       6.670   4.693  14.342  0.00  0.00    +0.000 C 
BRANCH  22  23
ATOM     23  O   UNL     1       6.351   3.364  13.950  0.00  0.00    +0.000 OA
ATOM     24  H   UNL     1       7.149   2.970  13.561  0.00  0.00    +0.000 HD
ENDBRANCH  22  23
ENDBRANCH  21  22
ENDBRANCH  20  21
ENDBRANCH  19  20
ENDBRANCH   4  19
TORSDOF 8
ENDMDL
MODEL 9
REMARK VINA RESULT:      -6.1      3.050      4.751
REMARK  Name = 
REMARK  8 active torsions:
REMARK  status: ('A' for Active; 'I' for Inactive)
REMARK    1  A    between atoms: C_2  and  C_3
REMARK    2  A    between atoms: C_3  and  N_4
REMARK    3  A    between atoms: N_7  and  C_8
REMARK    4  A    between atoms: C_8  and  C_9
REMARK    5  A    between atoms: C_9  and  C_10
REMARK    6  A    between atoms: C_10  and  C_11
REMARK    7  A    between atoms: C_11  and  O_12
REMARK    8  A    between atoms: C_18  and  O_19
REMARK                            x       y       z     vdW  Elec       q    Type
REMARK                         _______ _______ _______ _____ _____    ______ ____
ROOT
ATOM      1  N   UNL     1       5.099   5.101  17.923  0.00  0.00    +0.000 N 
ATOM      2  C   UNL     1       4.495   6.254  17.390  0.00  0.00    +0.000 A 
ATOM      3  O   UNL     1       4.966   7.007  16.551  0.00  0.00    +0.000 OA
ATOM      4  N   UNL     1       3.223   6.352  17.990  0.00  0.00    +0.000 N 
ATOM      5  C   UNL     1       3.025   5.237  18.818  0.00  0.00    +0.000 A 
ATOM      6  N   UNL     1       1.920   4.905  19.491  0.00  0.00    +0.000 NA
ATOM      7  C   UNL     1       2.013   3.742  20.159  0.00  0.00    +0.000 A 
ATOM      8  N   UNL     1       0.905   3.295  20.845  0.00  0.00    +0.000 N 
ATOM      9  N   UNL     1       3.106   2.955  20.228  0.00  0.00    +0.000 NA
ATOM     10  C   UNL     1       4.174   3.357  19.525  0.00  0.00    +0.000 A 
ATOM     11  C   UNL     1       4.182   4.493  18.786  0.00  0.00    +0.000 A 
ATOM     12  H   UNL     1       0.289   4.059  21.092  0.00  0.00    +0.000 HD
ATOM     13  H   UNL     1       1.169   2.647  21.574  0.00  0.00    +0.000 HD
ENDROOT
BRANCH  10  14
ATOM     14  O   UNL     1       5.232   2.517  19.609  0.00  0.00    +0.000 OA
ATOM     15  H   UNL     1       5.497   2.645  20.536  0.00  0.00    +0.000 HD
ENDBRANCH  10  14
BRANCH   1  16
ATOM     16  C   UNL     1       6.364   4.554  17.510  0.00  0.00    +0.000 C 
BRANCH  16  18
ATOM     17  C   UNL     1       7.748   5.796  19.200  0.00  0.00    +0.000 C 
ATOM     18  C   UNL     1       7.475   5.468  17.929  0.00  0.00    +0.000 C 
ENDBRANCH  16  18
ENDBRANCH   1  16
BRANCH   4  19
ATOM     19  C   UNL     1       2.228   7.345  17.673  0.00  0.00    +0.000 C 
BRANCH  19  20
ATOM     20  C   UNL     1       2.337   8.638  18.487  0.00  0.00    +0.000 C 
BRANCH  20  21
ATOM     21  C   UNL     1       1.130   8.956  19.373  0.00  0.00    +0.000 C 
BRANCH  21  22
ATOM     22  C   UNL     1       1.373   8.717  20.859  0.00  0.00    +0.000 C 
BRANCH  22  23
ATOM     23  O   UNL     1       1.603   7.333  21.089  0.00  0.00    +0.000 OA
ATOM     24  H   UNL     1       1.608   7.188  22.050  0.00  0.00    +0.000 HD
ENDBRANCH  22  23
ENDBRANCH  21  22
ENDBRANCH  20  21
ENDBRANCH  19  20
ENDBRANCH   4  19
TORSDOF 8
ENDMDL
