MODEL 1
REMARK VINA RESULT:      -7.9      0.000      0.000
REMARK  Name = 
REMARK  10 active torsions:
REMARK  status: ('A' for Active; 'I' for Inactive)
REMARK    1  A    between atoms: C_1  and  O_2
REMARK    2  A    between atoms: O_2  and  C_3
REMARK    3  A    between atoms: C_6  and  S_7
REMARK    4  A    between atoms: S_7  and  N_10
REMARK    5  A    between atoms: N_10  and  C_11
REMARK    6  A    between atoms: C_11  and  C_12
REMARK    7  A    between atoms: N_14  and  C_15
REMARK    8  A    between atoms: C_19  and  C_20
REMARK    9  A    between atoms: C_25  and  O_26
REMARK   10  A    between atoms: O_26  and  C_27
REMARK                            x       y       z     vdW  Elec       q    Type
REMARK                         _______ _______ _______ _____ _____    ______ ____
ROOT
ATOM      1  C   UNL     1       2.674   4.289  20.413  0.00  0.00    +0.000 C 
ENDROOT
BRANCH   1   2
ATOM      2  C   UNL     1       2.227   5.453  19.546  0.00  0.00    +0.000 C 
ATOM      3  O   UNL     1       1.789   5.235  18.416  0.00  0.00    +0.000 OA
ATOM      4  N   UNL     1       2.376   6.696  20.141  0.00  0.00    +0.000 N 
ATOM      5  H   UNL     1       2.932   6.719  20.991  0.00  0.00    +0.000 HD
BRANCH   4   6
ATOM      6  C   UNL     1       1.952   7.933  19.597  0.00  0.00    +0.000 A 
ATOM      7  C   UNL     1       2.258   8.327  18.289  0.00  0.00    +0.000 A 
ATOM      8  C   UNL     1       1.832   9.559  17.790  0.00  0.00    +0.000 A 
ATOM      9  C   UNL     1       1.093  10.420  18.593  0.00  0.00    +0.000 A 
ATOM     10  C   UNL     1       0.774  10.044  19.901  0.00  0.00    +0.000 A 
ATOM     11  C   UNL     1       1.184   8.792  20.395  0.00  0.00    +0.000 A 
BRANCH  10  12
ATOM     12  C   UNL     1       0.002  10.977  20.772  0.00  0.00    +0.000 C 
ATOM     13  N   UNL     1       0.471  11.463  21.880  0.00  0.00    +0.000 NA
ATOM     14  N   UNL     1      -1.254  11.369  20.430  0.00  0.00    +0.000 N 
ATOM     15  H   UNL     1       1.399  11.088  22.097  0.00  0.00    +0.000 HD
ATOM     16  H   UNL     1      -1.396  11.569  19.448  0.00  0.00    +0.000 HD
ATOM     17  H   UNL     1      -1.551  12.143  21.017  0.00  0.00    +0.000 HD
ENDBRANCH  10  12
ENDBRANCH   4   6
ENDBRANCH   1   2
BRANCH   1  18
ATOM     18  N   UNL     1       2.594   3.025  19.659  0.00  0.00    +0.000 NA
ATOM     19  H   UNL     1       2.007   2.311  20.095  0.00  0.00    +0.000 HD
BRANCH  18  20
ATOM     20  S   UNL     1       4.076   2.373  19.180  0.00  0.00    +0.000 S 
ATOM     21  O   UNL     1       3.821   1.387  18.156  0.00  0.00    +0.000 OA
ATOM     22  O   UNL     1       4.783   2.043  20.397  0.00  0.00    +0.000 OA
BRANCH  20  26
ATOM     23  C   UNL     1       6.557   5.680  17.229  0.00  0.00    +0.000 A 
ATOM     24  C   UNL     1       6.549   5.518  18.624  0.00  0.00    +0.000 A 
ATOM     25  C   UNL     1       5.757   4.542  19.230  0.00  0.00    +0.000 A 
ATOM     26  C   UNL     1       4.922   3.753  18.442  0.00  0.00    +0.000 A 
ATOM     27  C   UNL     1       4.854   3.965  17.062  0.00  0.00    +0.000 A 
ATOM     28  C   UNL     1       5.656   4.939  16.445  0.00  0.00    +0.000 A 
BRANCH  23  30
ATOM     29  C   UNL     1       7.652   7.772  17.359  0.00  0.00    +0.000 C 
ATOM     30  O   UNL     1       7.423   6.560  16.637  0.00  0.00    +0.000 OA
ENDBRANCH  23  30
BRANCH  28  31
ATOM     31  O   UNL     1       5.446   4.995  15.093  0.00  0.00    +0.000 OA
ATOM     32  C   UNL     1       6.194   4.144  14.236  0.00  0.00    +0.000 C 
ENDBRANCH  28  31
ENDBRANCH  20  26
ENDBRANCH  18  20
ENDBRANCH   1  18
TORSDOF 8
ENDMDL
MODEL 2
REMARK VINA RESULT:      -7.9      1.245      1.821
REMARK  Name = 
REMARK  10 active torsions:
REMARK  status: ('A' for Active; 'I' for Inactive)
REMARK    1  A    between atoms: C_1  and  O_2
REMARK    2  A    between atoms: O_2  and  C_3
REMARK    3  A    between atoms: C_6  and  S_7
REMARK    4  A    between atoms: S_7  and  N_10
REMARK    5  A    between atoms: N_10  and  C_11
REMARK    6  A    between atoms: C_11  and  C_12
REMARK    7  A    between atoms: N_14  and  C_15
REMARK    8  A    between atoms: C_19  and  C_20
REMARK    9  A    between atoms: C_25  and  O_26
REMARK   10  A    between atoms: O_26  and  C_27
REMARK                            x       y       z     vdW  Elec       q    Type
REMARK                         _______ _______ _______ _____ _____    ______ ____
ROOT
ATOM      1  C   UNL     1       2.626   4.377  20.554  0.00  0.00    +0.000 C 
ENDROOT
BRANCH   1   2
ATOM      2  C   UNL     1       2.140   5.740  20.095  0.00  0.00    +0.000 C 
ATOM      3  O   UNL     1       2.105   5.999  18.892  0.00  0.00    +0.000 OA
ATOM      4  N   UNL     1       1.779   6.593  21.127  0.00  0.00    +0.000 N 
ATOM      5  H   UNL     1       2.052   6.302  22.061  0.00  0.00    +0.000 HD
BRANCH   4   6
ATOM      6  C   UNL     1       1.205   7.879  20.978  0.00  0.00    +0.000 A 
ATOM      7  C   UNL     1       0.319   8.422  21.915  0.00  0.00    +0.000 A 
ATOM      8  C   UNL     1      -0.237   9.689  21.731  0.00  0.00    +0.000 A 
ATOM      9  C   UNL     1       0.084  10.435  20.602  0.00  0.00    +0.000 A 
ATOM     10  C   UNL     1       0.970   9.912  19.656  0.00  0.00    +0.000 A 
ATOM     11  C   UNL     1       1.547   8.644  19.855  0.00  0.00    +0.000 A 
BRANCH  10  12
ATOM     12  C   UNL     1       1.297  10.701  18.433  0.00  0.00    +0.000 C 
ATOM     13  N   UNL     1       1.997  10.224  17.450  0.00  0.00    +0.000 NA
ATOM     14  N   UNL     1       0.861  11.981  18.293  0.00  0.00    +0.000 N 
ATOM     15  H   UNL     1       2.331   9.276  17.644  0.00  0.00    +0.000 HD
ATOM     16  H   UNL     1      -0.083  12.157  18.612  0.00  0.00    +0.000 HD
ATOM     17  H   UNL     1       1.001  12.296  17.338  0.00  0.00    +0.000 HD
ENDBRANCH  10  12
ENDBRANCH   4   6
ENDBRANCH   1   2
BRANCH   1  18
ATOM     18  N   UNL     1       2.541   3.402  19.451  0.00  0.00    +0.000 NA
ATOM     19  H   UNL     1       1.821   2.687  19.577  0.00  0.00    +0.000 HD
BRANCH  18  20
ATOM     20  S   UNL     1       4.006   2.703  18.988  0.00  0.00    +0.000 S 
ATOM     21  O   UNL     1       3.737   1.766  17.923  0.00  0.00    +0.000 OA
ATOM     22  O   UNL     1       4.666   2.301  20.210  0.00  0.00    +0.000 OA
BRANCH  20  26
ATOM     23  C   UNL     1       6.684   5.971  17.241  0.00  0.00    +0.000 A 
ATOM     24  C   UNL     1       6.570   5.804  18.632  0.00  0.00    +0.000 A 
ATOM     25  C   UNL     1       5.718   4.841  19.172  0.00  0.00    +0.000 A 
ATOM     26  C   UNL     1       4.929   4.070  18.320  0.00  0.00    +0.000 A 
ATOM     27  C   UNL     1       4.966   4.289  16.941  0.00  0.00    +0.000 A 
ATOM     28  C   UNL     1       5.829   5.251  16.389  0.00  0.00    +0.000 A 
BRANCH  23  30
ATOM     29  C   UNL     1       7.835   8.023  17.484  0.00  0.00    +0.000 C 
ATOM     30  O   UNL     1       7.607   6.837  16.719  0.00  0.00    +0.000 OA
ENDBRANCH  23  30
BRANCH  28  31
ATOM     31  O   UNL     1       5.719   5.317  15.026  0.00  0.00    +0.000 OA
ATOM     32  C   UNL     1       6.496   4.439  14.222  0.00  0.00    +0.000 C 
ENDBRANCH  28  31
ENDBRANCH  20  26
ENDBRANCH  18  20
ENDBRANCH   1  18
TORSDOF 8
ENDMDL
MODEL 3
REMARK VINA RESULT:      -7.8      3.302      8.073
REMARK  Name = 
REMARK  10 active torsions:
REMARK  status: ('A' for Active; 'I' for Inactive)
REMARK    1  A    between atoms: C_1  and  O_2
REMARK    2  A    between atoms: O_2  and  C_3
REMARK    3  A    between atoms: C_6  and  S_7
REMARK    4  A    between atoms: S_7  and  N_10
REMARK    5  A    between atoms: N_10  and  C_11
REMARK    6  A    between atoms: C_11  and  C_12
REMARK    7  A    between atoms: N_14  and  C_15
REMARK    8  A    between atoms: C_19  and  C_20
REMARK    9  A    between atoms: C_25  and  O_26
REMARK   10  A    between atoms: O_26  and  C_27
REMARK                            x       y       z     vdW  Elec       q    Type
REMARK                         _______ _______ _______ _____ _____    ______ ____
ROOT
ATOM      1  C   UNL     1       5.174   4.181  19.093  0.00  0.00    +0.000 C 
ENDROOT
BRANCH   1   2
ATOM      2  C   UNL     1       6.076   4.330  17.880  0.00  0.00    +0.000 C 
ATOM      3  O   UNL     1       7.296   4.388  18.033  0.00  0.00    +0.000 OA
ATOM      4  N   UNL     1       5.398   4.399  16.672  0.00  0.00    +0.000 N 
ATOM      5  H   UNL     1       4.393   4.535  16.732  0.00  0.00    +0.000 HD
BRANCH   4   6
ATOM      6  C   UNL     1       5.993   4.441  15.387  0.00  0.00    +0.000 A 
ATOM      7  C   UNL     1       7.089   5.258  15.090  0.00  0.00    +0.000 A 
ATOM      8  C   UNL     1       7.643   5.282  13.809  0.00  0.00    +0.000 A 
ATOM      9  C   UNL     1       7.106   4.488  12.801  0.00  0.00    +0.000 A 
ATOM     10  C   UNL     1       6.013   3.662  13.078  0.00  0.00    +0.000 A 
ATOM     11  C   UNL     1       5.470   3.622  14.376  0.00  0.00    +0.000 A 
BRANCH  10  12
ATOM     12  C   UNL     1       5.421   2.828  11.993  0.00  0.00    +0.000 C 
ATOM     13  N   UNL     1       5.960   1.723  11.577  0.00  0.00    +0.000 NA
ATOM     14  N   UNL     1       4.264   3.198  11.383  0.00  0.00    +0.000 N 
ATOM     15  H   UNL     1       6.850   1.532  12.045  0.00  0.00    +0.000 HD
ATOM     16  H   UNL     1       3.552   3.579  11.993  0.00  0.00    +0.000 HD
ATOM     17  H   UNL     1       3.906   2.433  10.819  0.00  0.00    +0.000 HD
ENDBRANCH  10  12
ENDBRANCH   4   6
ENDBRANCH   1   2
BRANCH   1  18
ATOM     18  N   UNL     1       4.460   5.443  19.360  0.00  0.00    +0.000 NA
ATOM     19  H   UNL     1       4.712   5.889  20.244  0.00  0.00    +0.000 HD
BRANCH  18  20
ATOM     20  S   UNL     1       2.783   5.379  19.177  0.00  0.00    +0.000 S 
ATOM     21  O   UNL     1       2.230   4.747  20.352  0.00  0.00    +0.000 OA
ATOM     22  O   UNL     1       2.541   4.864  17.849  0.00  0.00    +0.000 OA
BRANCH  20  26
ATOM     23  C   UNL     1       1.169   9.655  19.080  0.00  0.00    +0.000 A 
ATOM     24  C   UNL     1       1.727   9.073  17.930  0.00  0.00    +0.000 A 
ATOM     25  C   UNL     1       2.265   7.786  17.965  0.00  0.00    +0.000 A 
ATOM     26  C   UNL     1       2.297   7.091  19.171  0.00  0.00    +0.000 A 
ATOM     27  C   UNL     1       1.827   7.694  20.341  0.00  0.00    +0.000 A 
ATOM     28  C   UNL     1       1.276   8.986  20.312  0.00  0.00    +0.000 A 
BRANCH  23  30
ATOM     29  C   UNL     1      -0.815  10.831  18.557  0.00  0.00    +0.000 C 
ATOM     30  O   UNL     1       0.541  10.869  19.009  0.00  0.00    +0.000 OA
ENDBRANCH  23  30
BRANCH  28  31
ATOM     31  O   UNL     1       0.875   9.401  21.553  0.00  0.00    +0.000 OA
ATOM     32  C   UNL     1      -0.388   8.984  22.052  0.00  0.00    +0.000 C 
ENDBRANCH  28  31
ENDBRANCH  20  26
ENDBRANCH  18  20
ENDBRANCH   1  18
TORSDOF 8
ENDMDL
MODEL 4
REMARK VINA RESULT:      -7.8      2.106      3.274
REMARK  Name = 
REMARK  10 active torsions:
REMARK  status: ('A' for Active; 'I' for Inactive)
REMARK    1  A    between atoms: C_1  and  O_2
REMARK    2  A    between atoms: O_2  and  C_3
REMARK    3  A    between atoms: C_6  and  S_7
REMARK    4  A    between atoms: S_7  and  N_10
REMARK    5  A    between atoms: N_10  and  C_11
REMARK    6  A    between atoms: C_11  and  C_12
REMARK    7  A    between atoms: N_14  and  C_15
REMARK    8  A    between atoms: C_19  and  C_20
REMARK    9  A    between atoms: C_25  and  O_26
REMARK   10  A    between atoms: O_26  and  C_27
REMARK                            x       y       z     vdW  Elec       q    Type
REMARK                         _______ _______ _______ _____ _____    ______ ____
ROOT
ATOM      1  C   UNL     1       1.740   6.706  20.538  0.00  0.00    +0.000 C 
ENDROOT
BRANCH   1   2
ATOM      2  C   UNL     1       1.645   8.017  19.777  0.00  0.00    +0.000 C 
ATOM      3  O   UNL     1       2.321   8.180  18.760  0.00  0.00    +0.000 OA
ATOM      4  N   UNL     1       0.776   8.939  20.339  0.00  0.00    +0.000 N 
ATOM      5  H   UNL     1       0.449   8.729  21.278  0.00  0.00    +0.000 HD
BRANCH   4   6
ATOM      6  C   UNL     1       0.427  10.195  19.786  0.00  0.00    +0.000 A 
ATOM      7  C   UNL     1       1.162  11.359  20.034  0.00  0.00    +0.000 A 
ATOM      8  C   UNL     1       0.782  12.583  19.480  0.00  0.00    +0.000 A 
ATOM      9  C   UNL     1      -0.344  12.662  18.669  0.00  0.00    +0.000 A 
ATOM     10  C   UNL     1      -1.091  11.511  18.406  0.00  0.00    +0.000 A 
ATOM     11  C   UNL     1      -0.693  10.274  18.946  0.00  0.00    +0.000 A 
BRANCH  10  12
ATOM     12  C   UNL     1      -2.313  11.599  17.555  0.00  0.00    +0.000 C 
ATOM     13  N   UNL     1      -3.480  11.917  18.024  0.00  0.00    +0.000 NA
ATOM     14  N   UNL     1      -2.251  11.348  16.220  0.00  0.00    +0.000 N 
ATOM     15  H   UNL     1      -3.461  12.045  19.040  0.00  0.00    +0.000 HD
ATOM     16  H   UNL     1      -1.436  11.714  15.745  0.00  0.00    +0.000 HD
ATOM     17  H   UNL     1      -3.113  11.641  15.769  0.00  0.00    +0.000 HD
ENDBRANCH  10  12
ENDBRANCH   4   6
ENDBRANCH   1   2
BRANCH   1  18
ATOM     18  N   UNL     1       2.982   5.995  20.183  0.00  0.00    +0.000 NA
ATOM     19  H   UNL     1       3.662   6.564  19.675  0.00  0.00    +0.000 HD
BRANCH  18  20
ATOM     20  S   UNL     1       2.770   4.499  19.430  0.00  0.00    +0.000 S 
ATOM     21  O   UNL     1       1.566   4.565  18.636  0.00  0.00    +0.000 OA
ATOM     22  O   UNL     1       2.953   3.500  20.458  0.00  0.00    +0.000 OA
BRANCH  20  26
ATOM     23  C   UNL     1       6.334   4.588  16.568  0.00  0.00    +0.000 A 
ATOM     24  C   UNL     1       5.035   4.357  16.087  0.00  0.00    +0.000 A 
ATOM     25  C   UNL     1       3.949   4.280  16.960  0.00  0.00    +0.000 A 
ATOM     26  C   UNL     1       4.167   4.382  18.333  0.00  0.00    +0.000 A 
ATOM     27  C   UNL     1       5.466   4.521  18.828  0.00  0.00    +0.000 A 
ATOM     28  C   UNL     1       6.563   4.608  17.954  0.00  0.00    +0.000 A 
BRANCH  23  30
ATOM     29  C   UNL     1       7.025   4.733  14.310  0.00  0.00    +0.000 C 
ATOM     30  O   UNL     1       7.373   4.777  15.696  0.00  0.00    +0.000 OA
ENDBRANCH  23  30
BRANCH  28  31
ATOM     31  O   UNL     1       7.747   4.741  18.629  0.00  0.00    +0.000 OA
ATOM     32  C   UNL     1       8.124   6.016  19.129  0.00  0.00    +0.000 C 
ENDBRANCH  28  31
ENDBRANCH  20  26
ENDBRANCH  18  20
ENDBRANCH   1  18
TORSDOF 8
ENDMDL
MODEL 5
REMARK VINA RESULT:      -7.8      0.951      1.031
REMARK  Name = 
REMARK  10 active torsions:
REMARK  status: ('A' for Active; 'I' for Inactive)
REMARK    1  A    between atoms: C_1  and  O_2
REMARK    2  A    between atoms: O_2  and  C_3
REMARK    3  A    between atoms: C_6  and  S_7
REMARK    4  A    between atoms: S_7  and  N_10
REMARK    5  A    between atoms: N_10  and  C_11
REMARK    6  A    between atoms: C_11  and  C_12
REMARK    7  A    between atoms: N_14  and  C_15
REMARK    8  A    between atoms: C_19  and  C_20
REMARK    9  A    between atoms: C_25  and  O_26
REMARK   10  A    between atoms: O_26  and  C_27
REMARK                            x       y       z     vdW  Elec       q    Type
REMARK                         _______ _______ _______ _____ _____    ______ ____
ROOT
ATOM      1  C   UNL     1       1.608   2.924  19.162  0.00  0.00    +0.000 C 
ENDROOT
BRANCH   1   2
ATOM      2  C   UNL     1       1.533   4.325  18.579  0.00  0.00    +0.000 C 
ATOM      3  O   UNL     1       1.084   4.488  17.444  0.00  0.00    +0.000 OA
ATOM      4  N   UNL     1       2.010   5.318  19.421  0.00  0.00    +0.000 N 
ATOM      5  H   UNL     1       2.525   5.001  20.238  0.00  0.00    +0.000 HD
BRANCH   4   6
ATOM      6  C   UNL     1       1.967   6.711  19.170  0.00  0.00    +0.000 A 
ATOM      7  C   UNL     1       2.449   7.279  17.985  0.00  0.00    +0.000 A 
ATOM      8  C   UNL     1       2.402   8.658  17.776  0.00  0.00    +0.000 A 
ATOM      9  C   UNL     1       1.871   9.494  18.751  0.00  0.00    +0.000 A 
ATOM     10  C   UNL     1       1.382   8.947  19.941  0.00  0.00    +0.000 A 
ATOM     11  C   UNL     1       1.410   7.555  20.141  0.00  0.00    +0.000 A 
BRANCH  10  12
ATOM     12  C   UNL     1       0.834   9.845  20.998  0.00  0.00    +0.000 C 
ATOM     13  N   UNL     1       1.249   9.824  22.228  0.00  0.00    +0.000 NA
ATOM     14  N   UNL     1      -0.141  10.747  20.709  0.00  0.00    +0.000 N 
ATOM     15  H   UNL     1       1.946   9.091  22.383  0.00  0.00    +0.000 HD
ATOM     16  H   UNL     1      -0.042  11.227  19.824  0.00  0.00    +0.000 HD
ATOM     17  H   UNL     1      -0.254  11.399  21.480  0.00  0.00    +0.000 HD
ENDBRANCH  10  12
ENDBRANCH   4   6
ENDBRANCH   1   2
BRANCH   1  18
ATOM     18  N   UNL     1       2.793   2.792  20.029  0.00  0.00    +0.000 NA
ATOM     19  H   UNL     1       3.002   3.623  20.586  0.00  0.00    +0.000 HD
BRANCH  18  20
ATOM     20  S   UNL     1       4.186   2.215  19.269  0.00  0.00    +0.000 S 
ATOM     21  O   UNL     1       3.780   1.298  18.229  0.00  0.00    +0.000 OA
ATOM     22  O   UNL     1       5.088   1.818  20.327  0.00  0.00    +0.000 OA
BRANCH  20  26
ATOM     23  C   UNL     1       6.302   5.743  17.276  0.00  0.00    +0.000 A 
ATOM     24  C   UNL     1       6.268   5.625  18.676  0.00  0.00    +0.000 A 
ATOM     25  C   UNL     1       5.583   4.577  19.291  0.00  0.00    +0.000 A 
ATOM     26  C   UNL     1       4.879   3.666  18.507  0.00  0.00    +0.000 A 
ATOM     27  C   UNL     1       4.831   3.825  17.120  0.00  0.00    +0.000 A 
ATOM     28  C   UNL     1       5.526   4.872  16.492  0.00  0.00    +0.000 A 
BRANCH  23  30
ATOM     29  C   UNL     1       7.588   7.708  17.558  0.00  0.00    +0.000 C 
ATOM     30  O   UNL     1       7.072   6.705  16.680  0.00  0.00    +0.000 OA
ENDBRANCH  23  30
BRANCH  28  31
ATOM     31  O   UNL     1       5.355   4.859  15.134  0.00  0.00    +0.000 OA
ATOM     32  C   UNL     1       6.045   3.892  14.355  0.00  0.00    +0.000 C 
ENDBRANCH  28  31
ENDBRANCH  20  26
ENDBRANCH  18  20
ENDBRANCH   1  18
TORSDOF 8
ENDMDL
MODEL 6
REMARK VINA RESULT:      -7.7      4.951      7.604
REMARK  Name = 
REMARK  10 active torsions:
REMARK  status: ('A' for Active; 'I' for Inactive)
REMARK    1  A    between atoms: C_1  and  O_2
REMARK    2  A    between atoms: O_2  and  C_3
REMARK    3  A    between atoms: C_6  and  S_7
REMARK    4  A    between atoms: S_7  and  N_10
REMARK    5  A    between atoms: N_10  and  C_11
REMARK    6  A    between atoms: C_11  and  C_12
REMARK    7  A    between atoms: N_14  and  C_15
REMARK    8  A    between atoms: C_19  and  C_20
REMARK    9  A    between atoms: C_25  and  O_26
REMARK   10  A    between atoms: O_26  and  C_27
REMARK                            x       y       z     vdW  Elec       q    Type
REMARK                         _______ _______ _______ _____ _____    ______ ____
ROOT
ATOM      1  C   UNL     1       7.095   7.663  17.509  0.00  0.00    +0.000 C 
ENDROOT
BRANCH   1   2
ATOM      2  C   UNL     1       8.162   8.393  18.306  0.00  0.00    +0.000 C 
ATOM      3  O   UNL     1       8.896   7.757  19.063  0.00  0.00    +0.000 OA
ATOM      4  N   UNL     1       8.193   9.763  18.095  0.00  0.00    +0.000 N 
ATOM      5  H   UNL     1       7.400  10.155  17.595  0.00  0.00    +0.000 HD
BRANCH   4   6
ATOM      6  C   UNL     1       9.144  10.665  18.632  0.00  0.00    +0.000 A 
ATOM      7  C   UNL     1       9.416  10.746  20.002  0.00  0.00    +0.000 A 
ATOM      8  C   UNL     1      10.352  11.655  20.498  0.00  0.00    +0.000 A 
ATOM      9  C   UNL     1      11.031  12.501  19.629  0.00  0.00    +0.000 A 
ATOM     10  C   UNL     1      10.777  12.434  18.256  0.00  0.00    +0.000 A 
ATOM     11  C   UNL     1       9.849  11.501  17.756  0.00  0.00    +0.000 A 
BRANCH  10  12
ATOM     12  C   UNL     1      11.487  13.357  17.325  0.00  0.00    +0.000 C 
ATOM     13  N   UNL     1      12.333  14.255  17.728  0.00  0.00    +0.000 NA
ATOM     14  N   UNL     1      11.277  13.291  15.984  0.00  0.00    +0.000 N 
ATOM     15  H   UNL     1      12.405  14.280  18.749  0.00  0.00    +0.000 HD
ATOM     16  H   UNL     1      11.201  12.357  15.600  0.00  0.00    +0.000 HD
ATOM     17  H   UNL     1      11.974  13.843  15.493  0.00  0.00    +0.000 HD
ENDBRANCH  10  12
ENDBRANCH   4   6
ENDBRANCH   1   2
BRANCH   1  18
ATOM     18  N   UNL     1       7.711   6.880  16.422  0.00  0.00    +0.000 NA
ATOM     19  H   UNL     1       7.926   7.422  15.583  0.00  0.00    +0.000 HD
BRANCH  18  20
ATOM     20  S   UNL     1       6.916   5.446  16.023  0.00  0.00    +0.000 S 
ATOM     21  O   UNL     1       7.830   4.350  16.246  0.00  0.00    +0.000 OA
ATOM     22  O   UNL     1       6.297   5.673  14.737  0.00  0.00    +0.000 OA
BRANCH  20  26
ATOM     23  C   UNL     1       3.385   4.916  18.878  0.00  0.00    +0.000 A 
ATOM     24  C   UNL     1       3.361   5.910  17.885  0.00  0.00    +0.000 A 
ATOM     25  C   UNL     1       4.455   6.108  17.042  0.00  0.00    +0.000 A 
ATOM     26  C   UNL     1       5.606   5.345  17.223  0.00  0.00    +0.000 A 
ATOM     27  C   UNL     1       5.675   4.416  18.265  0.00  0.00    +0.000 A 
ATOM     28  C   UNL     1       4.574   4.204  19.112  0.00  0.00    +0.000 A 
BRANCH  23  30
ATOM     29  C   UNL     1       1.324   3.762  19.015  0.00  0.00    +0.000 C 
ATOM     30  O   UNL     1       2.266   4.651  19.621  0.00  0.00    +0.000 OA
ENDBRANCH  23  30
BRANCH  28  31
ATOM     31  O   UNL     1       4.836   3.259  20.067  0.00  0.00    +0.000 OA
ATOM     32  C   UNL     1       4.414   1.919  19.854  0.00  0.00    +0.000 C 
ENDBRANCH  28  31
ENDBRANCH  20  26
ENDBRANCH  18  20
ENDBRANCH   1  18
TORSDOF 8
ENDMDL
MODEL 7
REMARK VINA RESULT:      -7.7      4.501      6.996
REMARK  Name = 
REMARK  10 active torsions:
REMARK  status: ('A' for Active; 'I' for Inactive)
REMARK    1  A    between atoms: C_1  and  O_2
REMARK    2  A    between atoms: O_2  and  C_3
REMARK    3  A    between atoms: C_6  and  S_7
REMARK    4  A    between atoms: S_7  and  N_10
REMARK    5  A    between atoms: N_10  and  C_11
REMARK    6  A    between atoms: C_11  and  C_12
REMARK    7  A    between atoms: N_14  and  C_15
REMARK    8  A    between atoms: C_19  and  C_20
REMARK    9  A    between atoms: C_25  and  O_26
REMARK   10  A    between atoms: O_26  and  C_27
REMARK                            x       y       z     vdW  Elec       q    Type
REMARK                         _______ _______ _______ _____ _____    ______ ____
ROOT
ATOM      1  C   UNL     1       7.907   7.464  18.025  0.00  0.00    +0.000 C 
ENDROOT
BRANCH   1   2
ATOM      2  C   UNL     1       8.238   8.936  18.206  0.00  0.00    +0.000 C 
ATOM      3  O   UNL     1       7.706   9.773  17.477  0.00  0.00    +0.000 OA
ATOM      4  N   UNL     1       9.155   9.192  19.214  0.00  0.00    +0.000 N 
ATOM      5  H   UNL     1       9.645   8.383  19.587  0.00  0.00    +0.000 HD
BRANCH   4   6
ATOM      6  C   UNL     1       9.565  10.473  19.657  0.00  0.00    +0.000 A 
ATOM      7  C   UNL     1      10.406  11.299  18.903  0.00  0.00    +0.000 A 
ATOM      8  C   UNL     1      10.799  12.552  19.376  0.00  0.00    +0.000 A 
ATOM      9  C   UNL     1      10.358  12.999  20.617  0.00  0.00    +0.000 A 
ATOM     10  C   UNL     1       9.515  12.191  21.385  0.00  0.00    +0.000 A 
ATOM     11  C   UNL     1       9.102  10.938  20.896  0.00  0.00    +0.000 A 
BRANCH  10  12
ATOM     12  C   UNL     1       9.060  12.659  22.726  0.00  0.00    +0.000 C 
ATOM     13  N   UNL     1       8.710  11.848  23.677  0.00  0.00    +0.000 NA
ATOM     14  N   UNL     1       8.997  13.986  23.016  0.00  0.00    +0.000 N 
ATOM     15  H   UNL     1       8.736  10.871  23.374  0.00  0.00    +0.000 HD
ATOM     16  H   UNL     1       9.763  14.545  22.663  0.00  0.00    +0.000 HD
ATOM     17  H   UNL     1       8.862  14.120  24.014  0.00  0.00    +0.000 HD
ENDBRANCH  10  12
ENDBRANCH   4   6
ENDBRANCH   1   2
BRANCH   1  18
ATOM     18  N   UNL     1       7.176   7.255  16.762  0.00  0.00    +0.000 NA
ATOM     19  H   UNL     1       6.395   7.898  16.617  0.00  0.00    +0.000 HD
BRANCH  18  20
ATOM     20  S   UNL     1       6.706   5.663  16.453  0.00  0.00    +0.000 S 
ATOM     21  O   UNL     1       7.791   4.793  16.844  0.00  0.00    +0.000 OA
ATOM     22  O   UNL     1       6.167   5.654  15.112  0.00  0.00    +0.000 OA
BRANCH  20  26
ATOM     23  C   UNL     1       3.400   5.215  19.578  0.00  0.00    +0.000 A 
ATOM     24  C   UNL     1       4.411   4.248  19.461  0.00  0.00    +0.000 A 
ATOM     25  C   UNL     1       5.396   4.353  18.478  0.00  0.00    +0.000 A 
ATOM     26  C   UNL     1       5.342   5.405  17.567  0.00  0.00    +0.000 A 
ATOM     27  C   UNL     1       4.290   6.324  17.616  0.00  0.00    +0.000 A 
ATOM     28  C   UNL     1       3.300   6.229  18.610  0.00  0.00    +0.000 A 
BRANCH  23  30
ATOM     29  C   UNL     1       1.340   4.376  20.383  0.00  0.00    +0.000 C 
ATOM     30  O   UNL     1       2.508   5.165  20.616  0.00  0.00    +0.000 OA
ENDBRANCH  23  30
BRANCH  28  31
ATOM     31  O   UNL     1       2.359   7.215  18.491  0.00  0.00    +0.000 OA
ATOM     32  C   UNL     1       2.684   8.406  17.786  0.00  0.00    +0.000 C 
ENDBRANCH  28  31
ENDBRANCH  20  26
ENDBRANCH  18  20
ENDBRANCH   1  18
TORSDOF 8
ENDMDL
MODEL 8
REMARK VINA RESULT:      -7.6      3.489      7.330
REMARK  Name = 
REMARK  10 active torsions:
REMARK  status: ('A' for Active; 'I' for Inactive)
REMARK    1  A    between atoms: C_1  and  O_2
REMARK    2  A    between atoms: O_2  and  C_3
REMARK    3  A    between atoms: C_6  and  S_7
REMARK    4  A    between atoms: S_7  and  N_10
REMARK    5  A    between atoms: N_10  and  C_11
REMARK    6  A    between atoms: C_11  and  C_12
REMARK    7  A    between atoms: N_14  and  C_15
REMARK    8  A    between atoms: C_19  and  C_20
REMARK    9  A    between atoms: C_25  and  O_26
REMARK   10  A    between atoms: O_26  and  C_27
REMARK                            x       y       z     vdW  Elec       q    Type
REMARK                         _______ _______ _______ _____ _____    ______ ____
ROOT
ATOM      1  C   UNL     1       4.803   3.724  19.248  0.00  0.00    +0.000 C 
ENDROOT
BRANCH   1   2
ATOM      2  C   UNL     1       5.741   4.090  18.111  0.00  0.00    +0.000 C 
ATOM      3  O   UNL     1       6.901   4.416  18.362  0.00  0.00    +0.000 OA
ATOM      4  N   UNL     1       5.162   4.026  16.853  0.00  0.00    +0.000 N 
ATOM      5  H   UNL     1       4.150   3.934  16.832  0.00  0.00    +0.000 HD
BRANCH   4   6
ATOM      6  C   UNL     1       5.831   4.221  15.620  0.00  0.00    +0.000 A 
ATOM      7  C   UNL     1       6.906   5.105  15.477  0.00  0.00    +0.000 A 
ATOM      8  C   UNL     1       7.535   5.280  14.243  0.00  0.00    +0.000 A 
ATOM      9  C   UNL     1       7.097   4.573  13.129  0.00  0.00    +0.000 A 
ATOM     10  C   UNL     1       6.027   3.682  13.251  0.00  0.00    +0.000 A 
ATOM     11  C   UNL     1       5.408   3.490  14.501  0.00  0.00    +0.000 A 
BRANCH  10  12
ATOM     12  C   UNL     1       5.540   2.941  12.052  0.00  0.00    +0.000 C 
ATOM     13  N   UNL     1       4.445   3.248  11.427  0.00  0.00    +0.000 NA
ATOM     14  N   UNL     1       6.242   1.890  11.551  0.00  0.00    +0.000 N 
ATOM     15  H   UNL     1       3.946   4.014  11.887  0.00  0.00    +0.000 HD
ATOM     16  H   UNL     1       7.248   2.005  11.538  0.00  0.00    +0.000 HD
ATOM     17  H   UNL     1       5.882   1.633  10.637  0.00  0.00    +0.000 HD
ENDBRANCH  10  12
ENDBRANCH   4   6
ENDBRANCH   1   2
BRANCH   1  18
ATOM     18  N   UNL     1       4.022   2.522  18.903  0.00  0.00    +0.000 NA
ATOM     19  H   UNL     1       4.483   1.898  18.238  0.00  0.00    +0.000 HD
BRANCH  18  20
ATOM     20  S   UNL     1       2.421   2.805  18.447  0.00  0.00    +0.000 S 
ATOM     21  O   UNL     1       1.584   1.858  19.144  0.00  0.00    +0.000 OA
ATOM     22  O   UNL     1       2.424   2.904  17.005  0.00  0.00    +0.000 OA
BRANCH  20  26
ATOM     23  C   UNL     1       1.921   6.980  20.241  0.00  0.00    +0.000 A 
ATOM     24  C   UNL     1       1.475   5.844  20.935  0.00  0.00    +0.000 A 
ATOM     25  C   UNL     1       1.581   4.571  20.373  0.00  0.00    +0.000 A 
ATOM     26  C   UNL     1       2.087   4.434  19.082  0.00  0.00    +0.000 A 
ATOM     27  C   UNL     1       2.450   5.566  18.347  0.00  0.00    +0.000 A 
ATOM     28  C   UNL     1       2.355   6.849  18.911  0.00  0.00    +0.000 A 
BRANCH  23  30
ATOM     29  C   UNL     1       0.675   8.604  21.426  0.00  0.00    +0.000 C 
ATOM     30  O   UNL     1       1.920   8.208  20.847  0.00  0.00    +0.000 OA
ENDBRANCH  23  30
BRANCH  28  31
ATOM     31  O   UNL     1       2.755   7.824  18.036  0.00  0.00    +0.000 OA
ATOM     32  C   UNL     1       1.865   8.887  17.725  0.00  0.00    +0.000 C 
ENDBRANCH  28  31
ENDBRANCH  20  26
ENDBRANCH  18  20
ENDBRANCH   1  18
TORSDOF 8
ENDMDL
MODEL 9
REMARK VINA RESULT:      -7.6      3.223      7.804
REMARK  Name = 
REMARK  10 active torsions:
REMARK  status: ('A' for Active; 'I' for Inactive)
REMARK    1  A    between atoms: C_1  and  O_2
REMARK    2  A    between atoms: O_2  and  C_3
REMARK    3  A    between atoms: C_6  and  S_7
REMARK    4  A    between atoms: S_7  and  N_10
REMARK    5  A    between atoms: N_10  and  C_11
REMARK    6  A    between atoms: C_11  and  C_12
REMARK    7  A    between atoms: N_14  and  C_15
REMARK    8  A    between atoms: C_19  and  C_20
REMARK    9  A    between atoms: C_25  and  O_26
REMARK   10  A    between atoms: O_26  and  C_27
REMARK                            x       y       z     vdW  Elec       q    Type
REMARK                         _______ _______ _______ _____ _____    ______ ____
ROOT
ATOM      1  C   UNL     1       5.465   5.030  18.586  0.00  0.00    +0.000 C 
ENDROOT
BRANCH   1   2
ATOM      2  C   UNL     1       6.329   4.790  17.360  0.00  0.00    +0.000 C 
ATOM      3  O   UNL     1       7.496   4.425  17.501  0.00  0.00    +0.000 OA
ATOM      4  N   UNL     1       5.685   5.029  16.156  0.00  0.00    +0.000 N 
ATOM      5  H   UNL     1       4.793   5.511  16.215  0.00  0.00    +0.000 HD
BRANCH   4   6
ATOM      6  C   UNL     1       6.222   4.793  14.866  0.00  0.00    +0.000 A 
ATOM      7  C   UNL     1       7.370   5.441  14.397  0.00  0.00    +0.000 A 
ATOM      8  C   UNL     1       7.865   5.192  13.116  0.00  0.00    +0.000 A 
ATOM      9  C   UNL     1       7.216   4.290  12.280  0.00  0.00    +0.000 A 
ATOM     10  C   UNL     1       6.070   3.629  12.731  0.00  0.00    +0.000 A 
ATOM     11  C   UNL     1       5.585   3.864  14.031  0.00  0.00    +0.000 A 
BRANCH  10  12
ATOM     12  C   UNL     1       5.359   2.679  11.827  0.00  0.00    +0.000 C 
ATOM     13  N   UNL     1       5.796   1.484  11.574  0.00  0.00    +0.000 NA
ATOM     14  N   UNL     1       4.195   3.033  11.221  0.00  0.00    +0.000 N 
ATOM     15  H   UNL     1       6.697   1.304  12.023  0.00  0.00    +0.000 HD
ATOM     16  H   UNL     1       3.548   3.560  11.794  0.00  0.00    +0.000 HD
ATOM     17  H   UNL     1       3.753   2.217  10.808  0.00  0.00    +0.000 HD
ENDBRANCH  10  12
ENDBRANCH   4   6
ENDBRANCH   1   2
BRANCH   1  18
ATOM     18  N   UNL     1       4.608   3.860  18.847  0.00  0.00    +0.000 NA
ATOM     19  H   UNL     1       4.949   2.988  18.436  0.00  0.00    +0.000 HD
BRANCH  18  20
ATOM     20  S   UNL     1       2.967   4.076  18.515  0.00  0.00    +0.000 S 
ATOM     21  O   UNL     1       2.210   3.380  19.530  0.00  0.00    +0.000 OA
ATOM     22  O   UNL     1       2.799   3.791  17.108  0.00  0.00    +0.000 OA
BRANCH  20  26
ATOM     23  C   UNL     1       1.973   8.518  18.939  0.00  0.00    +0.000 A 
ATOM     24  C   UNL     1       2.536   8.019  17.753  0.00  0.00    +0.000 A 
ATOM     25  C   UNL     1       2.886   6.674  17.634  0.00  0.00    +0.000 A 
ATOM     26  C   UNL     1       2.724   5.826  18.727  0.00  0.00    +0.000 A 
ATOM     27  C   UNL     1       2.249   6.330  19.941  0.00  0.00    +0.000 A 
ATOM     28  C   UNL     1       1.886   7.681  20.065  0.00  0.00    +0.000 A 
BRANCH  23  30
ATOM     29  C   UNL     1       0.266  10.055  18.377  0.00  0.00    +0.000 C 
ATOM     30  O   UNL     1       1.526   9.811  19.005  0.00  0.00    +0.000 OA
ENDBRANCH  23  30
BRANCH  28  31
ATOM     31  O   UNL     1       1.447   7.981  21.327  0.00  0.00    +0.000 OA
ATOM     32  C   UNL     1       0.060   8.190  21.550  0.00  0.00    +0.000 C 
ENDBRANCH  28  31
ENDBRANCH  20  26
ENDBRANCH  18  20
ENDBRANCH   1  18
TORSDOF 8
ENDMDL
