MODEL 1
REMARK VINA RESULT:      -7.5      0.000      0.000
REMARK  Name = 
REMARK  2 active torsions:
REMARK  status: ('A' for Active; 'I' for Inactive)
REMARK    1  A    between atoms: O_1  and  C_2
REMARK    2  A    between atoms: C_20  and  O_21
REMARK                            x       y       z     vdW  Elec       q    Type
REMARK                         _______ _______ _______ _____ _____    ______ ____
ROOT
ATOM      1  C   UNL     1       1.773  14.775  20.339  0.00  0.00    +0.000 A 
ATOM      2  C   UNL     1       2.154  14.989  18.962  0.00  0.00    +0.000 A 
ATOM      3  C   UNL     1       2.364  13.877  18.133  0.00  0.00    +0.000 A 
ATOM      4  C   UNL     1       2.179  12.634  18.694  0.00  0.00    +0.000 A 
ATOM      5  C   UNL     1       1.575  12.518  20.025  0.00  0.00    +0.000 A 
ATOM      6  C   UNL     1       1.150  13.606  20.829  0.00  0.00    +0.000 A 
ATOM      7  O   UNL     1      -0.250  13.657  21.175  0.00  0.00    +0.000 OA
ATOM      8  C   UNL     1      -0.889  13.539  22.461  0.00  0.00    +0.000 A 
ATOM      9  C   UNL     1      -1.247  12.294  23.017  0.00  0.00    +0.000 A 
ATOM     10  C   UNL     1      -2.552  12.022  23.546  0.00  0.00    +0.000 A 
ATOM     11  C   UNL     1      -3.566  13.019  23.559  0.00  0.00    +0.000 A 
ATOM     12  C   UNL     1      -3.092  14.339  23.372  0.00  0.00    +0.000 A 
ATOM     13  C   UNL     1      -1.804  14.576  22.789  0.00  0.00    +0.000 A 
ATOM     14  C   UNL     1      -4.994  12.653  22.925  0.00  0.00    +0.000 C 
ATOM     15  C   UNL     1      -4.803  13.044  21.433  0.00  0.00    +0.000 C 
ATOM     16  C   UNL     1      -4.864  12.413  20.074  0.00  0.00    +0.000 A 
ATOM     17  C   UNL     1      -5.895  11.754  19.424  0.00  0.00    +0.000 A 
ATOM     18  C   UNL     1      -5.645  11.167  18.161  0.00  0.00    +0.000 A 
ATOM     19  C   UNL     1      -4.351  11.155  17.629  0.00  0.00    +0.000 A 
ATOM     20  C   UNL     1      -3.343  11.788  18.294  0.00  0.00    +0.000 A 
ATOM     21  C   UNL     1      -3.633  12.559  19.388  0.00  0.00    +0.000 A 
ATOM     22  O   UNL     1      -2.047  11.635  17.917  0.00  0.00    +0.000 OA
ATOM     23  C   UNL     1      -1.274  10.766  18.670  0.00  0.00    +0.000 A 
ATOM     24  C   UNL     1      -1.450  10.386  20.004  0.00  0.00    +0.000 A 
ATOM     25  C   UNL     1      -0.461   9.645  20.667  0.00  0.00    +0.000 A 
ATOM     26  C   UNL     1       0.737   9.345  20.023  0.00  0.00    +0.000 A 
ATOM     27  C   UNL     1       0.935   9.795  18.712  0.00  0.00    +0.000 A 
ATOM     28  C   UNL     1      -0.124  10.378  18.005  0.00  0.00    +0.000 A 
ATOM     29  C   UNL     1       2.333  10.010  18.195  0.00  0.00    +0.000 C 
ATOM     30  C   UNL     1       2.527  11.476  17.729  0.00  0.00    +0.000 C 
ENDROOT
BRANCH   1  31
ATOM     31  O   UNL     1       3.039  14.963  21.048  0.00  0.00    +0.000 OA
ATOM     32  H   UNL     1       3.457  14.076  21.001  0.00  0.00    +0.000 HD
ENDBRANCH   1  31
BRANCH  19  33
ATOM     33  O   UNL     1      -4.053  10.516  16.471  0.00  0.00    +0.000 OA
ATOM     34  H   UNL     1      -4.559  10.917  15.753  0.00  0.00    +0.000 HD
ENDBRANCH  19  33
TORSDOF 2
ENDMDL
MODEL 2
REMARK VINA RESULT:      -7.4      2.563      5.191
REMARK  Name = 
REMARK  2 active torsions:
REMARK  status: ('A' for Active; 'I' for Inactive)
REMARK    1  A    between atoms: O_1  and  C_2
REMARK    2  A    between atoms: C_20  and  O_21
REMARK                            x       y       z     vdW  Elec       q    Type
REMARK                         _______ _______ _______ _____ _____    ______ ____
ROOT
ATOM      1  C   UNL     1      -4.247  17.400  20.295  0.00  0.00    +0.000 A 
ATOM      2  C   UNL     1      -3.048  18.032  19.795  0.00  0.00    +0.000 A 
ATOM      3  C   UNL     1      -1.807  17.660  20.331  0.00  0.00    +0.000 A 
ATOM      4  C   UNL     1      -1.813  16.690  21.308  0.00  0.00    +0.000 A 
ATOM      5  C   UNL     1      -3.045  15.948  21.590  0.00  0.00    +0.000 A 
ATOM      6  C   UNL     1      -4.287  16.140  20.931  0.00  0.00    +0.000 A 
ATOM      7  O   UNL     1      -4.827  15.013  20.209  0.00  0.00    +0.000 OA
ATOM      8  C   UNL     1      -6.023  14.248  20.453  0.00  0.00    +0.000 A 
ATOM      9  C   UNL     1      -6.049  13.142  21.327  0.00  0.00    +0.000 A 
ATOM     10  C   UNL     1      -6.604  11.871  20.960  0.00  0.00    +0.000 A 
ATOM     11  C   UNL     1      -7.187  11.661  19.680  0.00  0.00    +0.000 A 
ATOM     12  C   UNL     1      -7.505  12.850  18.980  0.00  0.00    +0.000 A 
ATOM     13  C   UNL     1      -6.891  14.094  19.338  0.00  0.00    +0.000 A 
ATOM     14  C   UNL     1      -6.680  10.410  18.813  0.00  0.00    +0.000 C 
ATOM     15  C   UNL     1      -5.481  11.014  18.030  0.00  0.00    +0.000 C 
ATOM     16  C   UNL     1      -4.009  10.792  17.852  0.00  0.00    +0.000 A 
ATOM     17  C   UNL     1      -3.305   9.682  17.416  0.00  0.00    +0.000 A 
ATOM     18  C   UNL     1      -1.889   9.717  17.433  0.00  0.00    +0.000 A 
ATOM     19  C   UNL     1      -1.215  10.810  17.987  0.00  0.00    +0.000 A 
ATOM     20  C   UNL     1      -1.926  11.885  18.434  0.00  0.00    +0.000 A 
ATOM     21  C   UNL     1      -3.272  11.953  18.195  0.00  0.00    +0.000 A 
ATOM     22  O   UNL     1      -1.330  12.873  19.150  0.00  0.00    +0.000 OA
ATOM     23  C   UNL     1      -1.521  12.855  20.522  0.00  0.00    +0.000 A 
ATOM     24  C   UNL     1      -2.582  12.292  21.240  0.00  0.00    +0.000 A 
ATOM     25  C   UNL     1      -2.714  12.534  22.615  0.00  0.00    +0.000 A 
ATOM     26  C   UNL     1      -1.832  13.397  23.262  0.00  0.00    +0.000 A 
ATOM     27  C   UNL     1      -0.819  14.015  22.518  0.00  0.00    +0.000 A 
ATOM     28  C   UNL     1      -0.591  13.631  21.191  0.00  0.00    +0.000 A 
ATOM     29  C   UNL     1      -0.238  15.324  22.985  0.00  0.00    +0.000 C 
ATOM     30  C   UNL     1      -0.409  16.420  21.900  0.00  0.00    +0.000 C 
ENDROOT
BRANCH   1  31
ATOM     31  O   UNL     1      -4.771  18.408  21.219  0.00  0.00    +0.000 OA
ATOM     32  H   UNL     1      -4.346  19.238  20.910  0.00  0.00    +0.000 HD
ENDBRANCH   1  31
BRANCH  19  33
ATOM     33  O   UNL     1       0.134  10.837  18.113  0.00  0.00    +0.000 OA
ATOM     34  H   UNL     1       0.424  11.756  18.187  0.00  0.00    +0.000 HD
ENDBRANCH  19  33
TORSDOF 2
ENDMDL
MODEL 3
REMARK VINA RESULT:      -6.8      2.281      3.312
REMARK  Name = 
REMARK  2 active torsions:
REMARK  status: ('A' for Active; 'I' for Inactive)
REMARK    1  A    between atoms: O_1  and  C_2
REMARK    2  A    between atoms: C_20  and  O_21
REMARK                            x       y       z     vdW  Elec       q    Type
REMARK                         _______ _______ _______ _____ _____    ______ ____
ROOT
ATOM      1  C   UNL     1      -2.284  17.380  21.062  0.00  0.00    +0.000 A 
ATOM      2  C   UNL     1      -1.900  17.655  19.696  0.00  0.00    +0.000 A 
ATOM      3  C   UNL     1      -1.054  16.756  19.033  0.00  0.00    +0.000 A 
ATOM      4  C   UNL     1      -0.647  15.644  19.734  0.00  0.00    +0.000 A 
ATOM      5  C   UNL     1      -1.265  15.333  21.027  0.00  0.00    +0.000 A 
ATOM      6  C   UNL     1      -2.280  16.099  21.656  0.00  0.00    +0.000 A 
ATOM      7  O   UNL     1      -3.541  15.441  21.900  0.00  0.00    +0.000 OA
ATOM      8  C   UNL     1      -4.182  15.106  23.146  0.00  0.00    +0.000 A 
ATOM      9  C   UNL     1      -3.920  13.902  23.832  0.00  0.00    +0.000 A 
ATOM     10  C   UNL     1      -4.958  13.033  24.305  0.00  0.00    +0.000 A 
ATOM     11  C   UNL     1      -6.332  13.355  24.124  0.00  0.00    +0.000 A 
ATOM     12  C   UNL     1      -6.577  14.712  23.801  0.00  0.00    +0.000 A 
ATOM     13  C   UNL     1      -5.529  15.538  23.278  0.00  0.00    +0.000 A 
ATOM     14  C   UNL     1      -7.284  12.254  23.450  0.00  0.00    +0.000 C 
ATOM     15  C   UNL     1      -7.138  12.573  21.936  0.00  0.00    +0.000 C 
ATOM     16  C   UNL     1      -6.703  11.902  20.667  0.00  0.00    +0.000 A 
ATOM     17  C   UNL     1      -7.166  10.756  20.042  0.00  0.00    +0.000 A 
ATOM     18  C   UNL     1      -6.500  10.290  18.883  0.00  0.00    +0.000 A 
ATOM     19  C   UNL     1      -5.327  10.912  18.443  0.00  0.00    +0.000 A 
ATOM     20  C   UNL     1      -4.871  12.025  19.086  0.00  0.00    +0.000 A 
ATOM     21  C   UNL     1      -5.645  12.613  20.051  0.00  0.00    +0.000 A 
ATOM     22  O   UNL     1      -3.644  12.540  18.817  0.00  0.00    +0.000 OA
ATOM     23  C   UNL     1      -2.634  12.259  19.724  0.00  0.00    +0.000 A 
ATOM     24  C   UNL     1      -2.754  11.945  21.082  0.00  0.00    +0.000 A 
ATOM     25  C   UNL     1      -1.615  11.878  21.897  0.00  0.00    +0.000 A 
ATOM     26  C   UNL     1      -0.363  12.197  21.377  0.00  0.00    +0.000 A 
ATOM     27  C   UNL     1      -0.264  12.583  20.035  0.00  0.00    +0.000 A 
ATOM     28  C   UNL     1      -1.376  12.475  19.191  0.00  0.00    +0.000 A 
ATOM     29  C   UNL     1       0.881  13.453  19.587  0.00  0.00    +0.000 C 
ATOM     30  C   UNL     1       0.357  14.767  18.950  0.00  0.00    +0.000 C 
ENDROOT
BRANCH   1  31
ATOM     31  O   UNL     1      -1.388  18.252  21.822  0.00  0.00    +0.000 OA
ATOM     32  H   UNL     1      -1.930  19.057  21.971  0.00  0.00    +0.000 HD
ENDBRANCH   1  31
BRANCH  19  33
ATOM     33  O   UNL     1      -4.606  10.435  17.399  0.00  0.00    +0.000 OA
ATOM     34  H   UNL     1      -5.126  10.529  16.590  0.00  0.00    +0.000 HD
ENDBRANCH  19  33
TORSDOF 2
ENDMDL
MODEL 4
REMARK VINA RESULT:      -6.8      2.608      6.372
REMARK  Name = 
REMARK  2 active torsions:
REMARK  status: ('A' for Active; 'I' for Inactive)
REMARK    1  A    between atoms: O_1  and  C_2
REMARK    2  A    between atoms: C_20  and  O_21
REMARK                            x       y       z     vdW  Elec       q    Type
REMARK                         _______ _______ _______ _____ _____    ______ ____
ROOT
ATOM      1  C   UNL     1      -5.084  17.561  21.174  0.00  0.00    +0.000 A 
ATOM      2  C   UNL     1      -3.905  18.373  21.368  0.00  0.00    +0.000 A 
ATOM      3  C   UNL     1      -3.019  18.050  22.406  0.00  0.00    +0.000 A 
ATOM      4  C   UNL     1      -3.331  16.954  23.177  0.00  0.00    +0.000 A 
ATOM      5  C   UNL     1      -4.420  16.061  22.768  0.00  0.00    +0.000 A 
ATOM      6  C   UNL     1      -5.220  16.224  21.608  0.00  0.00    +0.000 A 
ATOM      7  O   UNL     1      -5.177  15.166  20.628  0.00  0.00    +0.000 OA
ATOM      8  C   UNL     1      -6.213  14.260  20.200  0.00  0.00    +0.000 A 
ATOM      9  C   UNL     1      -6.473  13.042  20.862  0.00  0.00    +0.000 A 
ATOM     10  C   UNL     1      -6.586  11.789  20.172  0.00  0.00    +0.000 A 
ATOM     11  C   UNL     1      -6.460  11.711  18.758  0.00  0.00    +0.000 A 
ATOM     12  C   UNL     1      -6.593  12.951  18.088  0.00  0.00    +0.000 A 
ATOM     13  C   UNL     1      -6.420  14.184  18.797  0.00  0.00    +0.000 A 
ATOM     14  C   UNL     1      -5.419  10.653  18.148  0.00  0.00    +0.000 C 
ATOM     15  C   UNL     1      -4.103  11.479  18.094  0.00  0.00    +0.000 C 
ATOM     16  C   UNL     1      -2.705  11.431  18.633  0.00  0.00    +0.000 A 
ATOM     17  C   UNL     1      -1.716  10.470  18.505  0.00  0.00    +0.000 A 
ATOM     18  C   UNL     1      -0.499  10.640  19.208  0.00  0.00    +0.000 A 
ATOM     19  C   UNL     1      -0.341  11.703  20.104  0.00  0.00    +0.000 A 
ATOM     20  C   UNL     1      -1.336  12.627  20.236  0.00  0.00    +0.000 A 
ATOM     21  C   UNL     1      -2.406  12.596  19.381  0.00  0.00    +0.000 A 
ATOM     22  O   UNL     1      -1.307  13.555  21.227  0.00  0.00    +0.000 OA
ATOM     23  C   UNL     1      -2.114  13.320  22.329  0.00  0.00    +0.000 A 
ATOM     24  C   UNL     1      -3.285  12.558  22.396  0.00  0.00    +0.000 A 
ATOM     25  C   UNL     1      -4.082  12.584  23.550  0.00  0.00    +0.000 A 
ATOM     26  C   UNL     1      -3.752  13.428  24.609  0.00  0.00    +0.000 A 
ATOM     27  C   UNL     1      -2.619  14.243  24.500  0.00  0.00    +0.000 A 
ATOM     28  C   UNL     1      -1.739  14.078  23.423  0.00  0.00    +0.000 A 
ATOM     29  C   UNL     1      -2.536  15.521  25.292  0.00  0.00    +0.000 C 
ATOM     30  C   UNL     1      -2.346  16.740  24.351  0.00  0.00    +0.000 C 
ENDROOT
BRANCH   1  31
ATOM     31  O   UNL     1      -6.129  18.368  21.806  0.00  0.00    +0.000 OA
ATOM     32  H   UNL     1      -6.930  17.806  21.721  0.00  0.00    +0.000 HD
ENDBRANCH   1  31
BRANCH  19  33
ATOM     33  O   UNL     1       0.769  11.843  20.869  0.00  0.00    +0.000 OA
ATOM     34  H   UNL     1       1.067  12.761  20.823  0.00  0.00    +0.000 HD
ENDBRANCH  19  33
TORSDOF 2
ENDMDL
MODEL 5
REMARK VINA RESULT:      -6.8      1.585      1.979
REMARK  Name = 
REMARK  2 active torsions:
REMARK  status: ('A' for Active; 'I' for Inactive)
REMARK    1  A    between atoms: O_1  and  C_2
REMARK    2  A    between atoms: C_20  and  O_21
REMARK                            x       y       z     vdW  Elec       q    Type
REMARK                         _______ _______ _______ _____ _____    ______ ____
ROOT
ATOM      1  C   UNL     1      -0.390  16.732  20.670  0.00  0.00    +0.000 A 
ATOM      2  C   UNL     1      -0.028  16.938  19.286  0.00  0.00    +0.000 A 
ATOM      3  C   UNL     1       0.584  15.892  18.580  0.00  0.00    +0.000 A 
ATOM      4  C   UNL     1       0.792  14.715  19.260  0.00  0.00    +0.000 A 
ATOM      5  C   UNL     1       0.191  14.522  20.584  0.00  0.00    +0.000 A 
ATOM      6  C   UNL     1      -0.614  15.470  21.264  0.00  0.00    +0.000 A 
ATOM      7  O   UNL     1      -1.968  15.078  21.573  0.00  0.00    +0.000 OA
ATOM      8  C   UNL     1      -2.599  14.867  22.852  0.00  0.00    +0.000 A 
ATOM      9  C   UNL     1      -2.552  13.629  23.524  0.00  0.00    +0.000 A 
ATOM     10  C   UNL     1      -3.718  12.982  24.051  0.00  0.00    +0.000 A 
ATOM     11  C   UNL     1      -5.006  13.577  23.941  0.00  0.00    +0.000 A 
ATOM     12  C   UNL     1      -4.988  14.959  23.631  0.00  0.00    +0.000 A 
ATOM     13  C   UNL     1      -3.823  15.561  23.053  0.00  0.00    +0.000 A 
ATOM     14  C   UNL     1      -6.194  12.698  23.318  0.00  0.00    +0.000 C 
ATOM     15  C   UNL     1      -6.064  12.996  21.798  0.00  0.00    +0.000 C 
ATOM     16  C   UNL     1      -5.839  12.263  20.510  0.00  0.00    +0.000 A 
ATOM     17  C   UNL     1      -6.556  11.241  19.910  0.00  0.00    +0.000 A 
ATOM     18  C   UNL     1      -6.058  10.662  18.718  0.00  0.00    +0.000 A 
ATOM     19  C   UNL     1      -4.807  11.038  18.217  0.00  0.00    +0.000 A 
ATOM     20  C   UNL     1      -4.104  12.030  18.835  0.00  0.00    +0.000 A 
ATOM     21  C   UNL     1      -4.692  12.752  19.838  0.00  0.00    +0.000 A 
ATOM     22  O   UNL     1      -2.813  12.288  18.502  0.00  0.00    +0.000 OA
ATOM     23  C   UNL     1      -1.836  11.801  19.355  0.00  0.00    +0.000 A 
ATOM     24  C   UNL     1      -1.947  11.504  20.718  0.00  0.00    +0.000 A 
ATOM     25  C   UNL     1      -0.805  11.200  21.473  0.00  0.00    +0.000 A 
ATOM     26  C   UNL     1       0.457  11.265  20.888  0.00  0.00    +0.000 A 
ATOM     27  C   UNL     1       0.564  11.636  19.542  0.00  0.00    +0.000 A 
ATOM     28  C   UNL     1      -0.589  11.764  18.757  0.00  0.00    +0.000 A 
ATOM     29  C   UNL     1       1.837  12.262  19.035  0.00  0.00    +0.000 C 
ATOM     30  C   UNL     1       1.557  13.660  18.425  0.00  0.00    +0.000 C 
ENDROOT
BRANCH   1  31
ATOM     31  O   UNL     1       0.702  17.397  21.382  0.00  0.00    +0.000 OA
ATOM     32  H   UNL     1       0.546  18.349  21.194  0.00  0.00    +0.000 HD
ENDBRANCH   1  31
BRANCH  19  33
ATOM     33  O   UNL     1      -4.252  10.436  17.137  0.00  0.00    +0.000 OA
ATOM     34  H   UNL     1      -3.724  11.085  16.654  0.00  0.00    +0.000 HD
ENDBRANCH  19  33
TORSDOF 2
ENDMDL
MODEL 6
REMARK VINA RESULT:      -6.8      2.368      6.362
REMARK  Name = 
REMARK  2 active torsions:
REMARK  status: ('A' for Active; 'I' for Inactive)
REMARK    1  A    between atoms: O_1  and  C_2
REMARK    2  A    between atoms: C_20  and  O_21
REMARK                            x       y       z     vdW  Elec       q    Type
REMARK                         _______ _______ _______ _____ _____    ______ ____
ROOT
ATOM      1  C   UNL     1      -4.480  12.169  24.856  0.00  0.00    +0.000 A 
ATOM      2  C   UNL     1      -5.919  12.122  24.733  0.00  0.00    +0.000 A 
ATOM      3  C   UNL     1      -6.573  13.124  24.003  0.00  0.00    +0.000 A 
ATOM      4  C   UNL     1      -5.787  14.097  23.430  0.00  0.00    +0.000 A 
ATOM      5  C   UNL     1      -4.329  13.939  23.415  0.00  0.00    +0.000 A 
ATOM      6  C   UNL     1      -3.618  12.839  23.959  0.00  0.00    +0.000 A 
ATOM      7  O   UNL     1      -2.821  12.057  23.045  0.00  0.00    +0.000 OA
ATOM      8  C   UNL     1      -1.392  11.880  22.984  0.00  0.00    +0.000 A 
ATOM      9  C   UNL     1      -0.550  12.761  22.276  0.00  0.00    +0.000 A 
ATOM     10  C   UNL     1       0.437  12.311  21.337  0.00  0.00    +0.000 A 
ATOM     11  C   UNL     1       0.636  10.926  21.082  0.00  0.00    +0.000 A 
ATOM     12  C   UNL     1       0.081  10.065  22.059  0.00  0.00    +0.000 A 
ATOM     13  C   UNL     1      -0.943  10.532  22.946  0.00  0.00    +0.000 A 
ATOM     14  C   UNL     1       0.607  10.426  19.558  0.00  0.00    +0.000 C 
ATOM     15  C   UNL     1      -0.901  10.122  19.339  0.00  0.00    +0.000 C 
ATOM     16  C   UNL     1      -2.031  10.545  18.448  0.00  0.00    +0.000 A 
ATOM     17  C   UNL     1      -2.163  10.504  17.070  0.00  0.00    +0.000 A 
ATOM     18  C   UNL     1      -3.320  11.065  16.476  0.00  0.00    +0.000 A 
ATOM     19  C   UNL     1      -4.258  11.747  17.258  0.00  0.00    +0.000 A 
ATOM     20  C   UNL     1      -4.098  11.797  18.612  0.00  0.00    +0.000 A 
ATOM     21  C   UNL     1      -3.115  11.052  19.205  0.00  0.00    +0.000 A 
ATOM     22  O   UNL     1      -4.871  12.606  19.381  0.00  0.00    +0.000 OA
ATOM     23  C   UNL     1      -4.302  13.794  19.809  0.00  0.00    +0.000 A 
ATOM     24  C   UNL     1      -2.946  14.090  19.985  0.00  0.00    +0.000 A 
ATOM     25  C   UNL     1      -2.555  15.282  20.610  0.00  0.00    +0.000 A 
ATOM     26  C   UNL     1      -3.517  16.148  21.127  0.00  0.00    +0.000 A 
ATOM     27  C   UNL     1      -4.870  15.807  21.013  0.00  0.00    +0.000 A 
ATOM     28  C   UNL     1      -5.251  14.707  20.235  0.00  0.00    +0.000 A 
ATOM     29  C   UNL     1      -5.868  16.355  21.998  0.00  0.00    +0.000 C 
ATOM     30  C   UNL     1      -6.608  15.205  22.730  0.00  0.00    +0.000 C 
ENDROOT
BRANCH   1  31
ATOM     31  O   UNL     1      -4.296  12.735  26.193  0.00  0.00    +0.000 OA
ATOM     32  H   UNL     1      -3.323  12.847  26.258  0.00  0.00    +0.000 HD
ENDBRANCH   1  31
BRANCH  19  33
ATOM     33  O   UNL     1      -5.325  12.382  16.714  0.00  0.00    +0.000 OA
ATOM     34  H   UNL     1      -6.068  11.766  16.672  0.00  0.00    +0.000 HD
ENDBRANCH  19  33
TORSDOF 2
ENDMDL
MODEL 7
REMARK VINA RESULT:      -6.6      2.438      4.239
REMARK  Name = 
REMARK  2 active torsions:
REMARK  status: ('A' for Active; 'I' for Inactive)
REMARK    1  A    between atoms: O_1  and  C_2
REMARK    2  A    between atoms: C_20  and  O_21
REMARK                            x       y       z     vdW  Elec       q    Type
REMARK                         _______ _______ _______ _____ _____    ______ ____
ROOT
ATOM      1  C   UNL     1      -2.903  17.522  20.105  0.00  0.00    +0.000 A 
ATOM      2  C   UNL     1      -1.771  17.882  19.282  0.00  0.00    +0.000 A 
ATOM      3  C   UNL     1      -0.534  17.266  19.519  0.00  0.00    +0.000 A 
ATOM      4  C   UNL     1      -0.482  16.333  20.529  0.00  0.00    +0.000 A 
ATOM      5  C   UNL     1      -1.723  15.869  21.157  0.00  0.00    +0.000 A 
ATOM      6  C   UNL     1      -3.028  16.307  20.814  0.00  0.00    +0.000 A 
ATOM      7  O   UNL     1      -3.947  15.308  20.325  0.00  0.00    +0.000 OA
ATOM      8  C   UNL     1      -5.169  14.813  20.908  0.00  0.00    +0.000 A 
ATOM      9  C   UNL     1      -5.190  13.750  21.834  0.00  0.00    +0.000 A 
ATOM     10  C   UNL     1      -6.060  12.618  21.702  0.00  0.00    +0.000 A 
ATOM     11  C   UNL     1      -6.981  12.516  20.622  0.00  0.00    +0.000 A 
ATOM     12  C   UNL     1      -7.225  13.735  19.944  0.00  0.00    +0.000 A 
ATOM     13  C   UNL     1      -6.305  14.828  20.055  0.00  0.00    +0.000 A 
ATOM     14  C   UNL     1      -6.971  11.174  19.743  0.00  0.00    +0.000 C 
ATOM     15  C   UNL     1      -5.917  11.503  18.650  0.00  0.00    +0.000 C 
ATOM     16  C   UNL     1      -4.614  10.975  18.128  0.00  0.00    +0.000 A 
ATOM     17  C   UNL     1      -4.280   9.736  17.608  0.00  0.00    +0.000 A 
ATOM     18  C   UNL     1      -2.930   9.475  17.272  0.00  0.00    +0.000 A 
ATOM     19  C   UNL     1      -1.933  10.411  17.567  0.00  0.00    +0.000 A 
ATOM     20  C   UNL     1      -2.278  11.617  18.103  0.00  0.00    +0.000 A 
ATOM     21  C   UNL     1      -3.599  11.961  18.200  0.00  0.00    +0.000 A 
ATOM     22  O   UNL     1      -1.335  12.469  18.581  0.00  0.00    +0.000 OA
ATOM     23  C   UNL     1      -1.168  12.511  19.956  0.00  0.00    +0.000 A 
ATOM     24  C   UNL     1      -2.100  12.193  20.950  0.00  0.00    +0.000 A 
ATOM     25  C   UNL     1      -1.826  12.477  22.296  0.00  0.00    +0.000 A 
ATOM     26  C   UNL     1      -0.654  13.146  22.645  0.00  0.00    +0.000 A 
ATOM     27  C   UNL     1       0.236  13.528  21.634  0.00  0.00    +0.000 A 
ATOM     28  C   UNL     1       0.037  13.085  20.321  0.00  0.00    +0.000 A 
ATOM     29  C   UNL     1       1.165  14.693  21.854  0.00  0.00    +0.000 C 
ATOM     30  C   UNL     1       0.944  15.784  20.774  0.00  0.00    +0.000 C 
ENDROOT
BRANCH   1  31
ATOM     31  O   UNL     1      -2.962  18.630  21.059  0.00  0.00    +0.000 OA
ATOM     32  H   UNL     1      -2.107  19.093  20.919  0.00  0.00    +0.000 HD
ENDBRANCH   1  31
BRANCH  19  33
ATOM     33  O   UNL     1      -0.619  10.156  17.354  0.00  0.00    +0.000 OA
ATOM     34  H   UNL     1      -0.237   9.787  18.161  0.00  0.00    +0.000 HD
ENDBRANCH  19  33
TORSDOF 2
ENDMDL
MODEL 8
REMARK VINA RESULT:      -6.5      2.225      7.271
REMARK  Name = 
REMARK  2 active torsions:
REMARK  status: ('A' for Active; 'I' for Inactive)
REMARK    1  A    between atoms: O_1  and  C_2
REMARK    2  A    between atoms: C_20  and  O_21
REMARK                            x       y       z     vdW  Elec       q    Type
REMARK                         _______ _______ _______ _____ _____    ______ ____
ROOT
ATOM      1  C   UNL     1      -5.521  12.631  20.566  0.00  0.00    +0.000 A 
ATOM      2  C   UNL     1      -6.378  13.787  20.435  0.00  0.00    +0.000 A 
ATOM      3  C   UNL     1      -6.257  14.833  21.361  0.00  0.00    +0.000 A 
ATOM      4  C   UNL     1      -5.305  14.692  22.344  0.00  0.00    +0.000 A 
ATOM      5  C   UNL     1      -4.333  13.596  22.266  0.00  0.00    +0.000 A 
ATOM      6  C   UNL     1      -4.277  12.624  21.235  0.00  0.00    +0.000 A 
ATOM      7  O   UNL     1      -3.067  12.569  20.451  0.00  0.00    +0.000 OA
ATOM      8  C   UNL     1      -2.079  11.524  20.349  0.00  0.00    +0.000 A 
ATOM      9  C   UNL     1      -0.989  11.423  21.237  0.00  0.00    +0.000 A 
ATOM     10  C   UNL     1       0.366  11.266  20.794  0.00  0.00    +0.000 A 
ATOM     11  C   UNL     1       0.685  11.181  19.410  0.00  0.00    +0.000 A 
ATOM     12  C   UNL     1      -0.418  10.891  18.571  0.00  0.00    +0.000 A 
ATOM     13  C   UNL     1      -1.758  11.111  19.027  0.00  0.00    +0.000 A 
ATOM     14  C   UNL     1       1.811  12.167  18.832  0.00  0.00    +0.000 C 
ATOM     15  C   UNL     1       0.980  13.419  18.435  0.00  0.00    +0.000 C 
ATOM     16  C   UNL     1       0.907  14.884  18.750  0.00  0.00    +0.000 A 
ATOM     17  C   UNL     1       1.855  15.886  18.632  0.00  0.00    +0.000 A 
ATOM     18  C   UNL     1       1.542  17.186  19.097  0.00  0.00    +0.000 A 
ATOM     19  C   UNL     1       0.337  17.426  19.767  0.00  0.00    +0.000 A 
ATOM     20  C   UNL     1      -0.576  16.420  19.895  0.00  0.00    +0.000 A 
ATOM     21  C   UNL     1      -0.376  15.237  19.236  0.00  0.00    +0.000 A 
ATOM     22  O   UNL     1      -1.661  16.555  20.699  0.00  0.00    +0.000 OA
ATOM     23  C   UNL     1      -1.604  15.935  21.937  0.00  0.00    +0.000 A 
ATOM     24  C   UNL     1      -0.842  14.825  22.314  0.00  0.00    +0.000 A 
ATOM     25  C   UNL     1      -1.051  14.210  23.557  0.00  0.00    +0.000 A 
ATOM     26  C   UNL     1      -2.071  14.655  24.395  0.00  0.00    +0.000 A 
ATOM     27  C   UNL     1      -2.878  15.720  23.975  0.00  0.00    +0.000 A 
ATOM     28  C   UNL     1      -2.548  16.435  22.817  0.00  0.00    +0.000 A 
ATOM     29  C   UNL     1      -4.276  15.862  24.519  0.00  0.00    +0.000 C 
ATOM     30  C   UNL     1      -5.317  15.851  23.369  0.00  0.00    +0.000 C 
ENDROOT
BRANCH   1  31
ATOM     31  O   UNL     1      -6.404  11.657  21.209  0.00  0.00    +0.000 OA
ATOM     32  H   UNL     1      -7.302  11.963  20.951  0.00  0.00    +0.000 HD
ENDBRANCH   1  31
BRANCH  19  33
ATOM     33  O   UNL     1       0.044  18.631  20.314  0.00  0.00    +0.000 OA
ATOM     34  H   UNL     1      -0.837  18.900  20.025  0.00  0.00    +0.000 HD
ENDBRANCH  19  33
TORSDOF 2
ENDMDL
MODEL 9
REMARK VINA RESULT:      -6.5      2.592      7.600
REMARK  Name = 
REMARK  2 active torsions:
REMARK  status: ('A' for Active; 'I' for Inactive)
REMARK    1  A    between atoms: O_1  and  C_2
REMARK    2  A    between atoms: C_20  and  O_21
REMARK                            x       y       z     vdW  Elec       q    Type
REMARK                         _______ _______ _______ _____ _____    ______ ____
ROOT
ATOM      1  C   UNL     1      -5.590  12.419  18.897  0.00  0.00    +0.000 A 
ATOM      2  C   UNL     1      -6.780  13.234  18.812  0.00  0.00    +0.000 A 
ATOM      3  C   UNL     1      -7.497  13.515  19.984  0.00  0.00    +0.000 A 
ATOM      4  C   UNL     1      -7.005  12.997  21.159  0.00  0.00    +0.000 A 
ATOM      5  C   UNL     1      -5.676  12.377  21.182  0.00  0.00    +0.000 A 
ATOM      6  C   UNL     1      -4.813  12.249  20.063  0.00  0.00    +0.000 A 
ATOM      7  O   UNL     1      -3.531  12.905  20.147  0.00  0.00    +0.000 OA
ATOM      8  C   UNL     1      -2.205  12.342  20.182  0.00  0.00    +0.000 A 
ATOM      9  C   UNL     1      -1.585  11.938  21.382  0.00  0.00    +0.000 A 
ATOM     10  C   UNL     1      -0.258  12.339  21.748  0.00  0.00    +0.000 A 
ATOM     11  C   UNL     1       0.527  13.162  20.894  0.00  0.00    +0.000 A 
ATOM     12  C   UNL     1       0.063  13.230  19.558  0.00  0.00    +0.000 A 
ATOM     13  C   UNL     1      -1.287  12.874  19.236  0.00  0.00    +0.000 A 
ATOM     14  C   UNL     1       1.181  14.490  21.514  0.00  0.00    +0.000 C 
ATOM     15  C   UNL     1       0.060  15.544  21.294  0.00  0.00    +0.000 C 
ATOM     16  C   UNL     1      -0.796  16.480  22.093  0.00  0.00    +0.000 A 
ATOM     17  C   UNL     1      -0.455  17.510  22.954  0.00  0.00    +0.000 A 
ATOM     18  C   UNL     1      -1.482  18.183  23.660  0.00  0.00    +0.000 A 
ATOM     19  C   UNL     1      -2.806  17.740  23.575  0.00  0.00    +0.000 A 
ATOM     20  C   UNL     1      -3.120  16.707  22.741  0.00  0.00    +0.000 A 
ATOM     21  C   UNL     1      -2.172  16.220  21.881  0.00  0.00    +0.000 A 
ATOM     22  O   UNL     1      -4.346  16.124  22.775  0.00  0.00    +0.000 OA
ATOM     23  C   UNL     1      -4.444  14.911  23.437  0.00  0.00    +0.000 A 
ATOM     24  C   UNL     1      -3.437  13.966  23.665  0.00  0.00    +0.000 A 
ATOM     25  C   UNL     1      -3.755  12.703  24.185  0.00  0.00    +0.000 A 
ATOM     26  C   UNL     1      -5.085  12.354  24.410  0.00  0.00    +0.000 A 
ATOM     27  C   UNL     1      -6.091  13.280  24.108  0.00  0.00    +0.000 A 
ATOM     28  C   UNL     1      -5.751  14.593  23.757  0.00  0.00    +0.000 A 
ATOM     29  C   UNL     1      -7.481  12.800  23.785  0.00  0.00    +0.000 C 
ATOM     30  C   UNL     1      -7.916  13.282  22.376  0.00  0.00    +0.000 C 
ENDROOT
BRANCH   1  31
ATOM     31  O   UNL     1      -6.076  11.109  18.462  0.00  0.00    +0.000 OA
ATOM     32  H   UNL     1      -6.927  11.320  18.019  0.00  0.00    +0.000 HD
ENDBRANCH   1  31
BRANCH  19  33
ATOM     33  O   UNL     1      -3.800  18.293  24.312  0.00  0.00    +0.000 OA
ATOM     34  H   UNL     1      -4.603  18.329  23.777  0.00  0.00    +0.000 HD
ENDBRANCH  19  33
TORSDOF 2
ENDMDL
