MODEL 1
REMARK VINA RESULT:      -8.0      0.000      0.000
REMARK  Name = 
REMARK  2 active torsions:
REMARK  status: ('A' for Active; 'I' for Inactive)
REMARK    1  A    between atoms: C_2  and  C_3
REMARK    2  A    between atoms: C_7  and  N_8
REMARK                            x       y       z     vdW  Elec       q    Type
REMARK                         _______ _______ _______ _____ _____    ______ ____
ROOT
ATOM      1  N   UNL     1       5.146   5.396  18.313  0.00  0.00    +0.000 N 
ATOM      2  C   UNL     1       6.478   5.561  18.724  0.00  0.00    +0.000 C 
ATOM      3  O   UNL     1       6.948   5.419  19.843  0.00  0.00    +0.000 OA
ATOM      4  C   UNL     1       7.296   6.038  17.536  0.00  0.00    +0.000 C 
ATOM      5  N   UNL     1       6.370   5.895  16.436  0.00  0.00    +0.000 N 
ATOM      6  C   UNL     1       6.814   5.089  15.397  0.00  0.00    +0.000 C 
ATOM      7  O   UNL     1       7.854   5.239  14.778  0.00  0.00    +0.000 OA
ATOM      8  C   UNL     1       5.927   3.882  15.315  0.00  0.00    +0.000 C 
ATOM      9  C   UNL     1       4.685   4.277  16.096  0.00  0.00    +0.000 C 
ATOM     10  C   UNL     1       5.058   5.529  16.885  0.00  0.00    +0.000 C 
ENDROOT
BRANCH   1  15
ATOM     11  C   UNL     1       2.412   4.433  20.705  0.00  0.00    +0.000 A 
ATOM     12  C   UNL     1       1.626   5.587  20.707  0.00  0.00    +0.000 A 
ATOM     13  C   UNL     1       2.032   6.691  19.967  0.00  0.00    +0.000 A 
ATOM     14  C   UNL     1       3.215   6.637  19.218  0.00  0.00    +0.000 A 
ATOM     15  C   UNL     1       4.009   5.482  19.172  0.00  0.00    +0.000 A 
ATOM     16  C   UNL     1       3.589   4.382  19.939  0.00  0.00    +0.000 A 
BRANCH  11  18
ATOM     17  N   UNL     1       1.677   2.375  22.110  0.00  0.00    +0.000 NA
ATOM     18  C   UNL     1       2.007   3.292  21.475  0.00  0.00    +0.000 C 
ENDBRANCH  11  18
ENDBRANCH   1  15
TORSDOF 2
ENDMDL
MODEL 2
REMARK VINA RESULT:      -7.5      1.473      2.081
REMARK  Name = 
REMARK  2 active torsions:
REMARK  status: ('A' for Active; 'I' for Inactive)
REMARK    1  A    between atoms: C_2  and  C_3
REMARK    2  A    between atoms: C_7  and  N_8
REMARK                            x       y       z     vdW  Elec       q    Type
REMARK                         _______ _______ _______ _____ _____    ______ ____
ROOT
ATOM      1  N   UNL     1       5.043   5.109  18.195  0.00  0.00    +0.000 N 
ATOM      2  C   UNL     1       6.331   5.417  18.659  0.00  0.00    +0.000 C 
ATOM      3  O   UNL     1       6.782   5.281  19.787  0.00  0.00    +0.000 OA
ATOM      4  C   UNL     1       7.119   6.045  17.522  0.00  0.00    +0.000 C 
ATOM      5  N   UNL     1       6.251   5.840  16.385  0.00  0.00    +0.000 N 
ATOM      6  C   UNL     1       6.821   5.143  15.329  0.00  0.00    +0.000 C 
ATOM      7  O   UNL     1       7.853   5.449  14.754  0.00  0.00    +0.000 OA
ATOM      8  C   UNL     1       6.094   3.843  15.165  0.00  0.00    +0.000 C 
ATOM      9  C   UNL     1       4.789   4.046  15.918  0.00  0.00    +0.000 C 
ATOM     10  C   UNL     1       4.981   5.296  16.772  0.00  0.00    +0.000 C 
ENDROOT
BRANCH   1  15
ATOM     11  C   UNL     1       2.124   6.079  20.354  0.00  0.00    +0.000 A 
ATOM     12  C   UNL     1       1.700   4.835  20.824  0.00  0.00    +0.000 A 
ATOM     13  C   UNL     1       2.341   3.683  20.382  0.00  0.00    +0.000 A 
ATOM     14  C   UNL     1       3.411   3.778  19.481  0.00  0.00    +0.000 A 
ATOM     15  C   UNL     1       3.878   5.016  19.016  0.00  0.00    +0.000 A 
ATOM     16  C   UNL     1       3.207   6.166  19.463  0.00  0.00    +0.000 A 
BRANCH  11  18
ATOM     17  N   UNL     1       0.934   8.243  21.162  0.00  0.00    +0.000 NA
ATOM     18  C   UNL     1       1.461   7.272  20.796  0.00  0.00    +0.000 C 
ENDBRANCH  11  18
ENDBRANCH   1  15
TORSDOF 2
ENDMDL
MODEL 3
REMARK VINA RESULT:      -7.4      2.504      6.051
REMARK  Name = 
REMARK  2 active torsions:
REMARK  status: ('A' for Active; 'I' for Inactive)
REMARK    1  A    between atoms: C_2  and  C_3
REMARK    2  A    between atoms: C_7  and  N_8
REMARK                            x       y       z     vdW  Elec       q    Type
REMARK                         _______ _______ _______ _____ _____    ______ ____
ROOT
ATOM      1  N   UNL     1       3.992   4.326  18.676  0.00  0.00    +0.000 N 
ATOM      2  C   UNL     1       3.262   5.385  19.238  0.00  0.00    +0.000 C 
ATOM      3  O   UNL     1       3.169   6.537  18.839  0.00  0.00    +0.000 OA
ATOM      4  C   UNL     1       2.617   4.900  20.526  0.00  0.00    +0.000 C 
ATOM      5  N   UNL     1       2.863   3.476  20.486  0.00  0.00    +0.000 N 
ATOM      6  C   UNL     1       1.728   2.681  20.560  0.00  0.00    +0.000 C 
ATOM      7  O   UNL     1       0.890   2.725  21.445  0.00  0.00    +0.000 OA
ATOM      8  C   UNL     1       1.583   1.931  19.270  0.00  0.00    +0.000 C 
ATOM      9  C   UNL     1       2.958   2.022  18.628  0.00  0.00    +0.000 C 
ATOM     10  C   UNL     1       3.712   3.110  19.387  0.00  0.00    +0.000 C 
ENDROOT
BRANCH   1  15
ATOM     11  C   UNL     1       6.171   4.230  15.615  0.00  0.00    +0.000 A 
ATOM     12  C   UNL     1       7.415   4.570  16.150  0.00  0.00    +0.000 A 
ATOM     13  C   UNL     1       7.516   4.884  17.500  0.00  0.00    +0.000 A 
ATOM     14  C   UNL     1       6.377   4.846  18.316  0.00  0.00    +0.000 A 
ATOM     15  C   UNL     1       5.120   4.478  17.814  0.00  0.00    +0.000 A 
ATOM     16  C   UNL     1       5.037   4.180  16.444  0.00  0.00    +0.000 A 
BRANCH  11  18
ATOM     17  N   UNL     1       5.966   3.674  13.086  0.00  0.00    +0.000 NA
ATOM     18  C   UNL     1       6.055   3.916  14.220  0.00  0.00    +0.000 C 
ENDBRANCH  11  18
ENDBRANCH   1  15
TORSDOF 2
ENDMDL
MODEL 4
REMARK VINA RESULT:      -7.3      2.056      2.935
REMARK  Name = 
REMARK  2 active torsions:
REMARK  status: ('A' for Active; 'I' for Inactive)
REMARK    1  A    between atoms: C_2  and  C_3
REMARK    2  A    between atoms: C_7  and  N_8
REMARK                            x       y       z     vdW  Elec       q    Type
REMARK                         _______ _______ _______ _____ _____    ______ ____
ROOT
ATOM      1  N   UNL     1       4.372   5.338  18.020  0.00  0.00    +0.000 N 
ATOM      2  C   UNL     1       3.947   6.643  17.727  0.00  0.00    +0.000 C 
ATOM      3  O   UNL     1       2.894   7.183  18.032  0.00  0.00    +0.000 OA
ATOM      4  C   UNL     1       5.005   7.316  16.868  0.00  0.00    +0.000 C 
ATOM      5  N   UNL     1       6.100   6.374  16.919  0.00  0.00    +0.000 N 
ATOM      6  C   UNL     1       7.299   6.891  17.389  0.00  0.00    +0.000 C 
ATOM      7  O   UNL     1       7.878   7.862  16.932  0.00  0.00    +0.000 OA
ATOM      8  C   UNL     1       7.642   6.209  18.679  0.00  0.00    +0.000 C 
ATOM      9  C   UNL     1       6.779   4.958  18.682  0.00  0.00    +0.000 C 
ATOM     10  C   UNL     1       5.731   5.160  17.591  0.00  0.00    +0.000 C 
ENDROOT
BRANCH   1  15
ATOM     11  C   UNL     1       2.255   2.895  19.939  0.00  0.00    +0.000 A 
ATOM     12  C   UNL     1       1.961   1.950  18.954  0.00  0.00    +0.000 A 
ATOM     13  C   UNL     1       2.412   2.153  17.655  0.00  0.00    +0.000 A 
ATOM     14  C   UNL     1       3.166   3.294  17.345  0.00  0.00    +0.000 A 
ATOM     15  C   UNL     1       3.504   4.244  18.319  0.00  0.00    +0.000 A 
ATOM     16  C   UNL     1       3.025   4.028  19.622  0.00  0.00    +0.000 A 
BRANCH  11  18
ATOM     17  N   UNL     1       1.406   2.529  22.366  0.00  0.00    +0.000 NA
ATOM     18  C   UNL     1       1.784   2.700  21.279  0.00  0.00    +0.000 C 
ENDBRANCH  11  18
ENDBRANCH   1  15
TORSDOF 2
ENDMDL
MODEL 5
REMARK VINA RESULT:      -7.2      3.014      6.120
REMARK  Name = 
REMARK  2 active torsions:
REMARK  status: ('A' for Active; 'I' for Inactive)
REMARK    1  A    between atoms: C_2  and  C_3
REMARK    2  A    between atoms: C_7  and  N_8
REMARK                            x       y       z     vdW  Elec       q    Type
REMARK                         _______ _______ _______ _____ _____    ______ ____
ROOT
ATOM      1  N   UNL     1       3.071   4.316  18.422  0.00  0.00    +0.000 N 
ATOM      2  C   UNL     1       1.689   4.085  18.338  0.00  0.00    +0.000 C 
ATOM      3  O   UNL     1       0.990   4.030  17.337  0.00  0.00    +0.000 OA
ATOM      4  C   UNL     1       1.129   3.974  19.746  0.00  0.00    +0.000 C 
ATOM      5  N   UNL     1       2.324   3.933  20.559  0.00  0.00    +0.000 N 
ATOM      6  C   UNL     1       2.439   2.819  21.378  0.00  0.00    +0.000 C 
ATOM      7  O   UNL     1       1.614   2.455  22.199  0.00  0.00    +0.000 OA
ATOM      8  C   UNL     1       3.624   2.017  20.931  0.00  0.00    +0.000 C 
ATOM      9  C   UNL     1       4.432   2.984  20.081  0.00  0.00    +0.000 C 
ATOM     10  C   UNL     1       3.508   4.161  19.781  0.00  0.00    +0.000 C 
ENDROOT
BRANCH   1  15
ATOM     11  C   UNL     1       5.277   4.910  15.438  0.00  0.00    +0.000 A 
ATOM     12  C   UNL     1       5.575   6.267  15.579  0.00  0.00    +0.000 A 
ATOM     13  C   UNL     1       5.003   6.988  16.621  0.00  0.00    +0.000 A 
ATOM     14  C   UNL     1       4.144   6.349  17.525  0.00  0.00    +0.000 A 
ATOM     15  C   UNL     1       3.850   4.982  17.427  0.00  0.00    +0.000 A 
ATOM     16  C   UNL     1       4.426   4.275  16.358  0.00  0.00    +0.000 A 
BRANCH  11  18
ATOM     17  N   UNL     1       6.316   3.562  13.475  0.00  0.00    +0.000 NA
ATOM     18  C   UNL     1       5.853   4.161  14.359  0.00  0.00    +0.000 C 
ENDBRANCH  11  18
ENDBRANCH   1  15
TORSDOF 2
ENDMDL
MODEL 6
REMARK VINA RESULT:      -7.1      2.367      5.910
REMARK  Name = 
REMARK  2 active torsions:
REMARK  status: ('A' for Active; 'I' for Inactive)
REMARK    1  A    between atoms: C_2  and  C_3
REMARK    2  A    between atoms: C_7  and  N_8
REMARK                            x       y       z     vdW  Elec       q    Type
REMARK                         _______ _______ _______ _____ _____    ______ ____
ROOT
ATOM      1  N   UNL     1       3.919   4.223  18.443  0.00  0.00    +0.000 N 
ATOM      2  C   UNL     1       4.763   3.629  19.394  0.00  0.00    +0.000 C 
ATOM      3  O   UNL     1       5.941   3.869  19.616  0.00  0.00    +0.000 OA
ATOM      4  C   UNL     1       3.993   2.532  20.109  0.00  0.00    +0.000 C 
ATOM      5  N   UNL     1       2.641   2.737  19.639  0.00  0.00    +0.000 N 
ATOM      6  C   UNL     1       1.698   2.943  20.636  0.00  0.00    +0.000 C 
ATOM      7  O   UNL     1       1.484   2.194  21.574  0.00  0.00    +0.000 OA
ATOM      8  C   UNL     1       1.155   4.334  20.501  0.00  0.00    +0.000 C 
ATOM      9  C   UNL     1       1.534   4.748  19.089  0.00  0.00    +0.000 C 
ATOM     10  C   UNL     1       2.577   3.740  18.615  0.00  0.00    +0.000 C 
ENDROOT
BRANCH   1  15
ATOM     11  C   UNL     1       5.382   4.798  15.029  0.00  0.00    +0.000 A 
ATOM     12  C   UNL     1       5.440   6.192  14.983  0.00  0.00    +0.000 A 
ATOM     13  C   UNL     1       4.944   6.932  16.051  0.00  0.00    +0.000 A 
ATOM     14  C   UNL     1       4.403   6.278  17.166  0.00  0.00    +0.000 A 
ATOM     15  C   UNL     1       4.361   4.879  17.254  0.00  0.00    +0.000 A 
ATOM     16  C   UNL     1       4.852   4.151  16.158  0.00  0.00    +0.000 A 
BRANCH  11  18
ATOM     17  N   UNL     1       6.273   3.394  13.033  0.00  0.00    +0.000 NA
ATOM     18  C   UNL     1       5.881   4.027  13.928  0.00  0.00    +0.000 C 
ENDBRANCH  11  18
ENDBRANCH   1  15
TORSDOF 2
ENDMDL
MODEL 7
REMARK VINA RESULT:      -7.0      1.453      1.468
REMARK  Name = 
REMARK  2 active torsions:
REMARK  status: ('A' for Active; 'I' for Inactive)
REMARK    1  A    between atoms: C_2  and  C_3
REMARK    2  A    between atoms: C_7  and  N_8
REMARK                            x       y       z     vdW  Elec       q    Type
REMARK                         _______ _______ _______ _____ _____    ______ ____
ROOT
ATOM      1  N   UNL     1       5.150   4.962  17.735  0.00  0.00    +0.000 N 
ATOM      2  C   UNL     1       6.442   5.179  18.242  0.00  0.00    +0.000 C 
ATOM      3  O   UNL     1       6.868   4.925  19.360  0.00  0.00    +0.000 OA
ATOM      4  C   UNL     1       7.271   5.875  17.177  0.00  0.00    +0.000 C 
ATOM      5  N   UNL     1       6.415   5.806  16.014  0.00  0.00    +0.000 N 
ATOM      6  C   UNL     1       6.977   5.186  14.907  0.00  0.00    +0.000 C 
ATOM      7  O   UNL     1       8.028   5.502  14.376  0.00  0.00    +0.000 OA
ATOM      8  C   UNL     1       6.205   3.934  14.618  0.00  0.00    +0.000 C 
ATOM      9  C   UNL     1       4.896   4.118  15.368  0.00  0.00    +0.000 C 
ATOM     10  C   UNL     1       5.119   5.278  16.334  0.00  0.00    +0.000 C 
ENDROOT
BRANCH   1  15
ATOM     11  C   UNL     1       1.841   3.736  19.025  0.00  0.00    +0.000 A 
ATOM     12  C   UNL     1       1.523   4.725  19.958  0.00  0.00    +0.000 A 
ATOM     13  C   UNL     1       2.425   5.755  20.196  0.00  0.00    +0.000 A 
ATOM     14  C   UNL     1       3.637   5.801  19.494  0.00  0.00    +0.000 A 
ATOM     15  C   UNL     1       3.970   4.840  18.529  0.00  0.00    +0.000 A 
ATOM     16  C   UNL     1       3.052   3.799  18.315  0.00  0.00    +0.000 A 
BRANCH  11  18
ATOM     17  N   UNL     1       0.165   1.801  18.581  0.00  0.00    +0.000 NA
ATOM     18  C   UNL     1       0.921   2.662  18.781  0.00  0.00    +0.000 C 
ENDBRANCH  11  18
ENDBRANCH   1  15
TORSDOF 2
ENDMDL
MODEL 8
REMARK VINA RESULT:      -7.0      2.945      4.349
REMARK  Name = 
REMARK  2 active torsions:
REMARK  status: ('A' for Active; 'I' for Inactive)
REMARK    1  A    between atoms: C_2  and  C_3
REMARK    2  A    between atoms: C_7  and  N_8
REMARK                            x       y       z     vdW  Elec       q    Type
REMARK                         _______ _______ _______ _____ _____    ______ ____
ROOT
ATOM      1  N   UNL     1       3.056   5.413  19.019  0.00  0.00    +0.000 N 
ATOM      2  C   UNL     1       4.416   5.077  19.113  0.00  0.00    +0.000 C 
ATOM      3  O   UNL     1       5.318   5.711  19.642  0.00  0.00    +0.000 OA
ATOM      4  C   UNL     1       4.647   3.776  18.363  0.00  0.00    +0.000 C 
ATOM      5  N   UNL     1       3.301   3.338  18.069  0.00  0.00    +0.000 N 
ATOM      6  C   UNL     1       2.978   2.075  18.544  0.00  0.00    +0.000 C 
ATOM      7  O   UNL     1       3.591   1.048  18.302  0.00  0.00    +0.000 OA
ATOM      8  C   UNL     1       1.901   2.213  19.578  0.00  0.00    +0.000 C 
ATOM      9  C   UNL     1       1.327   3.600  19.337  0.00  0.00    +0.000 C 
ATOM     10  C   UNL     1       2.325   4.323  18.437  0.00  0.00    +0.000 C 
ENDROOT
BRANCH   1  15
ATOM     11  C   UNL     1       1.384   8.500  20.360  0.00  0.00    +0.000 A 
ATOM     12  C   UNL     1       1.301   9.292  19.213  0.00  0.00    +0.000 A 
ATOM     13  C   UNL     1       1.847   8.828  18.022  0.00  0.00    +0.000 A 
ATOM     14  C   UNL     1       2.464   7.570  17.976  0.00  0.00    +0.000 A 
ATOM     15  C   UNL     1       2.534   6.740  19.104  0.00  0.00    +0.000 A 
ATOM     16  C   UNL     1       1.991   7.234  20.302  0.00  0.00    +0.000 A 
BRANCH  11  18
ATOM     17  N   UNL     1       0.375   9.362  22.594  0.00  0.00    +0.000 NA
ATOM     18  C   UNL     1       0.834   8.976  21.597  0.00  0.00    +0.000 C 
ENDBRANCH  11  18
ENDBRANCH   1  15
TORSDOF 2
ENDMDL
MODEL 9
REMARK VINA RESULT:      -7.0      2.595      5.986
REMARK  Name = 
REMARK  2 active torsions:
REMARK  status: ('A' for Active; 'I' for Inactive)
REMARK    1  A    between atoms: C_2  and  C_3
REMARK    2  A    between atoms: C_7  and  N_8
REMARK                            x       y       z     vdW  Elec       q    Type
REMARK                         _______ _______ _______ _____ _____    ______ ____
ROOT
ATOM      1  N   UNL     1       4.163   3.881  19.012  0.00  0.00    +0.000 N 
ATOM      2  C   UNL     1       4.187   2.561  19.491  0.00  0.00    +0.000 C 
ATOM      3  O   UNL     1       5.131   1.943  19.960  0.00  0.00    +0.000 OA
ATOM      4  C   UNL     1       2.817   1.941  19.271  0.00  0.00    +0.000 C 
ATOM      5  N   UNL     1       2.018   3.074  18.863  0.00  0.00    +0.000 N 
ATOM      6  C   UNL     1       0.898   3.315  19.646  0.00  0.00    +0.000 C 
ATOM      7  O   UNL     1       0.014   2.509  19.884  0.00  0.00    +0.000 OA
ATOM      8  C   UNL     1       1.068   4.638  20.330  0.00  0.00    +0.000 C 
ATOM      9  C   UNL     1       2.163   5.332  19.537  0.00  0.00    +0.000 C 
ATOM     10  C   UNL     1       2.816   4.252  18.678  0.00  0.00    +0.000 C 
ENDROOT
BRANCH   1  15
ATOM     11  C   UNL     1       6.841   5.235  16.750  0.00  0.00    +0.000 A 
ATOM     12  C   UNL     1       7.691   5.856  17.666  0.00  0.00    +0.000 A 
ATOM     13  C   UNL     1       7.347   5.874  19.013  0.00  0.00    +0.000 A 
ATOM     14  C   UNL     1       6.162   5.262  19.442  0.00  0.00    +0.000 A 
ATOM     15  C   UNL     1       5.304   4.603  18.549  0.00  0.00    +0.000 A 
ATOM     16  C   UNL     1       5.662   4.610  17.191  0.00  0.00    +0.000 A 
BRANCH  11  18
ATOM     17  N   UNL     1       7.466   5.199  14.228  0.00  0.00    +0.000 NA
ATOM     18  C   UNL     1       7.182   5.221  15.356  0.00  0.00    +0.000 C 
ENDBRANCH  11  18
ENDBRANCH   1  15
TORSDOF 2
ENDMDL
