MODEL 1
REMARK VINA RESULT:      -7.7      0.000      0.000
REMARK  Name = 
REMARK  12 active torsions:
REMARK  status: ('A' for Active; 'I' for Inactive)
REMARK    1  A    between atoms: C_1  and  O_2
REMARK    2  A    between atoms: O_2  and  C_3
REMARK    3  A    between atoms: C_6  and  C_7
REMARK    4  A    between atoms: C_7  and  N_8
REMARK    5  A    between atoms: N_11  and  C_12
REMARK    6  A    between atoms: C_12  and  C_13
REMARK    7  A    between atoms: C_13  and  C_14
REMARK    8  A    between atoms: C_13  and  C_15
REMARK    9  A    between atoms: N_19  and  C_20
REMARK   10  A    between atoms: C_20  and  C_21
REMARK   11  A    between atoms: C_21  and  C_22
REMARK   12  A    between atoms: C_22  and  C_23
REMARK                            x       y       z     vdW  Elec       q    Type
REMARK                         _______ _______ _______ _____ _____    ______ ____
ROOT
ATOM      1  N   UNL     1       1.823   8.442  19.740  0.00  0.00    +0.000 N 
ATOM      2  C   UNL     1       1.326   7.500  20.586  0.00  0.00    +0.000 C 
ATOM      3  O   UNL     1       0.599   7.715  21.544  0.00  0.00    +0.000 OA
ATOM      4  N   UNL     1       1.716   6.234  20.130  0.00  0.00    +0.000 N 
ATOM      5  C   UNL     1       2.491   6.338  18.867  0.00  0.00    +0.000 C 
ATOM      6  C   UNL     1       1.822   5.766  17.614  0.00  0.00    +0.000 C 
ATOM      7  C   UNL     1       2.131   4.291  17.391  0.00  0.00    +0.000 C 
ATOM      8  N   UNL     1       3.545   3.943  17.470  0.00  0.00    +0.000 NA
ATOM      9  C   UNL     1       4.241   4.490  18.630  0.00  0.00    +0.000 C 
ATOM     10  C   UNL     1       3.968   5.947  18.954  0.00  0.00    +0.000 C 
ATOM     11  C   UNL     1       2.479   7.874  18.699  0.00  0.00    +0.000 C 
ATOM     12  O   UNL     1       2.965   8.482  17.751  0.00  0.00    +0.000 OA
ENDROOT
BRANCH   1  13
ATOM     13  C   UNL     1       1.483   9.845  19.794  0.00  0.00    +0.000 C 
BRANCH  13  17
ATOM     14  C   UNL     1      -2.322  10.837  18.006  0.00  0.00    +0.000 A 
ATOM     15  C   UNL     1      -2.000  11.312  19.279  0.00  0.00    +0.000 A 
ATOM     16  C   UNL     1      -0.780  10.978  19.874  0.00  0.00    +0.000 A 
ATOM     17  C   UNL     1       0.133  10.156  19.199  0.00  0.00    +0.000 A 
ATOM     18  C   UNL     1      -0.219   9.640  17.946  0.00  0.00    +0.000 A 
ATOM     19  C   UNL     1      -1.436   9.982  17.351  0.00  0.00    +0.000 A 
BRANCH  14  21
ATOM     20  C   UNL     1      -3.735  11.025  16.123  0.00  0.00    +0.000 C 
ATOM     21  O   UNL     1      -3.533  11.243  17.515  0.00  0.00    +0.000 OA
ENDBRANCH  14  21
ENDBRANCH  13  17
ENDBRANCH   1  13
BRANCH   4  22
ATOM     22  C   UNL     1       1.050   5.036  20.672  0.00  0.00    +0.000 C 
BRANCH  22  23
ATOM     23  C   UNL     1       1.844   3.719  20.633  0.00  0.00    +0.000 C 
ATOM     24  C   UNL     1       2.306   3.264  22.017  0.00  0.00    +0.000 C 
ATOM     25  C   UNL     1       1.037   2.584  19.984  0.00  0.00    +0.000 C 
ENDBRANCH  22  23
ENDBRANCH   4  22
BRANCH   8  26
ATOM     26  C   UNL     1       4.247   4.028  16.189  0.00  0.00    +0.000 C 
BRANCH  26  27
ATOM     27  C   UNL     1       5.642   3.385  16.196  0.00  0.00    +0.000 C 
BRANCH  27  28
ATOM     28  C   UNL     1       6.737   4.315  15.653  0.00  0.00    +0.000 C 
BRANCH  28  29
ATOM     29  C   UNL     1       7.222   5.241  16.733  0.00  0.00    +0.000 A 
ATOM     30  C   UNL     1       7.679   4.729  17.958  0.00  0.00    +0.000 A 
ATOM     31  C   UNL     1       8.076   5.583  18.981  0.00  0.00    +0.000 A 
ATOM     32  C   UNL     1       8.022   6.964  18.791  0.00  0.00    +0.000 A 
ATOM     33  C   UNL     1       7.571   7.484  17.577  0.00  0.00    +0.000 A 
ATOM     34  C   UNL     1       7.172   6.625  16.554  0.00  0.00    +0.000 A 
ENDBRANCH  28  29
ENDBRANCH  27  28
ENDBRANCH  26  27
ENDBRANCH   8  26
TORSDOF 9
ENDMDL
MODEL 2
REMARK VINA RESULT:      -7.5      0.410      1.240
REMARK  Name = 
REMARK  12 active torsions:
REMARK  status: ('A' for Active; 'I' for Inactive)
REMARK    1  A    between atoms: C_1  and  O_2
REMARK    2  A    between atoms: O_2  and  C_3
REMARK    3  A    between atoms: C_6  and  C_7
REMARK    4  A    between atoms: C_7  and  N_8
REMARK    5  A    between atoms: N_11  and  C_12
REMARK    6  A    between atoms: C_12  and  C_13
REMARK    7  A    between atoms: C_13  and  C_14
REMARK    8  A    between atoms: C_13  and  C_15
REMARK    9  A    between atoms: N_19  and  C_20
REMARK   10  A    between atoms: C_20  and  C_21
REMARK   11  A    between atoms: C_21  and  C_22
REMARK   12  A    between atoms: C_22  and  C_23
REMARK                            x       y       z     vdW  Elec       q    Type
REMARK                         _______ _______ _______ _____ _____    ______ ____
ROOT
ATOM      1  N   UNL     1       1.841   8.443  19.726  0.00  0.00    +0.000 N 
ATOM      2  C   UNL     1       1.334   7.507  20.573  0.00  0.00    +0.000 C 
ATOM      3  O   UNL     1       0.601   7.731  21.525  0.00  0.00    +0.000 OA
ATOM      4  N   UNL     1       1.721   6.237  20.126  0.00  0.00    +0.000 N 
ATOM      5  C   UNL     1       2.505   6.331  18.868  0.00  0.00    +0.000 C 
ATOM      6  C   UNL     1       1.842   5.756  17.613  0.00  0.00    +0.000 C 
ATOM      7  C   UNL     1       2.146   4.279  17.400  0.00  0.00    +0.000 C 
ATOM      8  N   UNL     1       3.558   3.924  17.490  0.00  0.00    +0.000 NA
ATOM      9  C   UNL     1       4.249   4.474  18.652  0.00  0.00    +0.000 C 
ATOM     10  C   UNL     1       3.980   5.934  18.967  0.00  0.00    +0.000 C 
ATOM     11  C   UNL     1       2.501   7.866  18.692  0.00  0.00    +0.000 C 
ATOM     12  O   UNL     1       2.997   8.468  17.745  0.00  0.00    +0.000 OA
ENDROOT
BRANCH   1  13
ATOM     13  C   UNL     1       1.507   9.847  19.771  0.00  0.00    +0.000 C 
BRANCH  13  17
ATOM     14  C   UNL     1      -2.404  10.646  18.120  0.00  0.00    +0.000 A 
ATOM     15  C   UNL     1      -1.475   9.899  17.393  0.00  0.00    +0.000 A 
ATOM     16  C   UNL     1      -0.200   9.653  17.911  0.00  0.00    +0.000 A 
ATOM     17  C   UNL     1       0.162  10.162  19.166  0.00  0.00    +0.000 A 
ATOM     18  C   UNL     1      -0.755  10.955  19.865  0.00  0.00    +0.000 A 
ATOM     19  C   UNL     1      -2.032  11.192  19.348  0.00  0.00    +0.000 A 
BRANCH  14  21
ATOM     20  C   UNL     1      -4.520  11.690  18.190  0.00  0.00    +0.000 C 
ATOM     21  O   UNL     1      -3.625  10.806  17.525  0.00  0.00    +0.000 OA
ENDBRANCH  14  21
ENDBRANCH  13  17
ENDBRANCH   1  13
BRANCH   4  22
ATOM     22  C   UNL     1       1.046   5.045  20.669  0.00  0.00    +0.000 C 
BRANCH  22  23
ATOM     23  C   UNL     1       1.827   3.720  20.627  0.00  0.00    +0.000 C 
ATOM     24  C   UNL     1       2.269   3.246  22.010  0.00  0.00    +0.000 C 
ATOM     25  C   UNL     1       1.017   2.600  19.957  0.00  0.00    +0.000 C 
ENDBRANCH  22  23
ENDBRANCH   4  22
BRANCH   8  26
ATOM     26  C   UNL     1       4.269   4.000  16.214  0.00  0.00    +0.000 C 
BRANCH  26  27
ATOM     27  C   UNL     1       5.677   3.387  16.244  0.00  0.00    +0.000 C 
BRANCH  27  28
ATOM     28  C   UNL     1       6.762   4.343  15.728  0.00  0.00    +0.000 C 
BRANCH  28  29
ATOM     29  C   UNL     1       7.186   5.291  16.815  0.00  0.00    +0.000 A 
ATOM     30  C   UNL     1       7.161   6.678  16.599  0.00  0.00    +0.000 A 
ATOM     31  C   UNL     1       7.605   7.558  17.581  0.00  0.00    +0.000 A 
ATOM     32  C   UNL     1       8.082   7.060  18.794  0.00  0.00    +0.000 A 
ATOM     33  C   UNL     1       8.110   5.683  19.019  0.00  0.00    +0.000 A 
ATOM     34  C   UNL     1       7.665   4.804  18.033  0.00  0.00    +0.000 A 
ENDBRANCH  28  29
ENDBRANCH  27  28
ENDBRANCH  26  27
ENDBRANCH   8  26
TORSDOF 9
ENDMDL
MODEL 3
REMARK VINA RESULT:      -7.0      0.689      1.478
REMARK  Name = 
REMARK  12 active torsions:
REMARK  status: ('A' for Active; 'I' for Inactive)
REMARK    1  A    between atoms: C_1  and  O_2
REMARK    2  A    between atoms: O_2  and  C_3
REMARK    3  A    between atoms: C_6  and  C_7
REMARK    4  A    between atoms: C_7  and  N_8
REMARK    5  A    between atoms: N_11  and  C_12
REMARK    6  A    between atoms: C_12  and  C_13
REMARK    7  A    between atoms: C_13  and  C_14
REMARK    8  A    between atoms: C_13  and  C_15
REMARK    9  A    between atoms: N_19  and  C_20
REMARK   10  A    between atoms: C_20  and  C_21
REMARK   11  A    between atoms: C_21  and  C_22
REMARK   12  A    between atoms: C_22  and  C_23
REMARK                            x       y       z     vdW  Elec       q    Type
REMARK                         _______ _______ _______ _____ _____    ______ ____
ROOT
ATOM      1  N   UNL     1       2.110   7.819  19.743  0.00  0.00    +0.000 N 
ATOM      2  C   UNL     1       1.373   6.920  20.449  0.00  0.00    +0.000 C 
ATOM      3  O   UNL     1       0.531   7.194  21.291  0.00  0.00    +0.000 OA
ATOM      4  N   UNL     1       1.677   5.631  19.993  0.00  0.00    +0.000 N 
ATOM      5  C   UNL     1       2.654   5.677  18.875  0.00  0.00    +0.000 C 
ATOM      6  C   UNL     1       2.134   5.236  17.503  0.00  0.00    +0.000 C 
ATOM      7  C   UNL     1       2.296   3.743  17.255  0.00  0.00    +0.000 C 
ATOM      8  N   UNL     1       3.626   3.215  17.536  0.00  0.00    +0.000 NA
ATOM      9  C   UNL     1       4.185   3.630  18.818  0.00  0.00    +0.000 C 
ATOM     10  C   UNL     1       4.040   5.100  19.172  0.00  0.00    +0.000 C 
ATOM     11  C   UNL     1       2.853   7.206  18.789  0.00  0.00    +0.000 C 
ATOM     12  O   UNL     1       3.557   7.780  17.963  0.00  0.00    +0.000 OA
ENDROOT
BRANCH   1  13
ATOM     13  C   UNL     1       1.937   9.251  19.818  0.00  0.00    +0.000 C 
BRANCH  13  17
ATOM     14  C   UNL     1      -1.828  10.515  18.118  0.00  0.00    +0.000 A 
ATOM     15  C   UNL     1      -0.917   9.791  17.345  0.00  0.00    +0.000 A 
ATOM     16  C   UNL     1       0.311   9.396  17.881  0.00  0.00    +0.000 A 
ATOM     17  C   UNL     1       0.647   9.729  19.201  0.00  0.00    +0.000 A 
ATOM     18  C   UNL     1      -0.247  10.502  19.951  0.00  0.00    +0.000 A 
ATOM     19  C   UNL     1      -1.479  10.888  19.415  0.00  0.00    +0.000 A 
BRANCH  14  21
ATOM     20  C   UNL     1      -2.960  10.864  16.075  0.00  0.00    +0.000 C 
ATOM     21  O   UNL     1      -3.005  10.831  17.497  0.00  0.00    +0.000 OA
ENDBRANCH  14  21
ENDBRANCH  13  17
ENDBRANCH   1  13
BRANCH   4  22
ATOM     22  C   UNL     1       0.793   4.509  20.359  0.00  0.00    +0.000 C 
BRANCH  22  23
ATOM     23  C   UNL     1       1.389   3.418  21.266  0.00  0.00    +0.000 C 
ATOM     24  C   UNL     1       1.739   2.140  20.505  0.00  0.00    +0.000 C 
ATOM     25  C   UNL     1       2.641   3.911  22.006  0.00  0.00    +0.000 C 
ENDBRANCH  22  23
ENDBRANCH   4  22
BRANCH   8  26
ATOM     26  C   UNL     1       4.532   3.253  16.388  0.00  0.00    +0.000 C 
BRANCH  26  27
ATOM     27  C   UNL     1       4.899   4.672  15.926  0.00  0.00    +0.000 C 
BRANCH  27  28
ATOM     28  C   UNL     1       6.407   4.864  15.710  0.00  0.00    +0.000 C 
BRANCH  28  29
ATOM     29  C   UNL     1       7.008   5.635  16.851  0.00  0.00    +0.000 A 
ATOM     30  C   UNL     1       7.126   7.032  16.782  0.00  0.00    +0.000 A 
ATOM     31  C   UNL     1       7.732   7.745  17.811  0.00  0.00    +0.000 A 
ATOM     32  C   UNL     1       8.229   7.068  18.925  0.00  0.00    +0.000 A 
ATOM     33  C   UNL     1       8.115   5.680  19.005  0.00  0.00    +0.000 A 
ATOM     34  C   UNL     1       7.509   4.967  17.971  0.00  0.00    +0.000 A 
ENDBRANCH  28  29
ENDBRANCH  27  28
ENDBRANCH  26  27
ENDBRANCH   8  26
TORSDOF 9
ENDMDL
MODEL 4
REMARK VINA RESULT:      -6.9      2.766      4.337
REMARK  Name = 
REMARK  12 active torsions:
REMARK  status: ('A' for Active; 'I' for Inactive)
REMARK    1  A    between atoms: C_1  and  O_2
REMARK    2  A    between atoms: O_2  and  C_3
REMARK    3  A    between atoms: C_6  and  C_7
REMARK    4  A    between atoms: C_7  and  N_8
REMARK    5  A    between atoms: N_11  and  C_12
REMARK    6  A    between atoms: C_12  and  C_13
REMARK    7  A    between atoms: C_13  and  C_14
REMARK    8  A    between atoms: C_13  and  C_15
REMARK    9  A    between atoms: N_19  and  C_20
REMARK   10  A    between atoms: C_20  and  C_21
REMARK   11  A    between atoms: C_21  and  C_22
REMARK   12  A    between atoms: C_22  and  C_23
REMARK                            x       y       z     vdW  Elec       q    Type
REMARK                         _______ _______ _______ _____ _____    ______ ____
ROOT
ATOM      1  N   UNL     1       2.257   7.737  18.464  0.00  0.00    +0.000 N 
ATOM      2  C   UNL     1       2.221   6.923  19.553  0.00  0.00    +0.000 C 
ATOM      3  O   UNL     1       1.368   6.940  20.428  0.00  0.00    +0.000 OA
ATOM      4  N   UNL     1       3.276   6.006  19.465  0.00  0.00    +0.000 N 
ATOM      5  C   UNL     1       4.044   6.195  18.208  0.00  0.00    +0.000 C 
ATOM      6  C   UNL     1       3.953   5.059  17.184  0.00  0.00    +0.000 C 
ATOM      7  C   UNL     1       5.020   3.990  17.382  0.00  0.00    +0.000 C 
ATOM      8  N   UNL     1       6.379   4.499  17.523  0.00  0.00    +0.000 NA
ATOM      9  C   UNL     1       6.518   5.605  18.464  0.00  0.00    +0.000 C 
ATOM     10  C   UNL     1       5.477   6.706  18.368  0.00  0.00    +0.000 C 
ATOM     11  C   UNL     1       3.247   7.377  17.612  0.00  0.00    +0.000 C 
ATOM     12  O   UNL     1       3.464   7.892  16.519  0.00  0.00    +0.000 OA
ENDROOT
BRANCH   1  13
ATOM     13  C   UNL     1       1.225   8.689  18.126  0.00  0.00    +0.000 C 
BRANCH  13  17
ATOM     14  C   UNL     1       1.816  12.675  19.683  0.00  0.00    +0.000 A 
ATOM     15  C   UNL     1       2.373  12.312  18.455  0.00  0.00    +0.000 A 
ATOM     16  C   UNL     1       2.205  11.019  17.954  0.00  0.00    +0.000 A 
ATOM     17  C   UNL     1       1.478  10.067  18.684  0.00  0.00    +0.000 A 
ATOM     18  C   UNL     1       0.969  10.422  19.938  0.00  0.00    +0.000 A 
ATOM     19  C   UNL     1       1.132  11.719  20.433  0.00  0.00    +0.000 A 
BRANCH  14  21
ATOM     20  C   UNL     1       3.023  14.673  19.328  0.00  0.00    +0.000 C 
ATOM     21  O   UNL     1       2.028  13.971  20.065  0.00  0.00    +0.000 OA
ENDBRANCH  14  21
ENDBRANCH  13  17
ENDBRANCH   1  13
BRANCH   4  22
ATOM     22  C   UNL     1       3.275   4.820  20.340  0.00  0.00    +0.000 C 
BRANCH  22  23
ATOM     23  C   UNL     1       1.989   3.976  20.371  0.00  0.00    +0.000 C 
ATOM     24  C   UNL     1       1.914   2.967  19.226  0.00  0.00    +0.000 C 
ATOM     25  C   UNL     1       1.828   3.226  21.702  0.00  0.00    +0.000 C 
ENDBRANCH  22  23
ENDBRANCH   4  22
BRANCH   8  26
ATOM     26  C   UNL     1       7.097   4.628  16.255  0.00  0.00    +0.000 C 
BRANCH  26  27
ATOM     27  C   UNL     1       6.503   3.791  15.112  0.00  0.00    +0.000 C 
BRANCH  27  28
ATOM     28  C   UNL     1       6.469   4.540  13.772  0.00  0.00    +0.000 C 
BRANCH  28  29
ATOM     29  C   UNL     1       5.928   3.652  12.687  0.00  0.00    +0.000 A 
ATOM     30  C   UNL     1       4.627   3.842  12.195  0.00  0.00    +0.000 A 
ATOM     31  C   UNL     1       4.101   2.988  11.231  0.00  0.00    +0.000 A 
ATOM     32  C   UNL     1       4.872   1.932  10.745  0.00  0.00    +0.000 A 
ATOM     33  C   UNL     1       6.166   1.735  11.226  0.00  0.00    +0.000 A 
ATOM     34  C   UNL     1       6.691   2.591  12.194  0.00  0.00    +0.000 A 
ENDBRANCH  28  29
ENDBRANCH  27  28
ENDBRANCH  26  27
ENDBRANCH   8  26
TORSDOF 9
ENDMDL
MODEL 5
REMARK VINA RESULT:      -6.8      3.968      7.351
REMARK  Name = 
REMARK  12 active torsions:
REMARK  status: ('A' for Active; 'I' for Inactive)
REMARK    1  A    between atoms: C_1  and  O_2
REMARK    2  A    between atoms: O_2  and  C_3
REMARK    3  A    between atoms: C_6  and  C_7
REMARK    4  A    between atoms: C_7  and  N_8
REMARK    5  A    between atoms: N_11  and  C_12
REMARK    6  A    between atoms: C_12  and  C_13
REMARK    7  A    between atoms: C_13  and  C_14
REMARK    8  A    between atoms: C_13  and  C_15
REMARK    9  A    between atoms: N_19  and  C_20
REMARK   10  A    between atoms: C_20  and  C_21
REMARK   11  A    between atoms: C_21  and  C_22
REMARK   12  A    between atoms: C_22  and  C_23
REMARK                            x       y       z     vdW  Elec       q    Type
REMARK                         _______ _______ _______ _____ _____    ______ ____
ROOT
ATOM      1  N   UNL     1      -1.125  12.649  21.771  0.00  0.00    +0.000 N 
ATOM      2  C   UNL     1      -0.941  13.588  20.805  0.00  0.00    +0.000 C 
ATOM      3  O   UNL     1      -1.113  14.791  20.938  0.00  0.00    +0.000 OA
ATOM      4  N   UNL     1      -0.442  12.962  19.656  0.00  0.00    +0.000 N 
ATOM      5  C   UNL     1      -0.238  11.508  19.886  0.00  0.00    +0.000 C 
ATOM      6  C   UNL     1       1.214  11.020  19.883  0.00  0.00    +0.000 C 
ATOM      7  C   UNL     1       1.704  10.616  18.499  0.00  0.00    +0.000 C 
ATOM      8  N   UNL     1       0.817   9.715  17.773  0.00  0.00    +0.000 NA
ATOM      9  C   UNL     1      -0.586  10.115  17.772  0.00  0.00    +0.000 C 
ATOM     10  C   UNL     1      -1.158  10.570  19.102  0.00  0.00    +0.000 C 
ATOM     11  C   UNL     1      -0.717  11.426  21.353  0.00  0.00    +0.000 C 
ATOM     12  O   UNL     1      -0.702  10.411  22.042  0.00  0.00    +0.000 OA
ENDROOT
BRANCH   1  13
ATOM     13  C   UNL     1      -1.463  12.948  23.143  0.00  0.00    +0.000 C 
BRANCH  13  17
ATOM     14  C   UNL     1      -5.484  14.398  23.767  0.00  0.00    +0.000 A 
ATOM     15  C   UNL     1      -5.272  13.167  23.145  0.00  0.00    +0.000 A 
ATOM     16  C   UNL     1      -3.974  12.700  22.920  0.00  0.00    +0.000 A 
ATOM     17  C   UNL     1      -2.868  13.468  23.312  0.00  0.00    +0.000 A 
ATOM     18  C   UNL     1      -3.089  14.725  23.886  0.00  0.00    +0.000 A 
ATOM     19  C   UNL     1      -4.388  15.186  24.118  0.00  0.00    +0.000 A 
BRANCH  14  21
ATOM     20  C   UNL     1      -7.713  14.198  23.014  0.00  0.00    +0.000 C 
ATOM     21  O   UNL     1      -6.794  14.745  23.953  0.00  0.00    +0.000 OA
ENDBRANCH  14  21
ENDBRANCH  13  17
ENDBRANCH   1  13
BRANCH   4  22
ATOM     22  C   UNL     1       0.144  13.785  18.582  0.00  0.00    +0.000 C 
BRANCH  22  23
ATOM     23  C   UNL     1       1.444  14.539  18.911  0.00  0.00    +0.000 C 
ATOM     24  C   UNL     1       2.635  14.058  18.085  0.00  0.00    +0.000 C 
ATOM     25  C   UNL     1       1.289  16.055  18.717  0.00  0.00    +0.000 C 
ENDBRANCH  22  23
ENDBRANCH   4  22
BRANCH   8  26
ATOM     26  C   UNL     1       1.089   8.297  18.012  0.00  0.00    +0.000 C 
BRANCH  26  27
ATOM     27  C   UNL     1       2.538   7.999  18.426  0.00  0.00    +0.000 C 
BRANCH  27  28
ATOM     28  C   UNL     1       3.044   6.643  17.915  0.00  0.00    +0.000 C 
BRANCH  28  29
ATOM     29  C   UNL     1       2.363   5.519  18.645  0.00  0.00    +0.000 A 
ATOM     30  C   UNL     1       1.806   4.444  17.934  0.00  0.00    +0.000 A 
ATOM     31  C   UNL     1       1.126   3.430  18.600  0.00  0.00    +0.000 A 
ATOM     32  C   UNL     1       0.994   3.478  19.988  0.00  0.00    +0.000 A 
ATOM     33  C   UNL     1       1.545   4.541  20.704  0.00  0.00    +0.000 A 
ATOM     34  C   UNL     1       2.225   5.557  20.034  0.00  0.00    +0.000 A 
ENDBRANCH  28  29
ENDBRANCH  27  28
ENDBRANCH  26  27
ENDBRANCH   8  26
TORSDOF 9
ENDMDL
MODEL 6
REMARK VINA RESULT:      -6.8      3.341      6.393
REMARK  Name = 
REMARK  12 active torsions:
REMARK  status: ('A' for Active; 'I' for Inactive)
REMARK    1  A    between atoms: C_1  and  O_2
REMARK    2  A    between atoms: O_2  and  C_3
REMARK    3  A    between atoms: C_6  and  C_7
REMARK    4  A    between atoms: C_7  and  N_8
REMARK    5  A    between atoms: N_11  and  C_12
REMARK    6  A    between atoms: C_12  and  C_13
REMARK    7  A    between atoms: C_13  and  C_14
REMARK    8  A    between atoms: C_13  and  C_15
REMARK    9  A    between atoms: N_19  and  C_20
REMARK   10  A    between atoms: C_20  and  C_21
REMARK   11  A    between atoms: C_21  and  C_22
REMARK   12  A    between atoms: C_22  and  C_23
REMARK                            x       y       z     vdW  Elec       q    Type
REMARK                         _______ _______ _______ _____ _____    ______ ____
ROOT
ATOM      1  N   UNL     1      -1.765  11.501  17.985  0.00  0.00    +0.000 N 
ATOM      2  C   UNL     1      -0.840  12.419  18.373  0.00  0.00    +0.000 C 
ATOM      3  O   UNL     1      -0.882  13.617  18.133  0.00  0.00    +0.000 OA
ATOM      4  N   UNL     1       0.124  11.782  19.164  0.00  0.00    +0.000 N 
ATOM      5  C   UNL     1      -0.205  10.346  19.352  0.00  0.00    +0.000 C 
ATOM      6  C   UNL     1      -0.581   9.919  20.774  0.00  0.00    +0.000 C 
ATOM      7  C   UNL     1       0.621   9.496  21.608  0.00  0.00    +0.000 C 
ATOM      8  N   UNL     1       1.511   8.539  20.961  0.00  0.00    +0.000 NA
ATOM      9  C   UNL     1       1.876   8.880  19.590  0.00  0.00    +0.000 C 
ATOM     10  C   UNL     1       0.748   9.349  18.689  0.00  0.00    +0.000 C 
ATOM     11  C   UNL     1      -1.508  10.285  18.525  0.00  0.00    +0.000 C 
ATOM     12  O   UNL     1      -2.217   9.291  18.400  0.00  0.00    +0.000 OA
ENDROOT
BRANCH   1  13
ATOM     13  C   UNL     1      -2.997  11.824  17.304  0.00  0.00    +0.000 C 
BRANCH  13  17
ATOM     14  C   UNL     1      -6.571  11.431  19.699  0.00  0.00    +0.000 A 
ATOM     15  C   UNL     1      -5.503  12.206  20.155  0.00  0.00    +0.000 A 
ATOM     16  C   UNL     1      -4.335  12.322  19.396  0.00  0.00    +0.000 A 
ATOM     17  C   UNL     1      -4.221  11.653  18.169  0.00  0.00    +0.000 A 
ATOM     18  C   UNL     1      -5.273  10.834  17.745  0.00  0.00    +0.000 A 
ATOM     19  C   UNL     1      -6.443  10.727  18.502  0.00  0.00    +0.000 A 
BRANCH  14  21
ATOM     20  C   UNL     1      -7.548  12.134  21.731  0.00  0.00    +0.000 C 
ATOM     21  O   UNL     1      -7.669  11.406  20.514  0.00  0.00    +0.000 OA
ENDBRANCH  14  21
ENDBRANCH  13  17
ENDBRANCH   1  13
BRANCH   4  22
ATOM     22  C   UNL     1       1.048  12.599  19.972  0.00  0.00    +0.000 C 
BRANCH  22  23
ATOM     23  C   UNL     1       2.350  13.058  19.291  0.00  0.00    +0.000 C 
ATOM     24  C   UNL     1       2.605  12.352  17.961  0.00  0.00    +0.000 C 
ATOM     25  C   UNL     1       2.368  14.575  19.056  0.00  0.00    +0.000 C 
ENDBRANCH  22  23
ENDBRANCH   4  22
BRANCH   8  26
ATOM     26  C   UNL     1       1.159   7.142  21.212  0.00  0.00    +0.000 C 
BRANCH  26  27
ATOM     27  C   UNL     1       1.799   6.148  20.230  0.00  0.00    +0.000 C 
BRANCH  27  28
ATOM     28  C   UNL     1       1.394   4.691  20.498  0.00  0.00    +0.000 C 
BRANCH  28  29
ATOM     29  C   UNL     1       2.132   3.763  19.574  0.00  0.00    +0.000 A 
ATOM     30  C   UNL     1       1.882   3.787  18.192  0.00  0.00    +0.000 A 
ATOM     31  C   UNL     1       2.520   2.893  17.340  0.00  0.00    +0.000 A 
ATOM     32  C   UNL     1       3.419   1.961  17.860  0.00  0.00    +0.000 A 
ATOM     33  C   UNL     1       3.675   1.929  19.230  0.00  0.00    +0.000 A 
ATOM     34  C   UNL     1       3.033   2.826  20.083  0.00  0.00    +0.000 A 
ENDBRANCH  28  29
ENDBRANCH  27  28
ENDBRANCH  26  27
ENDBRANCH   8  26
TORSDOF 9
ENDMDL
MODEL 7
REMARK VINA RESULT:      -6.8      2.287      3.675
REMARK  Name = 
REMARK  12 active torsions:
REMARK  status: ('A' for Active; 'I' for Inactive)
REMARK    1  A    between atoms: C_1  and  O_2
REMARK    2  A    between atoms: O_2  and  C_3
REMARK    3  A    between atoms: C_6  and  C_7
REMARK    4  A    between atoms: C_7  and  N_8
REMARK    5  A    between atoms: N_11  and  C_12
REMARK    6  A    between atoms: C_12  and  C_13
REMARK    7  A    between atoms: C_13  and  C_14
REMARK    8  A    between atoms: C_13  and  C_15
REMARK    9  A    between atoms: N_19  and  C_20
REMARK   10  A    between atoms: C_20  and  C_21
REMARK   11  A    between atoms: C_21  and  C_22
REMARK   12  A    between atoms: C_22  and  C_23
REMARK                            x       y       z     vdW  Elec       q    Type
REMARK                         _______ _______ _______ _____ _____    ______ ____
ROOT
ATOM      1  N   UNL     1       2.049   7.694  18.739  0.00  0.00    +0.000 N 
ATOM      2  C   UNL     1       1.869   6.935  19.852  0.00  0.00    +0.000 C 
ATOM      3  O   UNL     1       0.954   7.052  20.654  0.00  0.00    +0.000 OA
ATOM      4  N   UNL     1       2.856   5.942  19.886  0.00  0.00    +0.000 N 
ATOM      5  C   UNL     1       3.731   6.018  18.688  0.00  0.00    +0.000 C 
ATOM      6  C   UNL     1       3.634   4.847  17.705  0.00  0.00    +0.000 C 
ATOM      7  C   UNL     1       4.599   3.714  18.029  0.00  0.00    +0.000 C 
ATOM      8  N   UNL     1       5.978   4.130  18.260  0.00  0.00    +0.000 NA
ATOM      9  C   UNL     1       6.126   5.265  19.165  0.00  0.00    +0.000 C 
ATOM     10  C   UNL     1       5.181   6.432  18.942  0.00  0.00    +0.000 C 
ATOM     11  C   UNL     1       3.073   7.226  17.984  0.00  0.00    +0.000 C 
ATOM     12  O   UNL     1       3.412   7.675  16.893  0.00  0.00    +0.000 OA
ENDROOT
BRANCH   1  13
ATOM     13  C   UNL     1       1.122   8.702  18.282  0.00  0.00    +0.000 C 
BRANCH  13  17
ATOM     14  C   UNL     1       1.760  12.656  19.901  0.00  0.00    +0.000 A 
ATOM     15  C   UNL     1       2.270  12.322  18.645  0.00  0.00    +0.000 A 
ATOM     16  C   UNL     1       2.086  11.038  18.123  0.00  0.00    +0.000 A 
ATOM     17  C   UNL     1       1.391  10.069  18.859  0.00  0.00    +0.000 A 
ATOM     18  C   UNL     1       0.930  10.395  20.140  0.00  0.00    +0.000 A 
ATOM     19  C   UNL     1       1.108  11.681  20.656  0.00  0.00    +0.000 A 
BRANCH  14  21
ATOM     20  C   UNL     1       1.131  14.420  21.340  0.00  0.00    +0.000 C 
ATOM     21  O   UNL     1       1.983  13.945  20.302  0.00  0.00    +0.000 OA
ENDBRANCH  14  21
ENDBRANCH  13  17
ENDBRANCH   1  13
BRANCH   4  22
ATOM     22  C   UNL     1       2.698   4.799  20.803  0.00  0.00    +0.000 C 
BRANCH  22  23
ATOM     23  C   UNL     1       1.383   4.005  20.710  0.00  0.00    +0.000 C 
ATOM     24  C   UNL     1       1.109   3.475  19.303  0.00  0.00    +0.000 C 
ATOM     25  C   UNL     1       1.355   2.826  21.695  0.00  0.00    +0.000 C 
ENDBRANCH  22  23
ENDBRANCH   4  22
BRANCH   8  26
ATOM     26  C   UNL     1       6.800   4.151  17.050  0.00  0.00    +0.000 C 
BRANCH  26  27
ATOM     27  C   UNL     1       6.920   5.537  16.398  0.00  0.00    +0.000 C 
BRANCH  27  28
ATOM     28  C   UNL     1       5.854   5.791  15.322  0.00  0.00    +0.000 C 
BRANCH  28  29
ATOM     29  C   UNL     1       6.152   4.989  14.087  0.00  0.00    +0.000 A 
ATOM     30  C   UNL     1       5.247   4.016  13.634  0.00  0.00    +0.000 A 
ATOM     31  C   UNL     1       5.544   3.232  12.524  0.00  0.00    +0.000 A 
ATOM     32  C   UNL     1       6.752   3.412  11.851  0.00  0.00    +0.000 A 
ATOM     33  C   UNL     1       7.658   4.377  12.292  0.00  0.00    +0.000 A 
ATOM     34  C   UNL     1       7.359   5.160  13.406  0.00  0.00    +0.000 A 
ENDBRANCH  28  29
ENDBRANCH  27  28
ENDBRANCH  26  27
ENDBRANCH   8  26
TORSDOF 9
ENDMDL
MODEL 8
REMARK VINA RESULT:      -6.8      1.481      2.527
REMARK  Name = 
REMARK  12 active torsions:
REMARK  status: ('A' for Active; 'I' for Inactive)
REMARK    1  A    between atoms: C_1  and  O_2
REMARK    2  A    between atoms: O_2  and  C_3
REMARK    3  A    between atoms: C_6  and  C_7
REMARK    4  A    between atoms: C_7  and  N_8
REMARK    5  A    between atoms: N_11  and  C_12
REMARK    6  A    between atoms: C_12  and  C_13
REMARK    7  A    between atoms: C_13  and  C_14
REMARK    8  A    between atoms: C_13  and  C_15
REMARK    9  A    between atoms: N_19  and  C_20
REMARK   10  A    between atoms: C_20  and  C_21
REMARK   11  A    between atoms: C_21  and  C_22
REMARK   12  A    between atoms: C_22  and  C_23
REMARK                            x       y       z     vdW  Elec       q    Type
REMARK                         _______ _______ _______ _____ _____    ______ ____
ROOT
ATOM      1  N   UNL     1       2.156   8.460  19.219  0.00  0.00    +0.000 N 
ATOM      2  C   UNL     1       1.584   7.747  20.226  0.00  0.00    +0.000 C 
ATOM      3  O   UNL     1       0.821   8.192  21.070  0.00  0.00    +0.000 OA
ATOM      4  N   UNL     1       1.949   6.401  20.090  0.00  0.00    +0.000 N 
ATOM      5  C   UNL     1       2.787   6.196  18.881  0.00  0.00    +0.000 C 
ATOM      6  C   UNL     1       2.158   5.371  17.754  0.00  0.00    +0.000 C 
ATOM      7  C   UNL     1       2.424   3.877  17.888  0.00  0.00    +0.000 C 
ATOM      8  N   UNL     1       3.819   3.520  18.121  0.00  0.00    +0.000 NA
ATOM      9  C   UNL     1       4.478   4.299  19.164  0.00  0.00    +0.000 C 
ATOM     10  C   UNL     1       4.243   5.799  19.135  0.00  0.00    +0.000 C 
ATOM     11  C   UNL     1       2.839   7.653  18.371  0.00  0.00    +0.000 C 
ATOM     12  O   UNL     1       3.393   8.018  17.338  0.00  0.00    +0.000 OA
ENDROOT
BRANCH   1  13
ATOM     13  C   UNL     1       1.865   9.846  18.936  0.00  0.00    +0.000 C 
BRANCH  13  17
ATOM     14  C   UNL     1      -2.280  10.686  18.058  0.00  0.00    +0.000 A 
ATOM     15  C   UNL     1      -1.657  11.294  19.150  0.00  0.00    +0.000 A 
ATOM     16  C   UNL     1      -0.323  11.011  19.453  0.00  0.00    +0.000 A 
ATOM     17  C   UNL     1       0.405  10.108  18.667  0.00  0.00    +0.000 A 
ATOM     18  C   UNL     1      -0.242   9.461  17.607  0.00  0.00    +0.000 A 
ATOM     19  C   UNL     1      -1.574   9.751  17.301  0.00  0.00    +0.000 A 
BRANCH  14  21
ATOM     20  C   UNL     1      -4.200  11.765  18.908  0.00  0.00    +0.000 C 
ATOM     21  O   UNL     1      -3.581  11.051  17.844  0.00  0.00    +0.000 OA
ENDBRANCH  14  21
ENDBRANCH  13  17
ENDBRANCH   1  13
BRANCH   4  22
ATOM     22  C   UNL     1       1.214   5.374  20.851  0.00  0.00    +0.000 C 
BRANCH  22  23
ATOM     23  C   UNL     1       1.660   3.914  20.663  0.00  0.00    +0.000 C 
ATOM     24  C   UNL     1       2.229   3.297  21.940  0.00  0.00    +0.000 C 
ATOM     25  C   UNL     1       0.514   3.027  20.155  0.00  0.00    +0.000 C 
ENDBRANCH  22  23
ENDBRANCH   4  22
BRANCH   8  26
ATOM     26  C   UNL     1       4.584   3.295  16.895  0.00  0.00    +0.000 C 
BRANCH  26  27
ATOM     27  C   UNL     1       5.707   4.317  16.660  0.00  0.00    +0.000 C 
BRANCH  27  28
ATOM     28  C   UNL     1       5.416   5.274  15.495  0.00  0.00    +0.000 C 
BRANCH  28  29
ATOM     29  C   UNL     1       6.010   4.745  14.220  0.00  0.00    +0.000 A 
ATOM     30  C   UNL     1       7.276   5.176  13.792  0.00  0.00    +0.000 A 
ATOM     31  C   UNL     1       7.807   4.733  12.585  0.00  0.00    +0.000 A 
ATOM     32  C   UNL     1       7.076   3.850  11.789  0.00  0.00    +0.000 A 
ATOM     33  C   UNL     1       5.818   3.415  12.205  0.00  0.00    +0.000 A 
ATOM     34  C   UNL     1       5.287   3.862  13.414  0.00  0.00    +0.000 A 
ENDBRANCH  28  29
ENDBRANCH  27  28
ENDBRANCH  26  27
ENDBRANCH   8  26
TORSDOF 9
ENDMDL
MODEL 9
REMARK VINA RESULT:      -6.8      1.498      2.614
REMARK  Name = 
REMARK  12 active torsions:
REMARK  status: ('A' for Active; 'I' for Inactive)
REMARK    1  A    between atoms: C_1  and  O_2
REMARK    2  A    between atoms: O_2  and  C_3
REMARK    3  A    between atoms: C_6  and  C_7
REMARK    4  A    between atoms: C_7  and  N_8
REMARK    5  A    between atoms: N_11  and  C_12
REMARK    6  A    between atoms: C_12  and  C_13
REMARK    7  A    between atoms: C_13  and  C_14
REMARK    8  A    between atoms: C_13  and  C_15
REMARK    9  A    between atoms: N_19  and  C_20
REMARK   10  A    between atoms: C_20  and  C_21
REMARK   11  A    between atoms: C_21  and  C_22
REMARK   12  A    between atoms: C_22  and  C_23
REMARK                            x       y       z     vdW  Elec       q    Type
REMARK                         _______ _______ _______ _____ _____    ______ ____
ROOT
ATOM      1  N   UNL     1       2.170   8.499  19.104  0.00  0.00    +0.000 N 
ATOM      2  C   UNL     1       1.622   7.810  20.141  0.00  0.00    +0.000 C 
ATOM      3  O   UNL     1       0.893   8.280  21.002  0.00  0.00    +0.000 OA
ATOM      4  N   UNL     1       1.963   6.457  20.015  0.00  0.00    +0.000 N 
ATOM      5  C   UNL     1       2.759   6.221  18.783  0.00  0.00    +0.000 C 
ATOM      6  C   UNL     1       2.082   5.387  17.691  0.00  0.00    +0.000 C 
ATOM      7  C   UNL     1       2.331   3.892  17.840  0.00  0.00    +0.000 C 
ATOM      8  N   UNL     1       3.728   3.519  18.034  0.00  0.00    +0.000 NA
ATOM      9  C   UNL     1       4.432   4.305  19.041  0.00  0.00    +0.000 C 
ATOM     10  C   UNL     1       4.216   5.807  18.996  0.00  0.00    +0.000 C 
ATOM     11  C   UNL     1       2.814   7.669  18.248  0.00  0.00    +0.000 C 
ATOM     12  O   UNL     1       3.338   8.010  17.192  0.00  0.00    +0.000 OA
ENDROOT
BRANCH   1  13
ATOM     13  C   UNL     1       1.889   9.884  18.809  0.00  0.00    +0.000 C 
BRANCH  13  17
ATOM     14  C   UNL     1      -2.330  10.577  18.194  0.00  0.00    +0.000 A 
ATOM     15  C   UNL     1      -1.625   9.734  17.333  0.00  0.00    +0.000 A 
ATOM     16  C   UNL     1      -0.255   9.521  17.512  0.00  0.00    +0.000 A 
ATOM     17  C   UNL     1       0.428  10.158  18.557  0.00  0.00    +0.000 A 
ATOM     18  C   UNL     1      -0.274  11.044  19.383  0.00  0.00    +0.000 A 
ATOM     19  C   UNL     1      -1.645  11.249  19.206  0.00  0.00    +0.000 A 
BRANCH  14  21
ATOM     20  C   UNL     1      -4.336  11.743  18.631  0.00  0.00    +0.000 C 
ATOM     21  O   UNL     1      -3.668  10.696  17.936  0.00  0.00    +0.000 OA
ENDBRANCH  14  21
ENDBRANCH  13  17
ENDBRANCH   1  13
BRANCH   4  22
ATOM     22  C   UNL     1       1.240   5.454  20.816  0.00  0.00    +0.000 C 
BRANCH  22  23
ATOM     23  C   UNL     1       1.710   3.993  20.696  0.00  0.00    +0.000 C 
ATOM     24  C   UNL     1       2.341   3.464  21.982  0.00  0.00    +0.000 C 
ATOM     25  C   UNL     1       0.564   3.056  20.286  0.00  0.00    +0.000 C 
ENDBRANCH  22  23
ENDBRANCH   4  22
BRANCH   8  26
ATOM     26  C   UNL     1       4.449   3.263  16.787  0.00  0.00    +0.000 C 
BRANCH  26  27
ATOM     27  C   UNL     1       5.711   4.121  16.606  0.00  0.00    +0.000 C 
BRANCH  27  28
ATOM     28  C   UNL     1       5.538   5.235  15.563  0.00  0.00    +0.000 C 
BRANCH  28  29
ATOM     29  C   UNL     1       6.068   4.791  14.229  0.00  0.00    +0.000 A 
ATOM     30  C   UNL     1       5.382   3.825  13.475  0.00  0.00    +0.000 A 
ATOM     31  C   UNL     1       5.896   3.371  12.266  0.00  0.00    +0.000 A 
ATOM     32  C   UNL     1       7.107   3.877  11.793  0.00  0.00    +0.000 A 
ATOM     33  C   UNL     1       7.797   4.838  12.533  0.00  0.00    +0.000 A 
ATOM     34  C   UNL     1       7.280   5.291  13.746  0.00  0.00    +0.000 A 
ENDBRANCH  28  29
ENDBRANCH  27  28
ENDBRANCH  26  27
ENDBRANCH   8  26
TORSDOF 9
ENDMDL
