MODEL 1
REMARK VINA RESULT:      -7.3      0.000      0.000
REMARK  Name = 
REMARK  11 active torsions:
REMARK  status: ('A' for Active; 'I' for Inactive)
REMARK    1  A    between atoms: C_1  and  C_2
REMARK    2  A    between atoms: C_2  and  C_3
REMARK    3  A    between atoms: C_2  and  N_4
REMARK    4  A    between atoms: N_4  and  C_5
REMARK    5  A    between atoms: N_4  and  C_24
REMARK    6  A    between atoms: C_5  and  C_6
REMARK    7  A    between atoms: C_6  and  O_7
REMARK    8  A    between atoms: C_6  and  C_8
REMARK    9  A    between atoms: C_8  and  N_9
REMARK   10  A    between atoms: C_24  and  C_25
REMARK   11  A    between atoms: C_24  and  C_26
REMARK                            x       y       z     vdW  Elec       q    Type
REMARK                         _______ _______ _______ _____ _____    ______ ____
ROOT
ATOM      1  N   UNL     1       3.035   5.834  18.576  0.00  0.00    +0.000 N 
ATOM      2  C   UNL     1       2.493   4.743  19.314  0.00  0.00    +0.000 A 
ATOM      3  C   UNL     1       1.656   4.885  20.439  0.00  0.00    +0.000 A 
ATOM      4  C   UNL     1       1.204   3.777  21.177  0.00  0.00    +0.000 A 
ATOM      5  C   UNL     1       1.548   2.490  20.793  0.00  0.00    +0.000 A 
ATOM      6  C   UNL     1       2.326   2.307  19.657  0.00  0.00    +0.000 A 
ATOM      7  C   UNL     1       2.784   3.421  18.929  0.00  0.00    +0.000 A 
ATOM      8  C   UNL     1       3.602   3.169  17.729  0.00  0.00    +0.000 A 
ATOM      9  O   UNL     1       3.797   2.027  17.326  0.00  0.00    +0.000 OA
ATOM     10  C   UNL     1       4.195   4.325  17.029  0.00  0.00    +0.000 A 
ATOM     11  C   UNL     1       5.057   4.074  15.947  0.00  0.00    +0.000 A 
ATOM     12  C   UNL     1       5.672   5.130  15.288  0.00  0.00    +0.000 A 
ATOM     13  C   UNL     1       5.418   6.430  15.703  0.00  0.00    +0.000 A 
ATOM     14  C   UNL     1       4.545   6.675  16.773  0.00  0.00    +0.000 A 
ATOM     15  C   UNL     1       3.916   5.630  17.475  0.00  0.00    +0.000 A 
ENDROOT
BRANCH   1  16
ATOM     16  C   UNL     1       3.025   7.192  19.193  0.00  0.00    +0.000 C 
BRANCH  16  17
ATOM     17  C   UNL     1       1.749   7.995  18.811  0.00  0.00    +0.000 C 
BRANCH  17  18
ATOM     18  O   UNL     1       1.891   8.518  17.487  0.00  0.00    +0.000 OA
ATOM     19  H   UNL     1       2.374   9.356  17.539  0.00  0.00    +0.000 HD
ENDBRANCH  17  18
BRANCH  17  20
ATOM     20  C   UNL     1       1.464   9.125  19.850  0.00  0.00    +0.000 C 
BRANCH  20  21
ATOM     21  N   UNL     1       0.038   9.417  20.227  0.00  0.00    +0.000 NA
BRANCH  21  23
ATOM     22  C   UNL     1       0.695  11.518  19.001  0.00  0.00    +0.000 C 
ATOM     23  C   UNL     1      -0.470  10.622  19.493  0.00  0.00    +0.000 C 
ATOM     24  C   UNL     1      -1.322  10.353  18.241  0.00  0.00    +0.000 C 
ENDBRANCH  21  23
BRANCH  21  25
ATOM     25  C   UNL     1      -0.157   9.397  21.715  0.00  0.00    +0.000 C 
ATOM     26  C   UNL     1       1.095   9.196  22.588  0.00  0.00    +0.000 C 
ATOM     27  C   UNL     1      -0.782  10.717  22.237  0.00  0.00    +0.000 C 
ENDBRANCH  21  25
ENDBRANCH  20  21
ENDBRANCH  17  20
ENDBRANCH  16  17
ENDBRANCH   1  16
TORSDOF 7
ENDMDL
MODEL 2
REMARK VINA RESULT:      -7.1      1.109      1.894
REMARK  Name = 
REMARK  11 active torsions:
REMARK  status: ('A' for Active; 'I' for Inactive)
REMARK    1  A    between atoms: C_1  and  C_2
REMARK    2  A    between atoms: C_2  and  C_3
REMARK    3  A    between atoms: C_2  and  N_4
REMARK    4  A    between atoms: N_4  and  C_5
REMARK    5  A    between atoms: N_4  and  C_24
REMARK    6  A    between atoms: C_5  and  C_6
REMARK    7  A    between atoms: C_6  and  O_7
REMARK    8  A    between atoms: C_6  and  C_8
REMARK    9  A    between atoms: C_8  and  N_9
REMARK   10  A    between atoms: C_24  and  C_25
REMARK   11  A    between atoms: C_24  and  C_26
REMARK                            x       y       z     vdW  Elec       q    Type
REMARK                         _______ _______ _______ _____ _____    ______ ____
ROOT
ATOM      1  N   UNL     1       2.958   5.992  18.399  0.00  0.00    +0.000 N 
ATOM      2  C   UNL     1       2.389   4.934  19.164  0.00  0.00    +0.000 A 
ATOM      3  C   UNL     1       1.472   5.122  20.218  0.00  0.00    +0.000 A 
ATOM      4  C   UNL     1       0.992   4.051  20.989  0.00  0.00    +0.000 A 
ATOM      5  C   UNL     1       1.388   2.751  20.710  0.00  0.00    +0.000 A 
ATOM      6  C   UNL     1       2.247   2.520  19.644  0.00  0.00    +0.000 A 
ATOM      7  C   UNL     1       2.733   3.599  18.882  0.00  0.00    +0.000 A 
ATOM      8  C   UNL     1       3.638   3.296  17.759  0.00  0.00    +0.000 A 
ATOM      9  O   UNL     1       3.885   2.137  17.442  0.00  0.00    +0.000 OA
ATOM     10  C   UNL     1       4.255   4.422  17.032  0.00  0.00    +0.000 A 
ATOM     11  C   UNL     1       5.197   4.128  16.030  0.00  0.00    +0.000 A 
ATOM     12  C   UNL     1       5.834   5.158  15.351  0.00  0.00    +0.000 A 
ATOM     13  C   UNL     1       5.526   6.473  15.666  0.00  0.00    +0.000 A 
ATOM     14  C   UNL     1       4.575   6.761  16.656  0.00  0.00    +0.000 A 
ATOM     15  C   UNL     1       3.919   5.744  17.376  0.00  0.00    +0.000 A 
ENDROOT
BRANCH   1  16
ATOM     16  C   UNL     1       2.878   7.383  18.930  0.00  0.00    +0.000 C 
BRANCH  16  17
ATOM     17  C   UNL     1       1.807   8.230  18.182  0.00  0.00    +0.000 C 
BRANCH  17  18
ATOM     18  O   UNL     1       2.422   8.925  17.093  0.00  0.00    +0.000 OA
ATOM     19  H   UNL     1       3.315   9.186  17.361  0.00  0.00    +0.000 HD
ENDBRANCH  17  18
BRANCH  17  20
ATOM     20  C   UNL     1       1.084   9.210  19.158  0.00  0.00    +0.000 C 
BRANCH  20  21
ATOM     21  N   UNL     1       0.368  10.402  18.585  0.00  0.00    +0.000 NA
BRANCH  21  23
ATOM     22  C   UNL     1       1.271  11.503  20.663  0.00  0.00    +0.000 C 
ATOM     23  C   UNL     1       0.906  11.676  19.167  0.00  0.00    +0.000 C 
ATOM     24  C   UNL     1       2.173  12.249  18.510  0.00  0.00    +0.000 C 
ENDBRANCH  21  23
BRANCH  21  25
ATOM     25  C   UNL     1      -1.121  10.220  18.611  0.00  0.00    +0.000 C 
ATOM     26  C   UNL     1      -1.970  11.422  19.067  0.00  0.00    +0.000 C 
ATOM     27  C   UNL     1      -1.687   9.858  17.214  0.00  0.00    +0.000 C 
ENDBRANCH  21  25
ENDBRANCH  20  21
ENDBRANCH  17  20
ENDBRANCH  16  17
ENDBRANCH   1  16
TORSDOF 7
ENDMDL
MODEL 3
REMARK VINA RESULT:      -7.1      0.613      1.909
REMARK  Name = 
REMARK  11 active torsions:
REMARK  status: ('A' for Active; 'I' for Inactive)
REMARK    1  A    between atoms: C_1  and  C_2
REMARK    2  A    between atoms: C_2  and  C_3
REMARK    3  A    between atoms: C_2  and  N_4
REMARK    4  A    between atoms: N_4  and  C_5
REMARK    5  A    between atoms: N_4  and  C_24
REMARK    6  A    between atoms: C_5  and  C_6
REMARK    7  A    between atoms: C_6  and  O_7
REMARK    8  A    between atoms: C_6  and  C_8
REMARK    9  A    between atoms: C_8  and  N_9
REMARK   10  A    between atoms: C_24  and  C_25
REMARK   11  A    between atoms: C_24  and  C_26
REMARK                            x       y       z     vdW  Elec       q    Type
REMARK                         _______ _______ _______ _____ _____    ______ ____
ROOT
ATOM      1  N   UNL     1       3.038   5.935  18.365  0.00  0.00    +0.000 N 
ATOM      2  C   UNL     1       2.468   4.891  19.149  0.00  0.00    +0.000 A 
ATOM      3  C   UNL     1       1.563   5.100  20.208  0.00  0.00    +0.000 A 
ATOM      4  C   UNL     1       1.083   4.042  20.998  0.00  0.00    +0.000 A 
ATOM      5  C   UNL     1       1.467   2.736  20.732  0.00  0.00    +0.000 A 
ATOM      6  C   UNL     1       2.315   2.485  19.661  0.00  0.00    +0.000 A 
ATOM      7  C   UNL     1       2.800   3.550  18.881  0.00  0.00    +0.000 A 
ATOM      8  C   UNL     1       3.693   3.227  17.754  0.00  0.00    +0.000 A 
ATOM      9  O   UNL     1       3.929   2.062  17.449  0.00  0.00    +0.000 OA
ATOM     10  C   UNL     1       4.311   4.339  17.006  0.00  0.00    +0.000 A 
ATOM     11  C   UNL     1       5.241   4.025  15.999  0.00  0.00    +0.000 A 
ATOM     12  C   UNL     1       5.879   5.041  15.301  0.00  0.00    +0.000 A 
ATOM     13  C   UNL     1       5.583   6.363  15.602  0.00  0.00    +0.000 A 
ATOM     14  C   UNL     1       4.643   6.670  16.597  0.00  0.00    +0.000 A 
ATOM     15  C   UNL     1       3.987   5.667  17.336  0.00  0.00    +0.000 A 
ENDROOT
BRANCH   1  16
ATOM     16  C   UNL     1       2.972   7.334  18.878  0.00  0.00    +0.000 C 
BRANCH  16  17
ATOM     17  C   UNL     1       1.882   8.170  18.147  0.00  0.00    +0.000 C 
BRANCH  17  18
ATOM     18  O   UNL     1       2.499   9.255  17.449  0.00  0.00    +0.000 OA
ATOM     19  H   UNL     1       3.450   9.239  17.636  0.00  0.00    +0.000 HD
ENDBRANCH  17  18
BRANCH  17  20
ATOM     20  C   UNL     1       0.795   8.673  19.148  0.00  0.00    +0.000 C 
BRANCH  20  21
ATOM     21  N   UNL     1       0.957  10.033  19.769  0.00  0.00    +0.000 NA
BRANCH  21  23
ATOM     22  C   UNL     1      -0.079  10.656  21.979  0.00  0.00    +0.000 C 
ATOM     23  C   UNL     1       1.084   9.926  21.259  0.00  0.00    +0.000 C 
ATOM     24  C   UNL     1       1.086   8.505  21.847  0.00  0.00    +0.000 C 
ENDBRANCH  21  23
BRANCH  21  25
ATOM     25  C   UNL     1      -0.055  11.008  19.242  0.00  0.00    +0.000 C 
ATOM     26  C   UNL     1       0.480  12.288  18.574  0.00  0.00    +0.000 C 
ATOM     27  C   UNL     1      -0.974  10.369  18.170  0.00  0.00    +0.000 C 
ENDBRANCH  21  25
ENDBRANCH  20  21
ENDBRANCH  17  20
ENDBRANCH  16  17
ENDBRANCH   1  16
TORSDOF 7
ENDMDL
MODEL 4
REMARK VINA RESULT:      -6.9      1.009      1.714
REMARK  Name = 
REMARK  11 active torsions:
REMARK  status: ('A' for Active; 'I' for Inactive)
REMARK    1  A    between atoms: C_1  and  C_2
REMARK    2  A    between atoms: C_2  and  C_3
REMARK    3  A    between atoms: C_2  and  N_4
REMARK    4  A    between atoms: N_4  and  C_5
REMARK    5  A    between atoms: N_4  and  C_24
REMARK    6  A    between atoms: C_5  and  C_6
REMARK    7  A    between atoms: C_6  and  O_7
REMARK    8  A    between atoms: C_6  and  C_8
REMARK    9  A    between atoms: C_8  and  N_9
REMARK   10  A    between atoms: C_24  and  C_25
REMARK   11  A    between atoms: C_24  and  C_26
REMARK                            x       y       z     vdW  Elec       q    Type
REMARK                         _______ _______ _______ _____ _____    ______ ____
ROOT
ATOM      1  N   UNL     1       3.125   5.869  18.329  0.00  0.00    +0.000 N 
ATOM      2  C   UNL     1       2.491   4.850  19.095  0.00  0.00    +0.000 A 
ATOM      3  C   UNL     1       1.585   5.096  20.147  0.00  0.00    +0.000 A 
ATOM      4  C   UNL     1       1.040   4.057  20.920  0.00  0.00    +0.000 A 
ATOM      5  C   UNL     1       1.358   2.735  20.645  0.00  0.00    +0.000 A 
ATOM      6  C   UNL     1       2.203   2.450  19.581  0.00  0.00    +0.000 A 
ATOM      7  C   UNL     1       2.754   3.496  18.817  0.00  0.00    +0.000 A 
ATOM      8  C   UNL     1       3.642   3.136  17.696  0.00  0.00    +0.000 A 
ATOM      9  O   UNL     1       3.819   1.964  17.382  0.00  0.00    +0.000 OA
ATOM     10  C   UNL     1       4.327   4.221  16.968  0.00  0.00    +0.000 A 
ATOM     11  C   UNL     1       5.251   3.868  15.967  0.00  0.00    +0.000 A 
ATOM     12  C   UNL     1       5.950   4.856  15.287  0.00  0.00    +0.000 A 
ATOM     13  C   UNL     1       5.721   6.189  15.599  0.00  0.00    +0.000 A 
ATOM     14  C   UNL     1       4.787   6.535  16.587  0.00  0.00    +0.000 A 
ATOM     15  C   UNL     1       4.070   5.561  17.308  0.00  0.00    +0.000 A 
ENDROOT
BRANCH   1  16
ATOM     16  C   UNL     1       3.127   7.265  18.856  0.00  0.00    +0.000 C 
BRANCH  16  17
ATOM     17  C   UNL     1       1.995   8.126  18.226  0.00  0.00    +0.000 C 
BRANCH  17  18
ATOM     18  O   UNL     1       2.482   8.766  17.043  0.00  0.00    +0.000 OA
ATOM     19  H   UNL     1       3.404   9.024  17.191  0.00  0.00    +0.000 HD
ENDBRANCH  17  18
BRANCH  17  20
ATOM     20  C   UNL     1       1.439   9.162  19.254  0.00  0.00    +0.000 C 
BRANCH  20  21
ATOM     21  N   UNL     1       0.930  10.482  18.746  0.00  0.00    +0.000 NA
BRANCH  21  23
ATOM     22  C   UNL     1       2.541  12.262  17.981  0.00  0.00    +0.000 C 
ATOM     23  C   UNL     1       1.823  11.603  19.187  0.00  0.00    +0.000 C 
ATOM     24  C   UNL     1       1.147  12.766  19.933  0.00  0.00    +0.000 C 
ENDBRANCH  21  23
BRANCH  21  25
ATOM     25  C   UNL     1      -0.540  10.646  19.002  0.00  0.00    +0.000 C 
ATOM     26  C   UNL     1      -1.505  10.172  17.899  0.00  0.00    +0.000 C 
ATOM     27  C   UNL     1      -0.998   9.880  20.270  0.00  0.00    +0.000 C 
ENDBRANCH  21  25
ENDBRANCH  20  21
ENDBRANCH  17  20
ENDBRANCH  16  17
ENDBRANCH   1  16
TORSDOF 7
ENDMDL
MODEL 5
REMARK VINA RESULT:      -6.9      1.821      4.133
REMARK  Name = 
REMARK  11 active torsions:
REMARK  status: ('A' for Active; 'I' for Inactive)
REMARK    1  A    between atoms: C_1  and  C_2
REMARK    2  A    between atoms: C_2  and  C_3
REMARK    3  A    between atoms: C_2  and  N_4
REMARK    4  A    between atoms: N_4  and  C_5
REMARK    5  A    between atoms: N_4  and  C_24
REMARK    6  A    between atoms: C_5  and  C_6
REMARK    7  A    between atoms: C_6  and  O_7
REMARK    8  A    between atoms: C_6  and  C_8
REMARK    9  A    between atoms: C_8  and  N_9
REMARK   10  A    between atoms: C_24  and  C_25
REMARK   11  A    between atoms: C_24  and  C_26
REMARK                            x       y       z     vdW  Elec       q    Type
REMARK                         _______ _______ _______ _____ _____    ______ ____
ROOT
ATOM      1  N   UNL     1       3.103   5.999  18.679  0.00  0.00    +0.000 N 
ATOM      2  C   UNL     1       4.423   5.956  18.145  0.00  0.00    +0.000 A 
ATOM      3  C   UNL     1       4.999   6.984  17.372  0.00  0.00    +0.000 A 
ATOM      4  C   UNL     1       6.280   6.865  16.808  0.00  0.00    +0.000 A 
ATOM      5  C   UNL     1       7.041   5.726  17.027  0.00  0.00    +0.000 A 
ATOM      6  C   UNL     1       6.529   4.715  17.830  0.00  0.00    +0.000 A 
ATOM      7  C   UNL     1       5.241   4.836  18.383  0.00  0.00    +0.000 A 
ATOM      8  C   UNL     1       4.749   3.736  19.231  0.00  0.00    +0.000 A 
ATOM      9  O   UNL     1       5.475   2.790  19.521  0.00  0.00    +0.000 OA
ATOM     10  C   UNL     1       3.355   3.790  19.713  0.00  0.00    +0.000 A 
ATOM     11  C   UNL     1       2.860   2.689  20.435  0.00  0.00    +0.000 A 
ATOM     12  C   UNL     1       1.541   2.679  20.869  0.00  0.00    +0.000 A 
ATOM     13  C   UNL     1       0.726   3.766  20.590  0.00  0.00    +0.000 A 
ATOM     14  C   UNL     1       1.229   4.867  19.883  0.00  0.00    +0.000 A 
ATOM     15  C   UNL     1       2.556   4.907  19.414  0.00  0.00    +0.000 A 
ENDROOT
BRANCH   1  16
ATOM     16  C   UNL     1       2.140   6.996  18.128  0.00  0.00    +0.000 C 
BRANCH  16  17
ATOM     17  C   UNL     1       2.202   8.349  18.893  0.00  0.00    +0.000 C 
BRANCH  17  18
ATOM     18  O   UNL     1       1.807   8.150  20.253  0.00  0.00    +0.000 OA
ATOM     19  H   UNL     1       1.324   7.312  20.312  0.00  0.00    +0.000 HD
ENDBRANCH  17  18
BRANCH  17  20
ATOM     20  C   UNL     1       1.325   9.433  18.190  0.00  0.00    +0.000 C 
BRANCH  20  21
ATOM     21  N   UNL     1       0.575  10.419  19.041  0.00  0.00    +0.000 NA
BRANCH  21  23
ATOM     22  C   UNL     1      -1.641  11.610  19.164  0.00  0.00    +0.000 C 
ATOM     23  C   UNL     1      -0.904  10.288  18.829  0.00  0.00    +0.000 C 
ATOM     24  C   UNL     1      -1.363   9.925  17.407  0.00  0.00    +0.000 C 
ENDBRANCH  21  23
BRANCH  21  25
ATOM     25  C   UNL     1       1.156  11.799  18.935  0.00  0.00    +0.000 C 
ATOM     26  C   UNL     1       1.657  12.455  20.235  0.00  0.00    +0.000 C 
ATOM     27  C   UNL     1       2.380  11.843  17.985  0.00  0.00    +0.000 C 
ENDBRANCH  21  25
ENDBRANCH  20  21
ENDBRANCH  17  20
ENDBRANCH  16  17
ENDBRANCH   1  16
TORSDOF 7
ENDMDL
MODEL 6
REMARK VINA RESULT:      -6.9      0.605      1.011
REMARK  Name = 
REMARK  11 active torsions:
REMARK  status: ('A' for Active; 'I' for Inactive)
REMARK    1  A    between atoms: C_1  and  C_2
REMARK    2  A    between atoms: C_2  and  C_3
REMARK    3  A    between atoms: C_2  and  N_4
REMARK    4  A    between atoms: N_4  and  C_5
REMARK    5  A    between atoms: N_4  and  C_24
REMARK    6  A    between atoms: C_5  and  C_6
REMARK    7  A    between atoms: C_6  and  O_7
REMARK    8  A    between atoms: C_6  and  C_8
REMARK    9  A    between atoms: C_8  and  N_9
REMARK   10  A    between atoms: C_24  and  C_25
REMARK   11  A    between atoms: C_24  and  C_26
REMARK                            x       y       z     vdW  Elec       q    Type
REMARK                         _______ _______ _______ _____ _____    ______ ____
ROOT
ATOM      1  N   UNL     1       3.190   5.814  18.396  0.00  0.00    +0.000 N 
ATOM      2  C   UNL     1       2.549   4.804  19.170  0.00  0.00    +0.000 A 
ATOM      3  C   UNL     1       1.694   5.064  20.260  0.00  0.00    +0.000 A 
ATOM      4  C   UNL     1       1.141   4.032  21.036  0.00  0.00    +0.000 A 
ATOM      5  C   UNL     1       1.399   2.705  20.727  0.00  0.00    +0.000 A 
ATOM      6  C   UNL     1       2.191   2.408  19.626  0.00  0.00    +0.000 A 
ATOM      7  C   UNL     1       2.751   3.447  18.859  0.00  0.00    +0.000 A 
ATOM      8  C   UNL     1       3.581   3.075  17.699  0.00  0.00    +0.000 A 
ATOM      9  O   UNL     1       3.701   1.903  17.359  0.00  0.00    +0.000 OA
ATOM     10  C   UNL     1       4.277   4.148  16.962  0.00  0.00    +0.000 A 
ATOM     11  C   UNL     1       5.148   3.779  15.920  0.00  0.00    +0.000 A 
ATOM     12  C   UNL     1       5.857   4.753  15.230  0.00  0.00    +0.000 A 
ATOM     13  C   UNL     1       5.689   6.087  15.573  0.00  0.00    +0.000 A 
ATOM     14  C   UNL     1       4.808   6.449  16.602  0.00  0.00    +0.000 A 
ATOM     15  C   UNL     1       4.084   5.490  17.334  0.00  0.00    +0.000 A 
ENDROOT
BRANCH   1  16
ATOM     16  C   UNL     1       3.265   7.198  18.946  0.00  0.00    +0.000 C 
BRANCH  16  17
ATOM     17  C   UNL     1       2.049   8.065  18.507  0.00  0.00    +0.000 C 
BRANCH  17  18
ATOM     18  O   UNL     1       2.266   8.556  17.181  0.00  0.00    +0.000 OA
ATOM     19  H   UNL     1       1.977   9.480  17.146  0.00  0.00    +0.000 HD
ENDBRANCH  17  18
BRANCH  17  20
ATOM     20  C   UNL     1       1.793   9.226  19.518  0.00  0.00    +0.000 C 
BRANCH  20  21
ATOM     21  N   UNL     1       0.374   9.575  19.872  0.00  0.00    +0.000 NA
BRANCH  21  23
ATOM     22  C   UNL     1      -0.855  11.747  20.214  0.00  0.00    +0.000 C 
ATOM     23  C   UNL     1      -0.029  10.872  19.236  0.00  0.00    +0.000 C 
ATOM     24  C   UNL     1       1.112  11.783  18.753  0.00  0.00    +0.000 C 
ENDBRANCH  21  23
BRANCH  21  25
ATOM     25  C   UNL     1       0.118   9.433  21.344  0.00  0.00    +0.000 C 
ATOM     26  C   UNL     1      -0.716   8.221  21.800  0.00  0.00    +0.000 C 
ATOM     27  C   UNL     1       1.434   9.322  22.155  0.00  0.00    +0.000 C 
ENDBRANCH  21  25
ENDBRANCH  20  21
ENDBRANCH  17  20
ENDBRANCH  16  17
ENDBRANCH   1  16
TORSDOF 7
ENDMDL
MODEL 7
REMARK VINA RESULT:      -6.7      0.789      4.047
REMARK  Name = 
REMARK  11 active torsions:
REMARK  status: ('A' for Active; 'I' for Inactive)
REMARK    1  A    between atoms: C_1  and  C_2
REMARK    2  A    between atoms: C_2  and  C_3
REMARK    3  A    between atoms: C_2  and  N_4
REMARK    4  A    between atoms: N_4  and  C_5
REMARK    5  A    between atoms: N_4  and  C_24
REMARK    6  A    between atoms: C_5  and  C_6
REMARK    7  A    between atoms: C_6  and  O_7
REMARK    8  A    between atoms: C_6  and  C_8
REMARK    9  A    between atoms: C_8  and  N_9
REMARK   10  A    between atoms: C_24  and  C_25
REMARK   11  A    between atoms: C_24  and  C_26
REMARK                            x       y       z     vdW  Elec       q    Type
REMARK                         _______ _______ _______ _____ _____    ______ ____
ROOT
ATOM      1  N   UNL     1       3.544   5.890  18.604  0.00  0.00    +0.000 N 
ATOM      2  C   UNL     1       4.304   5.586  17.438  0.00  0.00    +0.000 A 
ATOM      3  C   UNL     1       5.059   6.532  16.716  0.00  0.00    +0.000 A 
ATOM      4  C   UNL     1       5.736   6.197  15.531  0.00  0.00    +0.000 A 
ATOM      5  C   UNL     1       5.707   4.898  15.047  0.00  0.00    +0.000 A 
ATOM      6  C   UNL     1       5.019   3.926  15.762  0.00  0.00    +0.000 A 
ATOM      7  C   UNL     1       4.335   4.269  16.942  0.00  0.00    +0.000 A 
ATOM      8  C   UNL     1       3.624   3.198  17.663  0.00  0.00    +0.000 A 
ATOM      9  O   UNL     1       3.706   2.029  17.297  0.00  0.00    +0.000 OA
ATOM     10  C   UNL     1       2.799   3.564  18.830  0.00  0.00    +0.000 A 
ATOM     11  C   UNL     1       2.042   2.554  19.451  0.00  0.00    +0.000 A 
ATOM     12  C   UNL     1       1.218   2.863  20.524  0.00  0.00    +0.000 A 
ATOM     13  C   UNL     1       1.156   4.173  20.978  0.00  0.00    +0.000 A 
ATOM     14  C   UNL     1       1.924   5.173  20.365  0.00  0.00    +0.000 A 
ATOM     15  C   UNL     1       2.759   4.901  19.265  0.00  0.00    +0.000 A 
ENDROOT
BRANCH   1  16
ATOM     16  C   UNL     1       3.227   7.317  18.900  0.00  0.00    +0.000 C 
BRANCH  16  17
ATOM     17  C   UNL     1       2.101   7.866  17.978  0.00  0.00    +0.000 C 
BRANCH  17  18
ATOM     18  O   UNL     1       2.626   8.907  17.149  0.00  0.00    +0.000 OA
ATOM     19  H   UNL     1       3.479   9.187  17.513  0.00  0.00    +0.000 HD
ENDBRANCH  17  18
BRANCH  17  20
ATOM     20  C   UNL     1       0.878   8.357  18.815  0.00  0.00    +0.000 C 
BRANCH  20  21
ATOM     21  N   UNL     1       1.121   9.287  19.971  0.00  0.00    +0.000 NA
BRANCH  21  23
ATOM     22  C   UNL     1       1.509   9.362  22.459  0.00  0.00    +0.000 C 
ATOM     23  C   UNL     1       0.871   8.591  21.275  0.00  0.00    +0.000 C 
ATOM     24  C   UNL     1      -0.601   8.393  21.677  0.00  0.00    +0.000 C 
ENDBRANCH  21  23
BRANCH  21  25
ATOM     25  C   UNL     1       0.444  10.612  19.769  0.00  0.00    +0.000 C 
ATOM     26  C   UNL     1       1.323  11.788  19.305  0.00  0.00    +0.000 C 
ATOM     27  C   UNL     1      -0.684  10.533  18.708  0.00  0.00    +0.000 C 
ENDBRANCH  21  25
ENDBRANCH  20  21
ENDBRANCH  17  20
ENDBRANCH  16  17
ENDBRANCH   1  16
TORSDOF 7
ENDMDL
MODEL 8
REMARK VINA RESULT:      -6.7      1.637      2.305
REMARK  Name = 
REMARK  11 active torsions:
REMARK  status: ('A' for Active; 'I' for Inactive)
REMARK    1  A    between atoms: C_1  and  C_2
REMARK    2  A    between atoms: C_2  and  C_3
REMARK    3  A    between atoms: C_2  and  N_4
REMARK    4  A    between atoms: N_4  and  C_5
REMARK    5  A    between atoms: N_4  and  C_24
REMARK    6  A    between atoms: C_5  and  C_6
REMARK    7  A    between atoms: C_6  and  O_7
REMARK    8  A    between atoms: C_6  and  C_8
REMARK    9  A    between atoms: C_8  and  N_9
REMARK   10  A    between atoms: C_24  and  C_25
REMARK   11  A    between atoms: C_24  and  C_26
REMARK                            x       y       z     vdW  Elec       q    Type
REMARK                         _______ _______ _______ _____ _____    ______ ____
ROOT
ATOM      1  N   UNL     1       3.018   5.683  18.226  0.00  0.00    +0.000 N 
ATOM      2  C   UNL     1       2.499   4.673  19.087  0.00  0.00    +0.000 A 
ATOM      3  C   UNL     1       1.130   4.510  19.382  0.00  0.00    +0.000 A 
ATOM      4  C   UNL     1       0.674   3.542  20.293  0.00  0.00    +0.000 A 
ATOM      5  C   UNL     1       1.570   2.684  20.913  0.00  0.00    +0.000 A 
ATOM      6  C   UNL     1       2.920   2.778  20.606  0.00  0.00    +0.000 A 
ATOM      7  C   UNL     1       3.372   3.756  19.701  0.00  0.00    +0.000 A 
ATOM      8  C   UNL     1       4.815   3.809  19.407  0.00  0.00    +0.000 A 
ATOM      9  O   UNL     1       5.583   2.968  19.864  0.00  0.00    +0.000 OA
ATOM     10  C   UNL     1       5.320   4.907  18.561  0.00  0.00    +0.000 A 
ATOM     11  C   UNL     1       6.710   5.011  18.368  0.00  0.00    +0.000 A 
ATOM     12  C   UNL     1       7.231   6.055  17.616  0.00  0.00    +0.000 A 
ATOM     13  C   UNL     1       6.367   6.984  17.052  0.00  0.00    +0.000 A 
ATOM     14  C   UNL     1       4.982   6.866  17.234  0.00  0.00    +0.000 A 
ATOM     15  C   UNL     1       4.418   5.830  18.003  0.00  0.00    +0.000 A 
ENDROOT
BRANCH   1  16
ATOM     16  C   UNL     1       2.150   6.847  17.883  0.00  0.00    +0.000 C 
BRANCH  16  17
ATOM     17  C   UNL     1       2.416   8.064  18.814  0.00  0.00    +0.000 C 
BRANCH  17  18
ATOM     18  O   UNL     1       2.150   7.697  20.171  0.00  0.00    +0.000 OA
ATOM     19  H   UNL     1       2.278   6.741  20.260  0.00  0.00    +0.000 HD
ENDBRANCH  17  18
BRANCH  17  20
ATOM     20  C   UNL     1       1.571   9.302  18.375  0.00  0.00    +0.000 C 
BRANCH  20  21
ATOM     21  N   UNL     1       1.110  10.272  19.428  0.00  0.00    +0.000 NA
BRANCH  21  23
ATOM     22  C   UNL     1      -0.370   9.937  21.439  0.00  0.00    +0.000 C 
ATOM     23  C   UNL     1      -0.275   9.935  19.892  0.00  0.00    +0.000 C 
ATOM     24  C   UNL     1      -1.402  10.872  19.423  0.00  0.00    +0.000 C 
ENDBRANCH  21  23
BRANCH  21  25
ATOM     25  C   UNL     1       1.362  11.694  19.020  0.00  0.00    +0.000 C 
ATOM     26  C   UNL     1       1.767  12.684  20.128  0.00  0.00    +0.000 C 
ATOM     27  C   UNL     1       2.497  11.806  17.970  0.00  0.00    +0.000 C 
ENDBRANCH  21  25
ENDBRANCH  20  21
ENDBRANCH  17  20
ENDBRANCH  16  17
ENDBRANCH   1  16
TORSDOF 7
ENDMDL
MODEL 9
REMARK VINA RESULT:      -6.6      1.515      2.304
REMARK  Name = 
REMARK  11 active torsions:
REMARK  status: ('A' for Active; 'I' for Inactive)
REMARK    1  A    between atoms: C_1  and  C_2
REMARK    2  A    between atoms: C_2  and  C_3
REMARK    3  A    between atoms: C_2  and  N_4
REMARK    4  A    between atoms: N_4  and  C_5
REMARK    5  A    between atoms: N_4  and  C_24
REMARK    6  A    between atoms: C_5  and  C_6
REMARK    7  A    between atoms: C_6  and  O_7
REMARK    8  A    between atoms: C_6  and  C_8
REMARK    9  A    between atoms: C_8  and  N_9
REMARK   10  A    between atoms: C_24  and  C_25
REMARK   11  A    between atoms: C_24  and  C_26
REMARK                            x       y       z     vdW  Elec       q    Type
REMARK                         _______ _______ _______ _____ _____    ______ ____
ROOT
ATOM      1  N   UNL     1       2.945   5.699  18.383  0.00  0.00    +0.000 N 
ATOM      2  C   UNL     1       2.446   4.655  19.213  0.00  0.00    +0.000 A 
ATOM      3  C   UNL     1       1.091   4.509  19.575  0.00  0.00    +0.000 A 
ATOM      4  C   UNL     1       0.659   3.501  20.454  0.00  0.00    +0.000 A 
ATOM      5  C   UNL     1       1.563   2.587  20.973  0.00  0.00    +0.000 A 
ATOM      6  C   UNL     1       2.896   2.664  20.595  0.00  0.00    +0.000 A 
ATOM      7  C   UNL     1       3.325   3.682  19.723  0.00  0.00    +0.000 A 
ATOM      8  C   UNL     1       4.751   3.715  19.351  0.00  0.00    +0.000 A 
ATOM      9  O   UNL     1       5.519   2.830  19.715  0.00  0.00    +0.000 OA
ATOM     10  C   UNL     1       5.239   4.848  18.542  0.00  0.00    +0.000 A 
ATOM     11  C   UNL     1       6.618   4.928  18.277  0.00  0.00    +0.000 A 
ATOM     12  C   UNL     1       7.127   6.000  17.557  0.00  0.00    +0.000 A 
ATOM     13  C   UNL     1       6.260   6.982  17.096  0.00  0.00    +0.000 A 
ATOM     14  C   UNL     1       4.884   6.888  17.350  0.00  0.00    +0.000 A 
ATOM     15  C   UNL     1       4.334   5.824  18.090  0.00  0.00    +0.000 A 
ENDROOT
BRANCH   1  16
ATOM     16  C   UNL     1       2.093   6.903  18.156  0.00  0.00    +0.000 C 
BRANCH  16  17
ATOM     17  C   UNL     1       2.240   7.944  19.303  0.00  0.00    +0.000 C 
BRANCH  17  18
ATOM     18  O   UNL     1       2.519   7.266  20.532  0.00  0.00    +0.000 OA
ATOM     19  H   UNL     1       3.477   7.131  20.596  0.00  0.00    +0.000 HD
ENDBRANCH  17  18
BRANCH  17  20
ATOM     20  C   UNL     1       0.966   8.839  19.415  0.00  0.00    +0.000 C 
BRANCH  20  21
ATOM     21  N   UNL     1       1.021  10.067  20.281  0.00  0.00    +0.000 NA
BRANCH  21  23
ATOM     22  C   UNL     1      -0.340  10.981  22.193  0.00  0.00    +0.000 C 
ATOM     23  C   UNL     1       0.472   9.780  21.647  0.00  0.00    +0.000 C 
ATOM     24  C   UNL     1      -0.473   8.573  21.766  0.00  0.00    +0.000 C 
ENDBRANCH  21  23
BRANCH  21  25
ATOM     25  C   UNL     1       0.475  11.272  19.571  0.00  0.00    +0.000 C 
ATOM     26  C   UNL     1       1.484  12.179  18.843  0.00  0.00    +0.000 C 
ATOM     27  C   UNL     1      -0.554  10.885  18.477  0.00  0.00    +0.000 C 
ENDBRANCH  21  25
ENDBRANCH  20  21
ENDBRANCH  17  20
ENDBRANCH  16  17
ENDBRANCH   1  16
TORSDOF 7
ENDMDL
