MODEL 1
REMARK VINA RESULT:      -7.0      0.000      0.000
REMARK  Name = 
REMARK  9 active torsions:
REMARK  status: ('A' for Active; 'I' for Inactive)
REMARK    1  A    between atoms: C_1  and  O_2
REMARK    2  A    between atoms: O_2  and  C_3
REMARK    3  A    between atoms: C_3  and  C_5
REMARK    4  A    between atoms: C_7  and  C_8
REMARK    5  A    between atoms: CA_9  and  C_10
REMARK    6  A    between atoms: C_10  and  OXT_12
REMARK    7  A    between atoms: CA_16  and  N_17
REMARK    8  A    between atoms: C_18  and  C_20
REMARK    9  A    between atoms: C_20  and  C_21
REMARK                            x       y       z     vdW  Elec       q    Type
REMARK                         _______ _______ _______ _____ _____    ______ ____
ROOT
ATOM      1  C   UNL     1       4.314   5.484  17.211  0.00  0.00    +0.000 C 
ATOM      2  CA  UNL     1       3.756   4.707  18.174  0.00  0.00    +0.000 C 
ATOM      3  N   UNL     1       2.724   5.186  18.953  0.00  0.00    +0.000 N 
ATOM      4  C   UNL     1       2.505   5.130  20.290  0.00  0.00    +0.000 C 
ATOM      5  O   UNL     1       3.020   4.446  21.144  0.00  0.00    +0.000 OA
ATOM      6  CA  UNL     1       1.502   6.310  20.207  0.00  0.00    +0.000 C 
ATOM      7  C   UNL     1       2.071   6.482  18.763  0.00  0.00    +0.000 C 
ATOM      8  S   UNL     1       3.350   7.747  18.506  0.00  0.00    +0.000 S 
ATOM      9  C   UNL     1       3.963   6.940  16.990  0.00  0.00    +0.000 C 
ENDROOT
BRANCH   1  12
ATOM     10  C   UNL     1       6.635   4.778  14.517  0.00  0.00    +0.000 A 
ATOM     11  C   UNL     1       5.373   5.173  14.923  0.00  0.00    +0.000 A 
ATOM     12  C   UNL     1       5.388   5.098  16.339  0.00  0.00    +0.000 A 
ATOM     13  N   UNL     1       6.584   4.704  16.791  0.00  0.00    +0.000 NA
ATOM     14  N   UNL     1       7.293   4.468  15.673  0.00  0.00    +0.000 N 
ATOM     15  H   UNL     1       8.244   4.121  15.759  0.00  0.00    +0.000 HD
BRANCH  10  16
ATOM     16  C   UNL     1       7.258   4.659  13.233  0.00  0.00    +0.000 C 
ATOM     17  O   UNL     1       7.950   5.529  12.714  0.00  0.00    +0.000 OA
BRANCH  16  19
ATOM     18  C   UNL     1       5.615   3.401  12.130  0.00  0.00    +0.000 C 
ATOM     19  O   UNL     1       6.939   3.465  12.662  0.00  0.00    +0.000 OA
ENDBRANCH  16  19
ENDBRANCH  10  16
ENDBRANCH   1  12
BRANCH   6  20
ATOM     20  N   UNL     1       1.676   7.418  21.183  0.00  0.00    +0.000 N 
ATOM     21  C   UNL     1       0.606   8.220  21.521  0.00  0.00    +0.000 C 
ATOM     22  O   UNL     1      -0.498   8.083  20.996  0.00  0.00    +0.000 OA
ATOM     23  H   UNL     1       2.518   7.473  21.749  0.00  0.00    +0.000 HD
BRANCH  21  24
ATOM     24  C   UNL     1       0.898   9.278  22.568  0.00  0.00    +0.000 C 
BRANCH  24  25
ATOM     25  C   UNL     1      -0.050  10.429  22.431  0.00  0.00    +0.000 A 
ATOM     26  C   UNL     1      -1.161  10.720  23.199  0.00  0.00    +0.000 A 
ATOM     27  C   UNL     1      -1.865  11.864  22.725  0.00  0.00    +0.000 A 
ATOM     28  C   UNL     1      -1.260  12.422  21.621  0.00  0.00    +0.000 A 
ATOM     29  S   UNL     1       0.151  11.569  21.165  0.00  0.00    +0.000 S 
ENDBRANCH  24  25
ENDBRANCH  21  24
ENDBRANCH   6  20
BRANCH   2  30
ATOM     30  C   UNL     1       4.209   3.274  18.328  0.00  0.00    +0.000 C 
ATOM     31  O   UNL     1       3.665   2.335  17.762  0.00  0.00    +0.000 OA
BRANCH  30  32
ATOM     32  OXT UNL     1       5.198   3.053  19.217  0.00  0.00    +0.000 OA
ATOM     33  HXT UNL     1       5.088   3.439  20.115  0.00  0.00    +0.000 HD
ENDBRANCH  30  32
ENDBRANCH   2  30
TORSDOF 8
ENDMDL
MODEL 2
REMARK VINA RESULT:      -6.5      4.164      7.097
REMARK  Name = 
REMARK  9 active torsions:
REMARK  status: ('A' for Active; 'I' for Inactive)
REMARK    1  A    between atoms: C_1  and  O_2
REMARK    2  A    between atoms: O_2  and  C_3
REMARK    3  A    between atoms: C_3  and  C_5
REMARK    4  A    between atoms: C_7  and  C_8
REMARK    5  A    between atoms: CA_9  and  C_10
REMARK    6  A    between atoms: C_10  and  OXT_12
REMARK    7  A    between atoms: CA_16  and  N_17
REMARK    8  A    between atoms: C_18  and  C_20
REMARK    9  A    between atoms: C_20  and  C_21
REMARK                            x       y       z     vdW  Elec       q    Type
REMARK                         _______ _______ _______ _____ _____    ______ ____
ROOT
ATOM      1  C   UNL     1       1.041   9.124  20.632  0.00  0.00    +0.000 C 
ATOM      2  CA  UNL     1       0.414  10.102  19.930  0.00  0.00    +0.000 C 
ATOM      3  N   UNL     1      -0.176  11.165  20.580  0.00  0.00    +0.000 N 
ATOM      4  C   UNL     1      -1.384  11.760  20.418  0.00  0.00    +0.000 C 
ATOM      5  O   UNL     1      -2.181  11.689  19.512  0.00  0.00    +0.000 OA
ATOM      6  CA  UNL     1      -1.303  12.383  21.836  0.00  0.00    +0.000 C 
ATOM      7  C   UNL     1      -0.100  11.405  22.022  0.00  0.00    +0.000 C 
ATOM      8  S   UNL     1      -0.414   9.840  22.891  0.00  0.00    +0.000 S 
ATOM      9  C   UNL     1       1.044   9.036  22.144  0.00  0.00    +0.000 C 
ENDROOT
BRANCH   1  12
ATOM     10  C   UNL     1       2.349   5.873  19.703  0.00  0.00    +0.000 A 
ATOM     11  C   UNL     1       1.661   6.661  20.608  0.00  0.00    +0.000 A 
ATOM     12  C   UNL     1       1.692   7.973  20.071  0.00  0.00    +0.000 A 
ATOM     13  N   UNL     1       2.335   8.002  18.898  0.00  0.00    +0.000 NA
ATOM     14  N   UNL     1       2.764   6.738  18.731  0.00  0.00    +0.000 N 
ATOM     15  H   UNL     1       3.318   6.513  17.909  0.00  0.00    +0.000 HD
BRANCH  10  16
ATOM     16  C   UNL     1       2.649   4.473  19.652  0.00  0.00    +0.000 C 
ATOM     17  O   UNL     1       3.781   4.009  19.586  0.00  0.00    +0.000 OA
BRANCH  16  19
ATOM     18  C   UNL     1       1.462   2.697  20.621  0.00  0.00    +0.000 C 
ATOM     19  O   UNL     1       1.500   3.744  19.649  0.00  0.00    +0.000 OA
ENDBRANCH  16  19
ENDBRANCH  10  16
ENDBRANCH   1  12
BRANCH   6  20
ATOM     20  N   UNL     1      -2.494  12.231  22.713  0.00  0.00    +0.000 N 
ATOM     21  C   UNL     1      -3.144  13.346  23.201  0.00  0.00    +0.000 C 
ATOM     22  O   UNL     1      -2.737  14.484  22.975  0.00  0.00    +0.000 OA
ATOM     23  H   UNL     1      -2.951  11.328  22.801  0.00  0.00    +0.000 HD
BRANCH  21  24
ATOM     24  C   UNL     1      -4.376  13.059  24.037  0.00  0.00    +0.000 C 
BRANCH  24  25
ATOM     25  C   UNL     1      -5.592  12.966  23.167  0.00  0.00    +0.000 A 
ATOM     26  C   UNL     1      -5.660  12.975  21.787  0.00  0.00    +0.000 A 
ATOM     27  C   UNL     1      -7.002  12.942  21.309  0.00  0.00    +0.000 A 
ATOM     28  C   UNL     1      -7.915  12.891  22.339  0.00  0.00    +0.000 A 
ATOM     29  S   UNL     1      -7.154  12.879  23.870  0.00  0.00    +0.000 S 
ENDBRANCH  24  25
ENDBRANCH  21  24
ENDBRANCH   6  20
BRANCH   2  30
ATOM     30  C   UNL     1       0.447  10.070  18.420  0.00  0.00    +0.000 C 
ATOM     31  O   UNL     1      -0.430   9.551  17.742  0.00  0.00    +0.000 OA
BRANCH  30  32
ATOM     32  OXT UNL     1       1.561  10.557  17.838  0.00  0.00    +0.000 OA
ATOM     33  HXT UNL     1       1.776  11.503  18.002  0.00  0.00    +0.000 HD
ENDBRANCH  30  32
ENDBRANCH   2  30
TORSDOF 8
ENDMDL
MODEL 3
REMARK VINA RESULT:      -6.3      4.528      7.128
REMARK  Name = 
REMARK  9 active torsions:
REMARK  status: ('A' for Active; 'I' for Inactive)
REMARK    1  A    between atoms: C_1  and  O_2
REMARK    2  A    between atoms: O_2  and  C_3
REMARK    3  A    between atoms: C_3  and  C_5
REMARK    4  A    between atoms: C_7  and  C_8
REMARK    5  A    between atoms: CA_9  and  C_10
REMARK    6  A    between atoms: C_10  and  OXT_12
REMARK    7  A    between atoms: CA_16  and  N_17
REMARK    8  A    between atoms: C_18  and  C_20
REMARK    9  A    between atoms: C_20  and  C_21
REMARK                            x       y       z     vdW  Elec       q    Type
REMARK                         _______ _______ _______ _____ _____    ______ ____
ROOT
ATOM      1  C   UNL     1       1.498   8.549  19.606  0.00  0.00    +0.000 C 
ATOM      2  CA  UNL     1       0.957   9.396  20.519  0.00  0.00    +0.000 C 
ATOM      3  N   UNL     1       0.429  10.607  20.126  0.00  0.00    +0.000 N 
ATOM      4  C   UNL     1       0.562  11.856  20.638  0.00  0.00    +0.000 C 
ATOM      5  O   UNL     1       0.979  12.225  21.712  0.00  0.00    +0.000 OA
ATOM      6  CA  UNL     1       0.103  12.489  19.299  0.00  0.00    +0.000 C 
ATOM      7  C   UNL     1       0.297  11.045  18.736  0.00  0.00    +0.000 C 
ATOM      8  S   UNL     1       1.848  10.684  17.861  0.00  0.00    +0.000 S 
ATOM      9  C   UNL     1       1.687   8.889  18.143  0.00  0.00    +0.000 C 
ENDROOT
BRANCH   1  12
ATOM     10  C   UNL     1       2.324   5.141  20.528  0.00  0.00    +0.000 A 
ATOM     11  C   UNL     1       1.420   6.189  20.543  0.00  0.00    +0.000 A 
ATOM     12  C   UNL     1       2.075   7.265  19.892  0.00  0.00    +0.000 A 
ATOM     13  N   UNL     1       3.296   6.909  19.476  0.00  0.00    +0.000 NA
ATOM     14  N   UNL     1       3.437   5.648  19.920  0.00  0.00    +0.000 N 
ATOM     15  H   UNL     1       4.314   5.163  19.751  0.00  0.00    +0.000 HD
BRANCH  10  16
ATOM     16  C   UNL     1       2.264   3.789  20.999  0.00  0.00    +0.000 C 
ATOM     17  O   UNL     1       2.216   3.468  22.181  0.00  0.00    +0.000 OA
BRANCH  16  19
ATOM     18  C   UNL     1       1.043   2.671  19.338  0.00  0.00    +0.000 C 
ATOM     19  O   UNL     1       2.309   2.922  19.951  0.00  0.00    +0.000 OA
ENDBRANCH  16  19
ENDBRANCH  10  16
ENDBRANCH   1  12
BRANCH   6  20
ATOM     20  N   UNL     1       0.936  13.591  18.750  0.00  0.00    +0.000 N 
ATOM     21  C   UNL     1       0.564  14.905  18.943  0.00  0.00    +0.000 C 
ATOM     22  O   UNL     1      -0.479  15.205  19.522  0.00  0.00    +0.000 OA
ATOM     23  H   UNL     1       1.871  13.401  18.402  0.00  0.00    +0.000 HD
BRANCH  21  24
ATOM     24  C   UNL     1       1.524  15.937  18.384  0.00  0.00    +0.000 C 
BRANCH  24  25
ATOM     25  C   UNL     1       2.937  15.580  18.727  0.00  0.00    +0.000 A 
ATOM     26  C   UNL     1       3.952  15.186  17.875  0.00  0.00    +0.000 A 
ATOM     27  C   UNL     1       5.150  14.858  18.573  0.00  0.00    +0.000 A 
ATOM     28  C   UNL     1       5.018  15.029  19.933  0.00  0.00    +0.000 A 
ATOM     29  S   UNL     1       3.460  15.586  20.361  0.00  0.00    +0.000 S 
ENDBRANCH  24  25
ENDBRANCH  21  24
ENDBRANCH   6  20
BRANCH   2  30
ATOM     30  C   UNL     1       0.851   8.964  21.962  0.00  0.00    +0.000 C 
ATOM     31  O   UNL     1      -0.174   8.505  22.451  0.00  0.00    +0.000 OA
BRANCH  30  32
ATOM     32  OXT UNL     1       1.926   9.205  22.739  0.00  0.00    +0.000 OA
ATOM     33  HXT UNL     1       1.824   9.878  23.449  0.00  0.00    +0.000 HD
ENDBRANCH  30  32
ENDBRANCH   2  30
TORSDOF 8
ENDMDL
MODEL 4
REMARK VINA RESULT:      -6.3      3.631      6.981
REMARK  Name = 
REMARK  9 active torsions:
REMARK  status: ('A' for Active; 'I' for Inactive)
REMARK    1  A    between atoms: C_1  and  O_2
REMARK    2  A    between atoms: O_2  and  C_3
REMARK    3  A    between atoms: C_3  and  C_5
REMARK    4  A    between atoms: C_7  and  C_8
REMARK    5  A    between atoms: CA_9  and  C_10
REMARK    6  A    between atoms: C_10  and  OXT_12
REMARK    7  A    between atoms: CA_16  and  N_17
REMARK    8  A    between atoms: C_18  and  C_20
REMARK    9  A    between atoms: C_20  and  C_21
REMARK                            x       y       z     vdW  Elec       q    Type
REMARK                         _______ _______ _______ _____ _____    ______ ____
ROOT
ATOM      1  C   UNL     1       1.027   9.130  20.608  0.00  0.00    +0.000 C 
ATOM      2  CA  UNL     1       0.405  10.108  19.902  0.00  0.00    +0.000 C 
ATOM      3  N   UNL     1      -0.209  11.159  20.549  0.00  0.00    +0.000 N 
ATOM      4  C   UNL     1      -1.419  11.744  20.368  0.00  0.00    +0.000 C 
ATOM      5  O   UNL     1      -2.196  11.675  19.443  0.00  0.00    +0.000 OA
ATOM      6  CA  UNL     1      -1.374  12.354  21.792  0.00  0.00    +0.000 C 
ATOM      7  C   UNL     1      -0.166  11.385  21.994  0.00  0.00    +0.000 C 
ATOM      8  S   UNL     1      -0.482   9.809  22.841  0.00  0.00    +0.000 S 
ATOM      9  C   UNL     1       0.998   9.026  22.118  0.00  0.00    +0.000 C 
ENDROOT
BRANCH   1  12
ATOM     10  C   UNL     1       2.380   5.899  19.671  0.00  0.00    +0.000 A 
ATOM     11  C   UNL     1       1.662   6.670  20.567  0.00  0.00    +0.000 A 
ATOM     12  C   UNL     1       1.700   7.990  20.049  0.00  0.00    +0.000 A 
ATOM     13  N   UNL     1       2.376   8.039  18.896  0.00  0.00    +0.000 NA
ATOM     14  N   UNL     1       2.817   6.780  18.723  0.00  0.00    +0.000 N 
ATOM     15  H   UNL     1       3.396   6.570  17.915  0.00  0.00    +0.000 HD
BRANCH  10  16
ATOM     16  C   UNL     1       2.691   4.502  19.609  0.00  0.00    +0.000 C 
ATOM     17  O   UNL     1       2.031   3.621  20.148  0.00  0.00    +0.000 OA
BRANCH  16  19
ATOM     18  C   UNL     1       3.770   3.238  17.955  0.00  0.00    +0.000 C 
ATOM     19  O   UNL     1       3.838   4.304  18.904  0.00  0.00    +0.000 OA
ENDBRANCH  16  19
ENDBRANCH  10  16
ENDBRANCH   1  12
BRANCH   6  20
ATOM     20  N   UNL     1      -2.581  12.182  22.642  0.00  0.00    +0.000 N 
ATOM     21  C   UNL     1      -3.114  13.261  23.317  0.00  0.00    +0.000 C 
ATOM     22  O   UNL     1      -2.588  14.372  23.283  0.00  0.00    +0.000 OA
ATOM     23  H   UNL     1      -3.132  11.331  22.582  0.00  0.00    +0.000 HD
BRANCH  21  24
ATOM     24  C   UNL     1      -4.377  12.968  24.105  0.00  0.00    +0.000 C 
BRANCH  24  25
ATOM     25  C   UNL     1      -5.560  13.625  23.464  0.00  0.00    +0.000 A 
ATOM     26  C   UNL     1      -6.167  14.819  23.806  0.00  0.00    +0.000 A 
ATOM     27  C   UNL     1      -7.319  15.090  23.013  0.00  0.00    +0.000 A 
ATOM     28  C   UNL     1      -7.545  14.105  22.078  0.00  0.00    +0.000 A 
ATOM     29  S   UNL     1      -6.371  12.864  22.158  0.00  0.00    +0.000 S 
ENDBRANCH  24  25
ENDBRANCH  21  24
ENDBRANCH   6  20
BRANCH   2  30
ATOM     30  C   UNL     1       0.470  10.091  18.393  0.00  0.00    +0.000 C 
ATOM     31  O   UNL     1      -0.388   9.573  17.691  0.00  0.00    +0.000 OA
BRANCH  30  32
ATOM     32  OXT UNL     1       1.593  10.592  17.838  0.00  0.00    +0.000 OA
ATOM     33  HXT UNL     1       1.731  11.563  17.904  0.00  0.00    +0.000 HD
ENDBRANCH  30  32
ENDBRANCH   2  30
TORSDOF 8
ENDMDL
MODEL 5
REMARK VINA RESULT:      -6.3      4.171      6.611
REMARK  Name = 
REMARK  9 active torsions:
REMARK  status: ('A' for Active; 'I' for Inactive)
REMARK    1  A    between atoms: C_1  and  O_2
REMARK    2  A    between atoms: O_2  and  C_3
REMARK    3  A    between atoms: C_3  and  C_5
REMARK    4  A    between atoms: C_7  and  C_8
REMARK    5  A    between atoms: CA_9  and  C_10
REMARK    6  A    between atoms: C_10  and  OXT_12
REMARK    7  A    between atoms: CA_16  and  N_17
REMARK    8  A    between atoms: C_18  and  C_20
REMARK    9  A    between atoms: C_20  and  C_21
REMARK                            x       y       z     vdW  Elec       q    Type
REMARK                         _______ _______ _______ _____ _____    ______ ____
ROOT
ATOM      1  C   UNL     1       1.423   8.706  20.363  0.00  0.00    +0.000 C 
ATOM      2  CA  UNL     1       0.917   9.687  19.573  0.00  0.00    +0.000 C 
ATOM      3  N   UNL     1       0.413  10.844  20.127  0.00  0.00    +0.000 N 
ATOM      4  C   UNL     1      -0.724  11.539  19.879  0.00  0.00    +0.000 C 
ATOM      5  O   UNL     1      -1.495  11.481  18.949  0.00  0.00    +0.000 OA
ATOM      6  CA  UNL     1      -0.629  12.250  21.254  0.00  0.00    +0.000 C 
ATOM      7  C   UNL     1       0.466  11.176  21.552  0.00  0.00    +0.000 C 
ATOM      8  S   UNL     1      -0.027   9.713  22.510  0.00  0.00    +0.000 S 
ATOM      9  C   UNL     1       1.368   8.724  21.876  0.00  0.00    +0.000 C 
ENDROOT
BRANCH   1  12
ATOM     10  C   UNL     1       2.433   5.287  19.701  0.00  0.00    +0.000 A 
ATOM     11  C   UNL     1       1.794   6.198  20.523  0.00  0.00    +0.000 A 
ATOM     12  C   UNL     1       1.975   7.461  19.905  0.00  0.00    +0.000 A 
ATOM     13  N   UNL     1       2.661   7.347  18.762  0.00  0.00    +0.000 NA
ATOM     14  N   UNL     1       2.968   6.040  18.695  0.00  0.00    +0.000 N 
ATOM     15  H   UNL     1       3.526   5.706  17.914  0.00  0.00    +0.000 HD
BRANCH  10  16
ATOM     16  C   UNL     1       2.594   3.864  19.753  0.00  0.00    +0.000 C 
ATOM     17  O   UNL     1       3.658   3.280  19.583  0.00  0.00    +0.000 OA
BRANCH  16  19
ATOM     18  C   UNL     1       0.846   2.595  18.840  0.00  0.00    +0.000 C 
ATOM     19  O   UNL     1       1.394   3.262  19.979  0.00  0.00    +0.000 OA
ENDBRANCH  16  19
ENDBRANCH  10  16
ENDBRANCH   1  12
BRANCH   6  20
ATOM     20  N   UNL     1      -1.856  12.273  22.092  0.00  0.00    +0.000 N 
ATOM     21  C   UNL     1      -1.892  13.023  23.250  0.00  0.00    +0.000 C 
ATOM     22  O   UNL     1      -0.910  13.645  23.650  0.00  0.00    +0.000 OA
ATOM     23  H   UNL     1      -2.731  11.904  21.729  0.00  0.00    +0.000 HD
BRANCH  21  24
ATOM     24  C   UNL     1      -3.219  13.009  23.985  0.00  0.00    +0.000 C 
BRANCH  24  25
ATOM     25  C   UNL     1      -3.754  14.400  24.130  0.00  0.00    +0.000 A 
ATOM     26  C   UNL     1      -3.412  15.357  25.066  0.00  0.00    +0.000 A 
ATOM     27  C   UNL     1      -4.188  16.545  24.936  0.00  0.00    +0.000 A 
ATOM     28  C   UNL     1      -5.084  16.466  23.895  0.00  0.00    +0.000 A 
ATOM     29  S   UNL     1      -4.985  14.967  23.078  0.00  0.00    +0.000 S 
ENDBRANCH  24  25
ENDBRANCH  21  24
ENDBRANCH   6  20
BRANCH   2  30
ATOM     30  C   UNL     1       0.996   9.546  18.071  0.00  0.00    +0.000 C 
ATOM     31  O   UNL     1       0.123   9.009  17.402  0.00  0.00    +0.000 OA
BRANCH  30  32
ATOM     32  OXT UNL     1       2.144   9.954  17.493  0.00  0.00    +0.000 OA
ATOM     33  HXT UNL     1       2.905   9.332  17.520  0.00  0.00    +0.000 HD
ENDBRANCH  30  32
ENDBRANCH   2  30
TORSDOF 8
ENDMDL
MODEL 6
REMARK VINA RESULT:      -6.3      2.786      4.009
REMARK  Name = 
REMARK  9 active torsions:
REMARK  status: ('A' for Active; 'I' for Inactive)
REMARK    1  A    between atoms: C_1  and  O_2
REMARK    2  A    between atoms: O_2  and  C_3
REMARK    3  A    between atoms: C_3  and  C_5
REMARK    4  A    between atoms: C_7  and  C_8
REMARK    5  A    between atoms: CA_9  and  C_10
REMARK    6  A    between atoms: C_10  and  OXT_12
REMARK    7  A    between atoms: CA_16  and  N_17
REMARK    8  A    between atoms: C_18  and  C_20
REMARK    9  A    between atoms: C_20  and  C_21
REMARK                            x       y       z     vdW  Elec       q    Type
REMARK                         _______ _______ _______ _____ _____    ______ ____
ROOT
ATOM      1  C   UNL     1       2.686   7.437  18.219  0.00  0.00    +0.000 C 
ATOM      2  CA  UNL     1       2.092   7.309  19.433  0.00  0.00    +0.000 C 
ATOM      3  N   UNL     1       1.232   8.279  19.899  0.00  0.00    +0.000 N 
ATOM      4  C   UNL     1       1.127   8.882  21.110  0.00  0.00    +0.000 C 
ATOM      5  O   UNL     1       1.591   8.576  22.184  0.00  0.00    +0.000 OA
ATOM      6  CA  UNL     1       0.339  10.064  20.489  0.00  0.00    +0.000 C 
ATOM      7  C   UNL     1       0.797   9.446  19.130  0.00  0.00    +0.000 C 
ATOM      8  S   UNL     1       2.247  10.180  18.317  0.00  0.00    +0.000 S 
ATOM      9  C   UNL     1       2.573   8.670  17.347  0.00  0.00    +0.000 C 
ENDROOT
BRANCH   1  12
ATOM     10  C   UNL     1       5.441   5.568  16.781  0.00  0.00    +0.000 A 
ATOM     11  C   UNL     1       4.924   6.776  17.215  0.00  0.00    +0.000 A 
ATOM     12  C   UNL     1       3.596   6.497  17.626  0.00  0.00    +0.000 A 
ATOM     13  N   UNL     1       3.307   5.199  17.481  0.00  0.00    +0.000 NA
ATOM     14  N   UNL     1       4.414   4.679  16.922  0.00  0.00    +0.000 N 
ATOM     15  H   UNL     1       4.425   3.691  16.683  0.00  0.00    +0.000 HD
BRANCH  10  16
ATOM     16  C   UNL     1       6.721   5.176  16.272  0.00  0.00    +0.000 C 
ATOM     17  O   UNL     1       7.603   4.652  16.941  0.00  0.00    +0.000 OA
BRANCH  16  19
ATOM     18  C   UNL     1       6.602   4.419  14.055  0.00  0.00    +0.000 C 
ATOM     19  O   UNL     1       6.825   5.506  14.955  0.00  0.00    +0.000 OA
ENDBRANCH  16  19
ENDBRANCH  10  16
ENDBRANCH   1  12
BRANCH   6  20
ATOM     20  N   UNL     1       0.787  11.437  20.840  0.00  0.00    +0.000 N 
ATOM     21  C   UNL     1      -0.115  12.481  20.853  0.00  0.00    +0.000 C 
ATOM     22  O   UNL     1      -1.291  12.325  20.528  0.00  0.00    +0.000 OA
ATOM     23  H   UNL     1       1.702  11.585  21.257  0.00  0.00    +0.000 HD
BRANCH  21  24
ATOM     24  C   UNL     1       0.454  13.820  21.281  0.00  0.00    +0.000 C 
BRANCH  24  25
ATOM     25  C   UNL     1       1.557  14.242  20.360  0.00  0.00    +0.000 A 
ATOM     26  C   UNL     1       1.474  14.573  19.021  0.00  0.00    +0.000 A 
ATOM     27  C   UNL     1       2.750  14.856  18.452  0.00  0.00    +0.000 A 
ATOM     28  C   UNL     1       3.763  14.750  19.379  0.00  0.00    +0.000 A 
ATOM     29  S   UNL     1       3.175  14.316  20.925  0.00  0.00    +0.000 S 
ENDBRANCH  24  25
ENDBRANCH  21  24
ENDBRANCH   6  20
BRANCH   2  30
ATOM     30  C   UNL     1       2.304   6.045  20.233  0.00  0.00    +0.000 C 
ATOM     31  O   UNL     1       1.391   5.434  20.775  0.00  0.00    +0.000 OA
BRANCH  30  32
ATOM     32  OXT UNL     1       3.584   5.665  20.420  0.00  0.00    +0.000 OA
ATOM     33  HXT UNL     1       4.283   6.316  20.188  0.00  0.00    +0.000 HD
ENDBRANCH  30  32
ENDBRANCH   2  30
TORSDOF 8
ENDMDL
MODEL 7
REMARK VINA RESULT:      -6.3      4.178      6.819
REMARK  Name = 
REMARK  9 active torsions:
REMARK  status: ('A' for Active; 'I' for Inactive)
REMARK    1  A    between atoms: C_1  and  O_2
REMARK    2  A    between atoms: O_2  and  C_3
REMARK    3  A    between atoms: C_3  and  C_5
REMARK    4  A    between atoms: C_7  and  C_8
REMARK    5  A    between atoms: CA_9  and  C_10
REMARK    6  A    between atoms: C_10  and  OXT_12
REMARK    7  A    between atoms: CA_16  and  N_17
REMARK    8  A    between atoms: C_18  and  C_20
REMARK    9  A    between atoms: C_20  and  C_21
REMARK                            x       y       z     vdW  Elec       q    Type
REMARK                         _______ _______ _______ _____ _____    ______ ____
ROOT
ATOM      1  C   UNL     1       1.477   9.125  19.220  0.00  0.00    +0.000 C 
ATOM      2  CA  UNL     1       0.749   9.725  20.197  0.00  0.00    +0.000 C 
ATOM      3  N   UNL     1       0.298  11.018  20.044  0.00  0.00    +0.000 N 
ATOM      4  C   UNL     1       0.307  12.080  20.887  0.00  0.00    +0.000 C 
ATOM      5  O   UNL     1       0.489  12.134  22.082  0.00  0.00    +0.000 OA
ATOM      6  CA  UNL     1       0.126  13.064  19.703  0.00  0.00    +0.000 C 
ATOM      7  C   UNL     1       0.450  11.813  18.825  0.00  0.00    +0.000 C 
ATOM      8  S   UNL     1       2.153  11.628  18.217  0.00  0.00    +0.000 S 
ATOM      9  C   UNL     1       1.959   9.831  17.971  0.00  0.00    +0.000 C 
ENDROOT
BRANCH   1  12
ATOM     10  C   UNL     1       2.911   5.843  18.660  0.00  0.00    +0.000 A 
ATOM     11  C   UNL     1       2.411   7.024  18.141  0.00  0.00    +0.000 A 
ATOM     12  C   UNL     1       1.999   7.788  19.263  0.00  0.00    +0.000 A 
ATOM     13  N   UNL     1       2.245   7.140  20.407  0.00  0.00    +0.000 NA
ATOM     14  N   UNL     1       2.742   5.955  20.010  0.00  0.00    +0.000 N 
ATOM     15  H   UNL     1       2.981   5.263  20.715  0.00  0.00    +0.000 HD
BRANCH  10  16
ATOM     16  C   UNL     1       3.496   4.680  18.061  0.00  0.00    +0.000 C 
ATOM     17  O   UNL     1       4.685   4.390  18.126  0.00  0.00    +0.000 OA
BRANCH  16  19
ATOM     18  C   UNL     1       1.948   2.919  18.138  0.00  0.00    +0.000 C 
ATOM     19  O   UNL     1       2.550   3.973  17.384  0.00  0.00    +0.000 OA
ENDBRANCH  16  19
ENDBRANCH  10  16
ENDBRANCH   1  12
BRANCH   6  20
ATOM     20  N   UNL     1       1.041  14.235  19.648  0.00  0.00    +0.000 N 
ATOM     21  C   UNL     1       0.651  15.391  19.004  0.00  0.00    +0.000 C 
ATOM     22  O   UNL     1      -0.427  15.474  18.417  0.00  0.00    +0.000 OA
ATOM     23  H   UNL     1       1.866  14.267  20.239  0.00  0.00    +0.000 HD
BRANCH  21  24
ATOM     24  C   UNL     1       1.648  16.531  19.066  0.00  0.00    +0.000 C 
BRANCH  24  25
ATOM     25  C   UNL     1       3.032  16.036  18.781  0.00  0.00    +0.000 A 
ATOM     26  C   UNL     1       3.509  15.444  17.626  0.00  0.00    +0.000 A 
ATOM     27  C   UNL     1       4.868  15.036  17.747  0.00  0.00    +0.000 A 
ATOM     28  C   UNL     1       5.392  15.345  18.982  0.00  0.00    +0.000 A 
ATOM     29  S   UNL     1       4.250  16.126  19.986  0.00  0.00    +0.000 S 
ENDBRANCH  24  25
ENDBRANCH  21  24
ENDBRANCH   6  20
BRANCH   2  30
ATOM     30  C   UNL     1       0.352   8.931  21.420  0.00  0.00    +0.000 C 
ATOM     31  O   UNL     1      -0.690   8.292  21.495  0.00  0.00    +0.000 OA
BRANCH  30  32
ATOM     32  OXT UNL     1       1.162   9.042  22.492  0.00  0.00    +0.000 OA
ATOM     33  HXT UNL     1       1.820   9.773  22.483  0.00  0.00    +0.000 HD
ENDBRANCH  30  32
ENDBRANCH   2  30
TORSDOF 8
ENDMDL
MODEL 8
REMARK VINA RESULT:      -6.3      4.216      7.001
REMARK  Name = 
REMARK  9 active torsions:
REMARK  status: ('A' for Active; 'I' for Inactive)
REMARK    1  A    between atoms: C_1  and  O_2
REMARK    2  A    between atoms: O_2  and  C_3
REMARK    3  A    between atoms: C_3  and  C_5
REMARK    4  A    between atoms: C_7  and  C_8
REMARK    5  A    between atoms: CA_9  and  C_10
REMARK    6  A    between atoms: C_10  and  OXT_12
REMARK    7  A    between atoms: CA_16  and  N_17
REMARK    8  A    between atoms: C_18  and  C_20
REMARK    9  A    between atoms: C_20  and  C_21
REMARK                            x       y       z     vdW  Elec       q    Type
REMARK                         _______ _______ _______ _____ _____    ______ ____
ROOT
ATOM      1  C   UNL     1       1.236   8.924  20.458  0.00  0.00    +0.000 C 
ATOM      2  CA  UNL     1       0.697   9.891  19.674  0.00  0.00    +0.000 C 
ATOM      3  N   UNL     1       0.180  11.040  20.232  0.00  0.00    +0.000 N 
ATOM      4  C   UNL     1      -0.976  11.712  20.001  0.00  0.00    +0.000 C 
ATOM      5  O   UNL     1      -1.761  11.634  19.084  0.00  0.00    +0.000 OA
ATOM      6  CA  UNL     1      -0.870  12.430  21.371  0.00  0.00    +0.000 C 
ATOM      7  C   UNL     1       0.251  11.380  21.654  0.00  0.00    +0.000 C 
ATOM      8  S   UNL     1      -0.196   9.912  22.626  0.00  0.00    +0.000 S 
ATOM      9  C   UNL     1       1.207   8.947  21.972  0.00  0.00    +0.000 C 
ENDROOT
BRANCH   1  12
ATOM     10  C   UNL     1       2.236   5.515  19.732  0.00  0.00    +0.000 A 
ATOM     11  C   UNL     1       1.539   6.402  20.532  0.00  0.00    +0.000 A 
ATOM     12  C   UNL     1       1.805   7.688  19.996  0.00  0.00    +0.000 A 
ATOM     13  N   UNL     1       2.596   7.610  18.920  0.00  0.00    +0.000 NA
ATOM     14  N   UNL     1       2.881   6.300  18.820  0.00  0.00    +0.000 N 
ATOM     15  H   UNL     1       3.506   5.989  18.081  0.00  0.00    +0.000 HD
BRANCH  10  16
ATOM     16  C   UNL     1       2.362   4.088  19.731  0.00  0.00    +0.000 C 
ATOM     17  O   UNL     1       3.280   3.473  19.201  0.00  0.00    +0.000 OA
BRANCH  16  19
ATOM     18  C   UNL     1       1.634   2.824  21.568  0.00  0.00    +0.000 C 
ATOM     19  O   UNL     1       1.300   3.520  20.366  0.00  0.00    +0.000 OA
ENDBRANCH  16  19
ENDBRANCH  10  16
ENDBRANCH   1  12
BRANCH   6  20
ATOM     20  N   UNL     1      -2.083  12.434  22.230  0.00  0.00    +0.000 N 
ATOM     21  C   UNL     1      -2.968  13.491  22.179  0.00  0.00    +0.000 C 
ATOM     22  O   UNL     1      -2.760  14.476  21.472  0.00  0.00    +0.000 OA
ATOM     23  H   UNL     1      -2.372  11.586  22.710  0.00  0.00    +0.000 HD
BRANCH  21  24
ATOM     24  C   UNL     1      -4.193  13.350  23.061  0.00  0.00    +0.000 C 
BRANCH  24  25
ATOM     25  C   UNL     1      -4.529  14.658  23.707  0.00  0.00    +0.000 A 
ATOM     26  C   UNL     1      -5.653  15.441  23.522  0.00  0.00    +0.000 A 
ATOM     27  C   UNL     1      -5.592  16.660  24.258  0.00  0.00    +0.000 A 
ATOM     28  C   UNL     1      -4.433  16.762  24.994  0.00  0.00    +0.000 A 
ATOM     29  S   UNL     1      -3.430  15.391  24.801  0.00  0.00    +0.000 S 
ENDBRANCH  24  25
ENDBRANCH  21  24
ENDBRANCH   6  20
BRANCH   2  30
ATOM     30  C   UNL     1       0.752   9.746  18.171  0.00  0.00    +0.000 C 
ATOM     31  O   UNL     1      -0.150   9.244  17.513  0.00  0.00    +0.000 OA
BRANCH  30  32
ATOM     32  OXT UNL     1       1.909  10.104  17.579  0.00  0.00    +0.000 OA
ATOM     33  HXT UNL     1       2.020  11.054  17.350  0.00  0.00    +0.000 HD
ENDBRANCH  30  32
ENDBRANCH   2  30
TORSDOF 8
ENDMDL
MODEL 9
REMARK VINA RESULT:      -6.2      3.847     11.018
REMARK  Name = 
REMARK  9 active torsions:
REMARK  status: ('A' for Active; 'I' for Inactive)
REMARK    1  A    between atoms: C_1  and  O_2
REMARK    2  A    between atoms: O_2  and  C_3
REMARK    3  A    between atoms: C_3  and  C_5
REMARK    4  A    between atoms: C_7  and  C_8
REMARK    5  A    between atoms: CA_9  and  C_10
REMARK    6  A    between atoms: C_10  and  OXT_12
REMARK    7  A    between atoms: CA_16  and  N_17
REMARK    8  A    between atoms: C_18  and  C_20
REMARK    9  A    between atoms: C_20  and  C_21
REMARK                            x       y       z     vdW  Elec       q    Type
REMARK                         _______ _______ _______ _____ _____    ______ ____
ROOT
ATOM      1  C   UNL     1      -0.423  11.046  20.888  0.00  0.00    +0.000 C 
ATOM      2  CA  UNL     1       0.092  11.453  19.700  0.00  0.00    +0.000 C 
ATOM      3  N   UNL     1       0.637  10.541  18.822  0.00  0.00    +0.000 N 
ATOM      4  C   UNL     1       1.787  10.560  18.104  0.00  0.00    +0.000 C 
ATOM      5  O   UNL     1       2.538  11.472  17.844  0.00  0.00    +0.000 OA
ATOM      6  CA  UNL     1       1.737   9.021  17.922  0.00  0.00    +0.000 C 
ATOM      7  C   UNL     1       0.621   9.090  19.012  0.00  0.00    +0.000 C 
ATOM      8  S   UNL     1       1.094   8.722  20.727  0.00  0.00    +0.000 S 
ATOM      9  C   UNL     1      -0.338   9.625  21.406  0.00  0.00    +0.000 C 
ENDROOT
BRANCH   1  12
ATOM     10  C   UNL     1      -2.495  12.851  23.254  0.00  0.00    +0.000 A 
ATOM     11  C   UNL     1      -2.398  11.968  22.193  0.00  0.00    +0.000 A 
ATOM     12  C   UNL     1      -1.016  11.897  21.882  0.00  0.00    +0.000 A 
ATOM     13  N   UNL     1      -0.294  12.665  22.705  0.00  0.00    +0.000 NA
ATOM     14  N   UNL     1      -1.213  13.265  23.481  0.00  0.00    +0.000 N 
ATOM     15  H   UNL     1      -0.904  13.936  24.179  0.00  0.00    +0.000 HD
BRANCH  10  16
ATOM     16  C   UNL     1      -3.597  13.328  24.034  0.00  0.00    +0.000 C 
ATOM     17  O   UNL     1      -3.772  14.501  24.343  0.00  0.00    +0.000 OA
BRANCH  16  19
ATOM     18  C   UNL     1      -5.791  12.521  24.229  0.00  0.00    +0.000 C 
ATOM     19  O   UNL     1      -4.393  12.289  24.411  0.00  0.00    +0.000 OA
ENDBRANCH  16  19
ENDBRANCH  10  16
ENDBRANCH   1  12
BRANCH   6  20
ATOM     20  N   UNL     1       2.981   8.262  18.216  0.00  0.00    +0.000 N 
ATOM     21  C   UNL     1       3.003   6.889  18.090  0.00  0.00    +0.000 C 
ATOM     22  O   UNL     1       1.998   6.250  17.785  0.00  0.00    +0.000 OA
ATOM     23  H   UNL     1       3.865   8.751  18.322  0.00  0.00    +0.000 HD
BRANCH  21  24
ATOM     24  C   UNL     1       4.345   6.237  18.364  0.00  0.00    +0.000 C 
BRANCH  24  25
ATOM     25  C   UNL     1       4.888   5.607  17.119  0.00  0.00    +0.000 A 
ATOM     26  C   UNL     1       5.437   6.229  16.013  0.00  0.00    +0.000 A 
ATOM     27  C   UNL     1       5.781   5.304  14.985  0.00  0.00    +0.000 A 
ATOM     28  C   UNL     1       5.500   4.005  15.344  0.00  0.00    +0.000 A 
ATOM     29  S   UNL     1       4.831   3.905  16.914  0.00  0.00    +0.000 S 
ENDBRANCH  24  25
ENDBRANCH  21  24
ENDBRANCH   6  20
BRANCH   2  30
ATOM     30  C   UNL     1      -0.019  12.906  19.301  0.00  0.00    +0.000 C 
ATOM     31  O   UNL     1      -0.765  13.301  18.414  0.00  0.00    +0.000 OA
BRANCH  30  32
ATOM     32  OXT UNL     1       0.834  13.758  19.905  0.00  0.00    +0.000 OA
ATOM     33  HXT UNL     1       0.472  14.317  20.628  0.00  0.00    +0.000 HD
ENDBRANCH  30  32
ENDBRANCH   2  30
TORSDOF 8
ENDMDL
