MODEL 1
REMARK VINA RESULT:      -8.9      0.000      0.000
REMARK  Name = 
REMARK  10 active torsions:
REMARK  status: ('A' for Active; 'I' for Inactive)
REMARK    1  A    between atoms: C_1  and  O_2
REMARK    2  A    between atoms: O_2  and  C_3
REMARK    3  A    between atoms: C_6  and  C_7
REMARK    4  A    between atoms: N_9  and  C_10
REMARK    5  A    between atoms: C_10  and  C_11
REMARK    6  A    between atoms: C_11  and  C_12
REMARK    7  A    between atoms: C_11  and  N_21
REMARK    8  A    between atoms: N_24  and  C_25
REMARK    9  A    between atoms: C_29  and  O_30
REMARK   10  A    between atoms: O_30  and  C_31
REMARK                            x       y       z     vdW  Elec       q    Type
REMARK                         _______ _______ _______ _____ _____    ______ ____
ROOT
ATOM      1  C   UNL     1       3.820   5.889  19.218  0.00  0.00    +0.000 C 
ENDROOT
BRANCH   1   2
ATOM      2  C   UNL     1       5.126   5.895  18.417  0.00  0.00    +0.000 A 
ATOM      3  C   UNL     1       6.324   5.314  18.911  0.00  0.00    +0.000 A 
ATOM      4  C   UNL     1       7.351   4.942  18.041  0.00  0.00    +0.000 A 
ATOM      5  C   UNL     1       7.132   5.157  16.702  0.00  0.00    +0.000 A 
ATOM      6  C   UNL     1       6.041   5.862  16.240  0.00  0.00    +0.000 A 
ATOM      7  C   UNL     1       5.051   6.305  17.077  0.00  0.00    +0.000 A 
ATOM      8  O   UNL     1       5.966   5.853  14.879  0.00  0.00    +0.000 OA
ATOM      9  C   UNL     1       6.838   4.730  14.634  0.00  0.00    +0.000 C 
ATOM     10  O   UNL     1       7.830   4.592  15.675  0.00  0.00    +0.000 OA
ENDBRANCH   1   2
BRANCH   1  11
ATOM     11  N   UNL     1       3.444   4.533  19.641  0.00  0.00    +0.000 NA
ATOM     12  C   UNL     1       3.425   3.552  18.546  0.00  0.00    +0.000 C 
ATOM     13  C   UNL     1       3.012   2.143  19.034  0.00  0.00    +0.000 C 
ATOM     14  N   UNL     1       1.738   2.091  19.782  0.00  0.00    +0.000 NA
ATOM     15  C   UNL     1       0.588   2.278  18.899  0.00  0.00    +0.000 C 
ATOM     16  C   UNL     1       1.773   3.108  20.852  0.00  0.00    +0.000 C 
ATOM     17  C   UNL     1       2.164   4.522  20.374  0.00  0.00    +0.000 C 
ENDBRANCH   1  11
BRANCH   1  18
ATOM     18  C   UNL     1       2.703   6.765  18.577  0.00  0.00    +0.000 C 
BRANCH  18  21
ATOM     19  C   UNL     1       1.493   8.837  19.106  0.00  0.00    +0.000 C 
ATOM     20  O   UNL     1       1.577   9.228  17.945  0.00  0.00    +0.000 OA
ATOM     21  N   UNL     1       2.009   7.629  19.526  0.00  0.00    +0.000 N 
ATOM     22  H   UNL     1       1.811   7.278  20.457  0.00  0.00    +0.000 HD
BRANCH  19  26
ATOM     23  C   UNL     1      -0.420  11.162  22.162  0.00  0.00    +0.000 A 
ATOM     24  C   UNL     1      -0.120   9.803  22.355  0.00  0.00    +0.000 A 
ATOM     25  C   UNL     1       0.495   9.058  21.351  0.00  0.00    +0.000 A 
ATOM     26  C   UNL     1       0.800   9.655  20.129  0.00  0.00    +0.000 A 
ATOM     27  C   UNL     1       0.429  10.983  19.899  0.00  0.00    +0.000 A 
ATOM     28  C   UNL     1      -0.188  11.743  20.904  0.00  0.00    +0.000 A 
BRANCH  23  30
ATOM     29  C   UNL     1      -2.375  11.887  23.274  0.00  0.00    +0.000 C 
ATOM     30  O   UNL     1      -0.951  11.917  23.174  0.00  0.00    +0.000 OA
ENDBRANCH  23  30
BRANCH  28  31
ATOM     31  O   UNL     1      -0.457  13.017  20.480  0.00  0.00    +0.000 OA
ATOM     32  C   UNL     1      -0.460  13.297  19.089  0.00  0.00    +0.000 C 
ENDBRANCH  28  31
ENDBRANCH  19  26
ENDBRANCH  18  21
ENDBRANCH   1  18
TORSDOF 7
ENDMDL
MODEL 2
REMARK VINA RESULT:      -8.8      0.858      1.809
REMARK  Name = 
REMARK  10 active torsions:
REMARK  status: ('A' for Active; 'I' for Inactive)
REMARK    1  A    between atoms: C_1  and  O_2
REMARK    2  A    between atoms: O_2  and  C_3
REMARK    3  A    between atoms: C_6  and  C_7
REMARK    4  A    between atoms: N_9  and  C_10
REMARK    5  A    between atoms: C_10  and  C_11
REMARK    6  A    between atoms: C_11  and  C_12
REMARK    7  A    between atoms: C_11  and  N_21
REMARK    8  A    between atoms: N_24  and  C_25
REMARK    9  A    between atoms: C_29  and  O_30
REMARK   10  A    between atoms: O_30  and  C_31
REMARK                            x       y       z     vdW  Elec       q    Type
REMARK                         _______ _______ _______ _____ _____    ______ ____
ROOT
ATOM      1  C   UNL     1       3.704   5.938  19.181  0.00  0.00    +0.000 C 
ENDROOT
BRANCH   1   2
ATOM      2  C   UNL     1       5.034   5.936  18.423  0.00  0.00    +0.000 A 
ATOM      3  C   UNL     1       6.216   5.358  18.958  0.00  0.00    +0.000 A 
ATOM      4  C   UNL     1       7.269   4.978  18.125  0.00  0.00    +0.000 A 
ATOM      5  C   UNL     1       7.093   5.183  16.778  0.00  0.00    +0.000 A 
ATOM      6  C   UNL     1       6.018   5.885  16.276  0.00  0.00    +0.000 A 
ATOM      7  C   UNL     1       5.003   6.336  17.078  0.00  0.00    +0.000 A 
ATOM      8  O   UNL     1       5.986   5.866  14.913  0.00  0.00    +0.000 OA
ATOM      9  C   UNL     1       6.864   4.740  14.705  0.00  0.00    +0.000 C 
ATOM     10  O   UNL     1       7.822   4.609  15.778  0.00  0.00    +0.000 OA
ENDBRANCH   1   2
BRANCH   1  11
ATOM     11  N   UNL     1       3.339   4.594  19.650  0.00  0.00    +0.000 NA
ATOM     12  C   UNL     1       3.371   3.568  18.596  0.00  0.00    +0.000 C 
ATOM     13  C   UNL     1       2.968   2.173  19.130  0.00  0.00    +0.000 C 
ATOM     14  N   UNL     1       1.674   2.127  19.842  0.00  0.00    +0.000 NA
ATOM     15  C   UNL     1       0.547   2.256  18.919  0.00  0.00    +0.000 C 
ATOM     16  C   UNL     1       1.659   3.187  20.869  0.00  0.00    +0.000 C 
ATOM     17  C   UNL     1       2.038   4.588  20.345  0.00  0.00    +0.000 C 
ENDBRANCH   1  11
BRANCH   1  18
ATOM     18  C   UNL     1       2.592   6.764  18.470  0.00  0.00    +0.000 C 
BRANCH  18  21
ATOM     19  C   UNL     1       1.667   9.038  18.569  0.00  0.00    +0.000 C 
ATOM     20  O   UNL     1       1.601   9.106  17.345  0.00  0.00    +0.000 OA
ATOM     21  N   UNL     1       2.134   7.922  19.230  0.00  0.00    +0.000 N 
ATOM     22  H   UNL     1       2.056   7.848  20.239  0.00  0.00    +0.000 HD
BRANCH  19  26
ATOM     23  C   UNL     1       0.287  12.359  20.908  0.00  0.00    +0.000 A 
ATOM     24  C   UNL     1       0.747  12.531  19.591  0.00  0.00    +0.000 A 
ATOM     25  C   UNL     1       1.199  11.444  18.846  0.00  0.00    +0.000 A 
ATOM     26  C   UNL     1       1.218  10.171  19.413  0.00  0.00    +0.000 A 
ATOM     27  C   UNL     1       0.842  10.006  20.748  0.00  0.00    +0.000 A 
ATOM     28  C   UNL     1       0.382  11.092  21.508  0.00  0.00    +0.000 A 
BRANCH  23  30
ATOM     29  C   UNL     1       0.636  14.534  21.764  0.00  0.00    +0.000 C 
ATOM     30  O   UNL     1      -0.233  13.411  21.615  0.00  0.00    +0.000 OA
ENDBRANCH  23  30
BRANCH  28  31
ATOM     31  O   UNL     1       0.054  10.715  22.783  0.00  0.00    +0.000 OA
ATOM     32  C   UNL     1      -0.525   9.438  22.999  0.00  0.00    +0.000 C 
ENDBRANCH  28  31
ENDBRANCH  19  26
ENDBRANCH  18  21
ENDBRANCH   1  18
TORSDOF 7
ENDMDL
MODEL 3
REMARK VINA RESULT:      -8.5      3.226      5.295
REMARK  Name = 
REMARK  10 active torsions:
REMARK  status: ('A' for Active; 'I' for Inactive)
REMARK    1  A    between atoms: C_1  and  O_2
REMARK    2  A    between atoms: O_2  and  C_3
REMARK    3  A    between atoms: C_6  and  C_7
REMARK    4  A    between atoms: N_9  and  C_10
REMARK    5  A    between atoms: C_10  and  C_11
REMARK    6  A    between atoms: C_11  and  C_12
REMARK    7  A    between atoms: C_11  and  N_21
REMARK    8  A    between atoms: N_24  and  C_25
REMARK    9  A    between atoms: C_29  and  O_30
REMARK   10  A    between atoms: O_30  and  C_31
REMARK                            x       y       z     vdW  Elec       q    Type
REMARK                         _______ _______ _______ _____ _____    ______ ____
ROOT
ATOM      1  C   UNL     1       3.194   6.733  17.711  0.00  0.00    +0.000 C 
ENDROOT
BRANCH   1   2
ATOM      2  C   UNL     1       2.257   5.757  18.428  0.00  0.00    +0.000 A 
ATOM      3  C   UNL     1       1.519   4.762  17.733  0.00  0.00    +0.000 A 
ATOM      4  C   UNL     1       1.030   3.637  18.399  0.00  0.00    +0.000 A 
ATOM      5  C   UNL     1       1.310   3.545  19.741  0.00  0.00    +0.000 A 
ATOM      6  C   UNL     1       1.888   4.582  20.443  0.00  0.00    +0.000 A 
ATOM      7  C   UNL     1       2.313   5.730  19.830  0.00  0.00    +0.000 A 
ATOM      8  O   UNL     1       2.180   4.229  21.727  0.00  0.00    +0.000 OA
ATOM      9  C   UNL     1       2.129   2.797  21.562  0.00  0.00    +0.000 C 
ATOM     10  O   UNL     1       1.224   2.416  20.502  0.00  0.00    +0.000 OA
ENDBRANCH   1   2
BRANCH   1  11
ATOM     11  N   UNL     1       4.589   6.271  17.735  0.00  0.00    +0.000 NA
ATOM     12  C   UNL     1       5.516   7.143  16.997  0.00  0.00    +0.000 C 
ATOM     13  C   UNL     1       6.969   6.613  17.037  0.00  0.00    +0.000 C 
ATOM     14  N   UNL     1       7.134   5.212  16.598  0.00  0.00    +0.000 NA
ATOM     15  C   UNL     1       6.975   5.080  15.150  0.00  0.00    +0.000 C 
ATOM     16  C   UNL     1       6.170   4.367  17.330  0.00  0.00    +0.000 C 
ATOM     17  C   UNL     1       4.713   4.874  17.280  0.00  0.00    +0.000 C 
ENDBRANCH   1  11
BRANCH   1  18
ATOM     18  C   UNL     1       2.937   8.222  18.091  0.00  0.00    +0.000 C 
BRANCH  18  21
ATOM     19  C   UNL     1       1.098   9.793  18.519  0.00  0.00    +0.000 C 
ATOM     20  O   UNL     1       1.806  10.484  19.247  0.00  0.00    +0.000 OA
ATOM     21  N   UNL     1       1.559   8.656  17.890  0.00  0.00    +0.000 N 
ATOM     22  H   UNL     1       0.990   8.182  17.197  0.00  0.00    +0.000 HD
BRANCH  19  26
ATOM     23  C   UNL     1      -2.950  11.014  17.793  0.00  0.00    +0.000 A 
ATOM     24  C   UNL     1      -2.231  11.485  18.904  0.00  0.00    +0.000 A 
ATOM     25  C   UNL     1      -0.919  11.075  19.131  0.00  0.00    +0.000 A 
ATOM     26  C   UNL     1      -0.313  10.169  18.263  0.00  0.00    +0.000 A 
ATOM     27  C   UNL     1      -1.049   9.631  17.204  0.00  0.00    +0.000 A 
ATOM     28  C   UNL     1      -2.370  10.040  16.963  0.00  0.00    +0.000 A 
BRANCH  23  30
ATOM     29  C   UNL     1      -5.127  11.424  18.614  0.00  0.00    +0.000 C 
ATOM     30  O   UNL     1      -4.211  11.476  17.521  0.00  0.00    +0.000 OA
ENDBRANCH  23  30
BRANCH  28  31
ATOM     31  O   UNL     1      -2.905   9.403  15.875  0.00  0.00    +0.000 OA
ATOM     32  C   UNL     1      -2.927  10.073  14.624  0.00  0.00    +0.000 C 
ENDBRANCH  28  31
ENDBRANCH  19  26
ENDBRANCH  18  21
ENDBRANCH   1  18
TORSDOF 7
ENDMDL
MODEL 4
REMARK VINA RESULT:      -8.5      3.186      5.392
REMARK  Name = 
REMARK  10 active torsions:
REMARK  status: ('A' for Active; 'I' for Inactive)
REMARK    1  A    between atoms: C_1  and  O_2
REMARK    2  A    between atoms: O_2  and  C_3
REMARK    3  A    between atoms: C_6  and  C_7
REMARK    4  A    between atoms: N_9  and  C_10
REMARK    5  A    between atoms: C_10  and  C_11
REMARK    6  A    between atoms: C_11  and  C_12
REMARK    7  A    between atoms: C_11  and  N_21
REMARK    8  A    between atoms: N_24  and  C_25
REMARK    9  A    between atoms: C_29  and  O_30
REMARK   10  A    between atoms: O_30  and  C_31
REMARK                            x       y       z     vdW  Elec       q    Type
REMARK                         _______ _______ _______ _____ _____    ______ ____
ROOT
ATOM      1  C   UNL     1       3.034   6.466  17.601  0.00  0.00    +0.000 C 
ENDROOT
BRANCH   1   2
ATOM      2  C   UNL     1       2.165   5.469  18.373  0.00  0.00    +0.000 A 
ATOM      3  C   UNL     1       1.518   4.374  17.740  0.00  0.00    +0.000 A 
ATOM      4  C   UNL     1       1.108   3.262  18.477  0.00  0.00    +0.000 A 
ATOM      5  C   UNL     1       1.374   3.283  19.825  0.00  0.00    +0.000 A 
ATOM      6  C   UNL     1       1.857   4.408  20.460  0.00  0.00    +0.000 A 
ATOM      7  C   UNL     1       2.200   5.542  19.774  0.00  0.00    +0.000 A 
ATOM      8  O   UNL     1       2.155   4.167  21.769  0.00  0.00    +0.000 OA
ATOM      9  C   UNL     1       2.219   2.727  21.702  0.00  0.00    +0.000 C 
ATOM     10  O   UNL     1       1.364   2.206  20.661  0.00  0.00    +0.000 OA
ENDBRANCH   1   2
BRANCH   1  11
ATOM     11  N   UNL     1       4.391   5.950  17.374  0.00  0.00    +0.000 NA
ATOM     12  C   UNL     1       5.228   5.929  18.584  0.00  0.00    +0.000 C 
ATOM     13  C   UNL     1       6.650   5.391  18.298  0.00  0.00    +0.000 C 
ATOM     14  N   UNL     1       7.366   6.072  17.199  0.00  0.00    +0.000 NA
ATOM     15  C   UNL     1       7.798   7.414  17.589  0.00  0.00    +0.000 C 
ATOM     16  C   UNL     1       6.490   6.108  16.011  0.00  0.00    +0.000 C 
ATOM     17  C   UNL     1       5.075   6.662  16.278  0.00  0.00    +0.000 C 
ENDBRANCH   1  11
BRANCH   1  18
ATOM     18  C   UNL     1       2.913   7.925  18.131  0.00  0.00    +0.000 C 
BRANCH  18  21
ATOM     19  C   UNL     1       1.012   9.321  18.819  0.00  0.00    +0.000 C 
ATOM     20  O   UNL     1       1.508   9.519  19.925  0.00  0.00    +0.000 OA
ATOM     21  N   UNL     1       1.626   8.554  17.852  0.00  0.00    +0.000 N 
ATOM     22  H   UNL     1       1.254   8.515  16.910  0.00  0.00    +0.000 HD
BRANCH  19  26
ATOM     23  C   UNL     1      -2.705  11.200  17.788  0.00  0.00    +0.000 A 
ATOM     24  C   UNL     1      -1.978  11.588  18.926  0.00  0.00    +0.000 A 
ATOM     25  C   UNL     1      -0.776  10.965  19.253  0.00  0.00    +0.000 A 
ATOM     26  C   UNL     1      -0.292   9.927  18.458  0.00  0.00    +0.000 A 
ATOM     27  C   UNL     1      -1.050   9.478  17.373  0.00  0.00    +0.000 A 
ATOM     28  C   UNL     1      -2.260  10.100  17.033  0.00  0.00    +0.000 A 
BRANCH  23  30
ATOM     29  C   UNL     1      -5.054  11.358  17.984  0.00  0.00    +0.000 C 
ATOM     30  O   UNL     1      -3.845  11.863  17.419  0.00  0.00    +0.000 OA
ENDBRANCH  23  30
BRANCH  28  31
ATOM     31  O   UNL     1      -2.837   9.518  15.936  0.00  0.00    +0.000 OA
ATOM     32  C   UNL     1      -2.943  10.264  14.733  0.00  0.00    +0.000 C 
ENDBRANCH  28  31
ENDBRANCH  19  26
ENDBRANCH  18  21
ENDBRANCH   1  18
TORSDOF 7
ENDMDL
MODEL 5
REMARK VINA RESULT:      -8.4      2.909      5.141
REMARK  Name = 
REMARK  10 active torsions:
REMARK  status: ('A' for Active; 'I' for Inactive)
REMARK    1  A    between atoms: C_1  and  O_2
REMARK    2  A    between atoms: O_2  and  C_3
REMARK    3  A    between atoms: C_6  and  C_7
REMARK    4  A    between atoms: N_9  and  C_10
REMARK    5  A    between atoms: C_10  and  C_11
REMARK    6  A    between atoms: C_11  and  C_12
REMARK    7  A    between atoms: C_11  and  N_21
REMARK    8  A    between atoms: N_24  and  C_25
REMARK    9  A    between atoms: C_29  and  O_30
REMARK   10  A    between atoms: O_30  and  C_31
REMARK                            x       y       z     vdW  Elec       q    Type
REMARK                         _______ _______ _______ _____ _____    ______ ____
ROOT
ATOM      1  C   UNL     1       3.378   6.438  17.538  0.00  0.00    +0.000 C 
ENDROOT
BRANCH   1   2
ATOM      2  C   UNL     1       2.398   5.568  18.330  0.00  0.00    +0.000 A 
ATOM      3  C   UNL     1       1.583   4.583  17.712  0.00  0.00    +0.000 A 
ATOM      4  C   UNL     1       1.040   3.533  18.455  0.00  0.00    +0.000 A 
ATOM      5  C   UNL     1       1.345   3.504  19.794  0.00  0.00    +0.000 A 
ATOM      6  C   UNL     1       2.003   4.541  20.421  0.00  0.00    +0.000 A 
ATOM      7  C   UNL     1       2.485   5.622  19.730  0.00  0.00    +0.000 A 
ATOM      8  O   UNL     1       2.301   4.248  21.718  0.00  0.00    +0.000 OA
ATOM      9  C   UNL     1       2.157   2.815  21.641  0.00  0.00    +0.000 C 
ATOM     10  O   UNL     1       1.205   2.431  20.625  0.00  0.00    +0.000 OA
ENDBRANCH   1   2
BRANCH   1  11
ATOM     11  N   UNL     1       4.687   5.788  17.384  0.00  0.00    +0.000 NA
ATOM     12  C   UNL     1       5.750   6.694  16.923  0.00  0.00    +0.000 C 
ATOM     13  C   UNL     1       7.106   5.967  16.763  0.00  0.00    +0.000 C 
ATOM     14  N   UNL     1       7.069   4.758  15.913  0.00  0.00    +0.000 NA
ATOM     15  C   UNL     1       6.923   5.100  14.499  0.00  0.00    +0.000 C 
ATOM     16  C   UNL     1       5.972   3.884  16.377  0.00  0.00    +0.000 C 
ATOM     17  C   UNL     1       4.609   4.593  16.521  0.00  0.00    +0.000 C 
ENDBRANCH   1  11
BRANCH   1  18
ATOM     18  C   UNL     1       3.379   7.929  17.988  0.00  0.00    +0.000 C 
BRANCH  18  21
ATOM     19  C   UNL     1       1.391   9.158  18.743  0.00  0.00    +0.000 C 
ATOM     20  O   UNL     1       1.735   9.071  19.919  0.00  0.00    +0.000 OA
ATOM     21  N   UNL     1       2.134   8.635  17.707  0.00  0.00    +0.000 N 
ATOM     22  H   UNL     1       1.889   8.834  16.743  0.00  0.00    +0.000 HD
BRANCH  19  26
ATOM     23  C   UNL     1      -2.297  11.076  17.681  0.00  0.00    +0.000 A 
ATOM     24  C   UNL     1      -1.849   9.927  17.009  0.00  0.00    +0.000 A 
ATOM     25  C   UNL     1      -0.646   9.318  17.359  0.00  0.00    +0.000 A 
ATOM     26  C   UNL     1       0.139   9.863  18.375  0.00  0.00    +0.000 A 
ATOM     27  C   UNL     1      -0.258  11.052  18.991  0.00  0.00    +0.000 A 
ATOM     28  C   UNL     1      -1.469  11.672  18.648  0.00  0.00    +0.000 A 
BRANCH  23  30
ATOM     29  C   UNL     1      -4.188  11.072  16.264  0.00  0.00    +0.000 C 
ATOM     30  O   UNL     1      -3.516  11.630  17.394  0.00  0.00    +0.000 OA
ENDBRANCH  23  30
BRANCH  28  31
ATOM     31  O   UNL     1      -1.676  12.815  19.374  0.00  0.00    +0.000 OA
ATOM     32  C   UNL     1      -2.069  12.708  20.733  0.00  0.00    +0.000 C 
ENDBRANCH  28  31
ENDBRANCH  19  26
ENDBRANCH  18  21
ENDBRANCH   1  18
TORSDOF 7
ENDMDL
MODEL 6
REMARK VINA RESULT:      -8.4      0.854      1.280
REMARK  Name = 
REMARK  10 active torsions:
REMARK  status: ('A' for Active; 'I' for Inactive)
REMARK    1  A    between atoms: C_1  and  O_2
REMARK    2  A    between atoms: O_2  and  C_3
REMARK    3  A    between atoms: C_6  and  C_7
REMARK    4  A    between atoms: N_9  and  C_10
REMARK    5  A    between atoms: C_10  and  C_11
REMARK    6  A    between atoms: C_11  and  C_12
REMARK    7  A    between atoms: C_11  and  N_21
REMARK    8  A    between atoms: N_24  and  C_25
REMARK    9  A    between atoms: C_29  and  O_30
REMARK   10  A    between atoms: O_30  and  C_31
REMARK                            x       y       z     vdW  Elec       q    Type
REMARK                         _______ _______ _______ _____ _____    ______ ____
ROOT
ATOM      1  C   UNL     1       3.418   6.117  18.849  0.00  0.00    +0.000 C 
ENDROOT
BRANCH   1   2
ATOM      2  C   UNL     1       4.830   6.021  18.265  0.00  0.00    +0.000 A 
ATOM      3  C   UNL     1       5.884   5.339  18.929  0.00  0.00    +0.000 A 
ATOM      4  C   UNL     1       7.003   4.891  18.224  0.00  0.00    +0.000 A 
ATOM      5  C   UNL     1       7.018   5.135  16.873  0.00  0.00    +0.000 A 
ATOM      6  C   UNL     1       6.074   5.932  16.259  0.00  0.00    +0.000 A 
ATOM      7  C   UNL     1       5.003   6.448  16.939  0.00  0.00    +0.000 A 
ATOM      8  O   UNL     1       6.216   5.941  14.903  0.00  0.00    +0.000 OA
ATOM      9  C   UNL     1       7.023   4.752  14.775  0.00  0.00    +0.000 C 
ATOM     10  O   UNL     1       7.822   4.522  15.956  0.00  0.00    +0.000 OA
ENDBRANCH   1   2
BRANCH   1  11
ATOM     11  N   UNL     1       2.731   4.818  18.836  0.00  0.00    +0.000 NA
ATOM     12  C   UNL     1       3.014   3.984  20.015  0.00  0.00    +0.000 C 
ATOM     13  C   UNL     1       2.281   2.623  19.954  0.00  0.00    +0.000 C 
ATOM     14  N   UNL     1       2.510   1.846  18.718  0.00  0.00    +0.000 NA
ATOM     15  C   UNL     1       3.859   1.283  18.680  0.00  0.00    +0.000 C 
ATOM     16  C   UNL     1       2.251   2.717  17.554  0.00  0.00    +0.000 C 
ATOM     17  C   UNL     1       2.993   4.070  17.592  0.00  0.00    +0.000 C 
ENDBRANCH   1  11
BRANCH   1  18
ATOM     18  C   UNL     1       2.617   7.344  18.323  0.00  0.00    +0.000 C 
BRANCH  18  21
ATOM     19  C   UNL     1       1.315   9.290  19.068  0.00  0.00    +0.000 C 
ATOM     20  O   UNL     1       1.348   9.791  17.947  0.00  0.00    +0.000 OA
ATOM     21  N   UNL     1       1.904   8.079  19.362  0.00  0.00    +0.000 N 
ATOM     22  H   UNL     1       1.750   7.633  20.260  0.00  0.00    +0.000 HD
BRANCH  19  26
ATOM     23  C   UNL     1      -0.654  11.193  22.371  0.00  0.00    +0.000 A 
ATOM     24  C   UNL     1      -0.510   9.796  22.309  0.00  0.00    +0.000 A 
ATOM     25  C   UNL     1       0.125   9.191  21.227  0.00  0.00    +0.000 A 
ATOM     26  C   UNL     1       0.608   9.972  20.178  0.00  0.00    +0.000 A 
ATOM     27  C   UNL     1       0.394  11.353  20.192  0.00  0.00    +0.000 A 
ATOM     28  C   UNL     1      -0.242  11.973  21.278  0.00  0.00    +0.000 A 
BRANCH  23  30
ATOM     29  C   UNL     1      -2.611  12.037  23.391  0.00  0.00    +0.000 C 
ATOM     30  O   UNL     1      -1.206  11.796  23.469  0.00  0.00    +0.000 OA
ENDBRANCH  23  30
BRANCH  28  31
ATOM     31  O   UNL     1      -0.341  13.328  21.099  0.00  0.00    +0.000 OA
ATOM     32  C   UNL     1       0.748  14.156  21.473  0.00  0.00    +0.000 C 
ENDBRANCH  28  31
ENDBRANCH  19  26
ENDBRANCH  18  21
ENDBRANCH   1  18
TORSDOF 7
ENDMDL
MODEL 7
REMARK VINA RESULT:      -8.4      0.651      1.093
REMARK  Name = 
REMARK  10 active torsions:
REMARK  status: ('A' for Active; 'I' for Inactive)
REMARK    1  A    between atoms: C_1  and  O_2
REMARK    2  A    between atoms: O_2  and  C_3
REMARK    3  A    between atoms: C_6  and  C_7
REMARK    4  A    between atoms: N_9  and  C_10
REMARK    5  A    between atoms: C_10  and  C_11
REMARK    6  A    between atoms: C_11  and  C_12
REMARK    7  A    between atoms: C_11  and  N_21
REMARK    8  A    between atoms: N_24  and  C_25
REMARK    9  A    between atoms: C_29  and  O_30
REMARK   10  A    between atoms: O_30  and  C_31
REMARK                            x       y       z     vdW  Elec       q    Type
REMARK                         _______ _______ _______ _____ _____    ______ ____
ROOT
ATOM      1  C   UNL     1       3.486   6.128  18.838  0.00  0.00    +0.000 C 
ENDROOT
BRANCH   1   2
ATOM      2  C   UNL     1       4.880   6.052  18.208  0.00  0.00    +0.000 A 
ATOM      3  C   UNL     1       5.995   5.496  18.890  0.00  0.00    +0.000 A 
ATOM      4  C   UNL     1       7.111   5.042  18.186  0.00  0.00    +0.000 A 
ATOM      5  C   UNL     1       7.064   5.152  16.817  0.00  0.00    +0.000 A 
ATOM      6  C   UNL     1       6.054   5.833  16.170  0.00  0.00    +0.000 A 
ATOM      7  C   UNL     1       4.980   6.355  16.841  0.00  0.00    +0.000 A 
ATOM      8  O   UNL     1       6.146   5.717  14.815  0.00  0.00    +0.000 OA
ATOM      9  C   UNL     1       7.015   4.566  14.768  0.00  0.00    +0.000 C 
ATOM     10  O   UNL     1       7.868   4.497  15.932  0.00  0.00    +0.000 OA
ENDBRANCH   1   2
BRANCH   1  11
ATOM     11  N   UNL     1       2.847   4.807  18.915  0.00  0.00    +0.000 NA
ATOM     12  C   UNL     1       1.524   4.824  19.558  0.00  0.00    +0.000 C 
ATOM     13  C   UNL     1       0.894   3.413  19.629  0.00  0.00    +0.000 C 
ATOM     14  N   UNL     1       1.747   2.380  20.253  0.00  0.00    +0.000 NA
ATOM     15  C   UNL     1       1.843   2.564  21.700  0.00  0.00    +0.000 C 
ATOM     16  C   UNL     1       3.076   2.409  19.611  0.00  0.00    +0.000 C 
ATOM     17  C   UNL     1       3.725   3.808  19.553  0.00  0.00    +0.000 C 
ENDBRANCH   1  11
BRANCH   1  18
ATOM     18  C   UNL     1       2.623   7.299  18.282  0.00  0.00    +0.000 C 
BRANCH  18  21
ATOM     19  C   UNL     1       1.199   9.183  18.957  0.00  0.00    +0.000 C 
ATOM     20  O   UNL     1       1.034   9.528  17.790  0.00  0.00    +0.000 OA
ATOM     21  N   UNL     1       1.960   8.090  19.312  0.00  0.00    +0.000 N 
ATOM     22  H   UNL     1       1.972   7.757  20.270  0.00  0.00    +0.000 HD
BRANCH  19  26
ATOM     23  C   UNL     1      -0.580  11.286  22.247  0.00  0.00    +0.000 A 
ATOM     24  C   UNL     1      -0.458   9.886  22.252  0.00  0.00    +0.000 A 
ATOM     25  C   UNL     1       0.116   9.216  21.174  0.00  0.00    +0.000 A 
ATOM     26  C   UNL     1       0.556   9.933  20.063  0.00  0.00    +0.000 A 
ATOM     27  C   UNL     1       0.361  11.316  20.014  0.00  0.00    +0.000 A 
ATOM     28  C   UNL     1      -0.212  12.002  21.095  0.00  0.00    +0.000 A 
BRANCH  23  30
ATOM     29  C   UNL     1      -2.491  12.080  23.388  0.00  0.00    +0.000 C 
ATOM     30  O   UNL     1      -1.070  11.954  23.337  0.00  0.00    +0.000 OA
ENDBRANCH  23  30
BRANCH  28  31
ATOM     31  O   UNL     1      -0.302  13.347  20.850  0.00  0.00    +0.000 OA
ATOM     32  C   UNL     1      -1.495  13.868  20.286  0.00  0.00    +0.000 C 
ENDBRANCH  28  31
ENDBRANCH  19  26
ENDBRANCH  18  21
ENDBRANCH   1  18
TORSDOF 7
ENDMDL
MODEL 8
REMARK VINA RESULT:      -8.3      2.929      5.039
REMARK  Name = 
REMARK  10 active torsions:
REMARK  status: ('A' for Active; 'I' for Inactive)
REMARK    1  A    between atoms: C_1  and  O_2
REMARK    2  A    between atoms: O_2  and  C_3
REMARK    3  A    between atoms: C_6  and  C_7
REMARK    4  A    between atoms: N_9  and  C_10
REMARK    5  A    between atoms: C_10  and  C_11
REMARK    6  A    between atoms: C_11  and  C_12
REMARK    7  A    between atoms: C_11  and  N_21
REMARK    8  A    between atoms: N_24  and  C_25
REMARK    9  A    between atoms: C_29  and  O_30
REMARK   10  A    between atoms: O_30  and  C_31
REMARK                            x       y       z     vdW  Elec       q    Type
REMARK                         _______ _______ _______ _____ _____    ______ ____
ROOT
ATOM      1  C   UNL     1       3.137   6.512  17.573  0.00  0.00    +0.000 C 
ENDROOT
BRANCH   1   2
ATOM      2  C   UNL     1       2.257   5.511  18.328  0.00  0.00    +0.000 A 
ATOM      3  C   UNL     1       1.624   4.416  17.682  0.00  0.00    +0.000 A 
ATOM      4  C   UNL     1       1.203   3.301  18.409  0.00  0.00    +0.000 A 
ATOM      5  C   UNL     1       1.444   3.321  19.762  0.00  0.00    +0.000 A 
ATOM      6  C   UNL     1       1.913   4.446  20.407  0.00  0.00    +0.000 A 
ATOM      7  C   UNL     1       2.266   5.582  19.729  0.00  0.00    +0.000 A 
ATOM      8  O   UNL     1       2.187   4.204  21.721  0.00  0.00    +0.000 OA
ATOM      9  C   UNL     1       2.256   2.765  21.653  0.00  0.00    +0.000 C 
ATOM     10  O   UNL     1       1.421   2.243  20.596  0.00  0.00    +0.000 OA
ENDBRANCH   1   2
BRANCH   1  11
ATOM     11  N   UNL     1       4.469   5.961  17.285  0.00  0.00    +0.000 NA
ATOM     12  C   UNL     1       4.905   4.931  18.241  0.00  0.00    +0.000 C 
ATOM     13  C   UNL     1       6.315   4.389  17.907  0.00  0.00    +0.000 C 
ATOM     14  N   UNL     1       7.362   5.422  17.763  0.00  0.00    +0.000 NA
ATOM     15  C   UNL     1       7.734   5.996  19.056  0.00  0.00    +0.000 C 
ATOM     16  C   UNL     1       6.883   6.457  16.826  0.00  0.00    +0.000 C 
ATOM     17  C   UNL     1       5.486   7.021  17.159  0.00  0.00    +0.000 C 
ENDBRANCH   1  11
BRANCH   1  18
ATOM     18  C   UNL     1       3.081   7.950  18.168  0.00  0.00    +0.000 C 
BRANCH  18  21
ATOM     19  C   UNL     1       1.116   9.242  18.879  0.00  0.00    +0.000 C 
ATOM     20  O   UNL     1       1.456   9.183  20.058  0.00  0.00    +0.000 OA
ATOM     21  N   UNL     1       1.851   8.672  17.861  0.00  0.00    +0.000 N 
ATOM     22  H   UNL     1       1.613   8.847  16.891  0.00  0.00    +0.000 HD
BRANCH  19  26
ATOM     23  C   UNL     1      -2.525  11.199  17.729  0.00  0.00    +0.000 A 
ATOM     24  C   UNL     1      -2.017  10.110  17.001  0.00  0.00    +0.000 A 
ATOM     25  C   UNL     1      -0.830   9.488  17.381  0.00  0.00    +0.000 A 
ATOM     26  C   UNL     1      -0.119   9.960  18.484  0.00  0.00    +0.000 A 
ATOM     27  C   UNL     1      -0.573  11.094  19.162  0.00  0.00    +0.000 A 
ATOM     28  C   UNL     1      -1.769  11.726  18.790  0.00  0.00    +0.000 A 
BRANCH  23  30
ATOM     29  C   UNL     1      -4.850  11.269  18.143  0.00  0.00    +0.000 C 
ATOM     30  O   UNL     1      -3.731  11.761  17.406  0.00  0.00    +0.000 OA
ENDBRANCH  23  30
BRANCH  28  31
ATOM     31  O   UNL     1      -2.039  12.807  19.586  0.00  0.00    +0.000 OA
ATOM     32  C   UNL     1      -2.452  12.593  20.927  0.00  0.00    +0.000 C 
ENDBRANCH  28  31
ENDBRANCH  19  26
ENDBRANCH  18  21
ENDBRANCH   1  18
TORSDOF 7
ENDMDL
MODEL 9
REMARK VINA RESULT:      -8.3      1.090      2.016
REMARK  Name = 
REMARK  10 active torsions:
REMARK  status: ('A' for Active; 'I' for Inactive)
REMARK    1  A    between atoms: C_1  and  O_2
REMARK    2  A    between atoms: O_2  and  C_3
REMARK    3  A    between atoms: C_6  and  C_7
REMARK    4  A    between atoms: N_9  and  C_10
REMARK    5  A    between atoms: C_10  and  C_11
REMARK    6  A    between atoms: C_11  and  C_12
REMARK    7  A    between atoms: C_11  and  N_21
REMARK    8  A    between atoms: N_24  and  C_25
REMARK    9  A    between atoms: C_29  and  O_30
REMARK   10  A    between atoms: O_30  and  C_31
REMARK                            x       y       z     vdW  Elec       q    Type
REMARK                         _______ _______ _______ _____ _____    ______ ____
ROOT
ATOM      1  C   UNL     1       3.296   6.320  18.695  0.00  0.00    +0.000 C 
ENDROOT
BRANCH   1   2
ATOM      2  C   UNL     1       4.731   6.119  18.199  0.00  0.00    +0.000 A 
ATOM      3  C   UNL     1       5.695   5.383  18.938  0.00  0.00    +0.000 A 
ATOM      4  C   UNL     1       6.821   4.847  18.311  0.00  0.00    +0.000 A 
ATOM      5  C   UNL     1       6.933   5.060  16.959  0.00  0.00    +0.000 A 
ATOM      6  C   UNL     1       6.083   5.904  16.275  0.00  0.00    +0.000 A 
ATOM      7  C   UNL     1       5.011   6.504  16.879  0.00  0.00    +0.000 A 
ATOM      8  O   UNL     1       6.306   5.874  14.930  0.00  0.00    +0.000 OA
ATOM      9  C   UNL     1       7.037   4.631  14.872  0.00  0.00    +0.000 C 
ATOM     10  O   UNL     1       7.747   4.376  16.104  0.00  0.00    +0.000 OA
ENDBRANCH   1   2
BRANCH   1  11
ATOM     11  N   UNL     1       2.596   5.041  18.880  0.00  0.00    +0.000 NA
ATOM     12  C   UNL     1       3.053   4.278  20.052  0.00  0.00    +0.000 C 
ATOM     13  C   UNL     1       2.299   2.936  20.201  0.00  0.00    +0.000 C 
ATOM     14  N   UNL     1       2.314   2.075  19.000  0.00  0.00    +0.000 NA
ATOM     15  C   UNL     1       3.630   1.475  18.784  0.00  0.00    +0.000 C 
ATOM     16  C   UNL     1       1.884   2.876  17.836  0.00  0.00    +0.000 C 
ATOM     17  C   UNL     1       2.643   4.208  17.664  0.00  0.00    +0.000 C 
ENDBRANCH   1  11
BRANCH   1  18
ATOM     18  C   UNL     1       2.532   7.439  17.927  0.00  0.00    +0.000 C 
BRANCH  18  21
ATOM     19  C   UNL     1       1.452   9.589  18.424  0.00  0.00    +0.000 C 
ATOM     20  O   UNL     1       1.902  10.096  17.400  0.00  0.00    +0.000 OA
ATOM     21  N   UNL     1       1.696   8.279  18.777  0.00  0.00    +0.000 N 
ATOM     22  H   UNL     1       1.207   7.854  19.559  0.00  0.00    +0.000 HD
BRANCH  19  26
ATOM     23  C   UNL     1      -1.149  11.830  20.996  0.00  0.00    +0.000 A 
ATOM     24  C   UNL     1      -1.180  11.993  19.601  0.00  0.00    +0.000 A 
ATOM     25  C   UNL     1      -0.324  11.264  18.778  0.00  0.00    +0.000 A 
ATOM     26  C   UNL     1       0.591  10.375  19.340  0.00  0.00    +0.000 A 
ATOM     27  C   UNL     1       0.686  10.270  20.730  0.00  0.00    +0.000 A 
ATOM     28  C   UNL     1      -0.173  10.997  21.568  0.00  0.00    +0.000 A 
BRANCH  23  30
ATOM     29  C   UNL     1      -1.606  13.754  22.290  0.00  0.00    +0.000 C 
ATOM     30  O   UNL     1      -2.042  12.485  21.802  0.00  0.00    +0.000 OA
ENDBRANCH  23  30
BRANCH  28  31
ATOM     31  O   UNL     1       0.077  10.742  22.890  0.00  0.00    +0.000 OA
ATOM     32  C   UNL     1      -0.205   9.452  23.411  0.00  0.00    +0.000 C 
ENDBRANCH  28  31
ENDBRANCH  19  26
ENDBRANCH  18  21
ENDBRANCH   1  18
TORSDOF 7
ENDMDL
