MODEL 1
REMARK VINA RESULT:      -7.8      0.000      0.000
REMARK  Name = 
REMARK  7 active torsions:
REMARK  status: ('A' for Active; 'I' for Inactive)
REMARK    1  A    between atoms: C_1  and  O_2
REMARK    2  A    between atoms: O_2  and  C_3
REMARK    3  A    between atoms: C_9  and  C_10
REMARK    4  A    between atoms: N_19  and  C_20
REMARK    5  A    between atoms: C_20  and  C_21
REMARK    6  A    between atoms: C_30  and  O_31
REMARK    7  A    between atoms: O_31  and  C_32
REMARK                            x       y       z     vdW  Elec       q    Type
REMARK                         _______ _______ _______ _____ _____    ______ ____
ROOT
ATOM      1  C   UNL     1      -2.168  13.517  23.354  0.00  0.00    +0.000 A 
ATOM      2  C   UNL     1      -1.347  12.378  23.334  0.00  0.00    +0.000 A 
ATOM      3  C   UNL     1      -1.086  11.723  22.124  0.00  0.00    +0.000 A 
ATOM      4  C   UNL     1      -0.214  10.545  22.097  0.00  0.00    +0.000 A 
ATOM      5  N   UNL     1       0.345   9.889  23.084  0.00  0.00    +0.000 NA
ATOM      6  N   UNL     1       1.110   8.781  22.501  0.00  0.00    +0.000 NA
ATOM      7  C   UNL     1       0.991   8.839  21.196  0.00  0.00    +0.000 A 
ATOM      8  C   UNL     1       0.122   9.944  20.818  0.00  0.00    +0.000 A 
ATOM      9  C   UNL     1      -0.407  10.451  19.709  0.00  0.00    +0.000 A 
ATOM     10  N   UNL     1      -1.252  11.555  19.683  0.00  0.00    +0.000 N 
ATOM     11  C   UNL     1      -1.633  12.163  20.906  0.00  0.00    +0.000 A 
ATOM     12  C   UNL     1      -2.563  13.201  20.984  0.00  0.00    +0.000 A 
ATOM     13  C   UNL     1      -2.830  13.898  22.177  0.00  0.00    +0.000 A 
ENDROOT
BRANCH   7  14
ATOM     14  C   UNL     1       1.618   7.939  20.225  0.00  0.00    +0.000 A 
ATOM     15  C   UNL     1       2.025   8.449  18.986  0.00  0.00    +0.000 A 
ATOM     16  C   UNL     1       2.635   7.604  18.053  0.00  0.00    +0.000 A 
ATOM     17  C   UNL     1       2.828   6.260  18.363  0.00  0.00    +0.000 A 
ATOM     18  F   UNL     1       3.407   5.451  17.468  0.00  0.00    +0.000 F 
ATOM     19  C   UNL     1       2.421   5.742  19.586  0.00  0.00    +0.000 A 
ATOM     20  C   UNL     1       1.806   6.581  20.517  0.00  0.00    +0.000 A 
ENDBRANCH   7  14
BRANCH   1  22
ATOM     21  C   UNL     1      -1.414  15.302  24.724  0.00  0.00    +0.000 C 
ATOM     22  O   UNL     1      -2.348  14.244  24.499  0.00  0.00    +0.000 OA
ENDBRANCH   1  22
BRANCH  13  23
ATOM     23  O   UNL     1      -3.700  14.921  21.934  0.00  0.00    +0.000 OA
ATOM     24  C   UNL     1      -5.076  14.859  22.251  0.00  0.00    +0.000 C 
ENDBRANCH  13  23
BRANCH  10  25
ATOM     25  C   UNL     1      -1.554  12.230  18.405  0.00  0.00    +0.000 C 
BRANCH  25  26
ATOM     26  C   UNL     1      -2.393  11.391  17.474  0.00  0.00    +0.000 A 
ATOM     27  C   UNL     1      -1.862  10.478  16.553  0.00  0.00    +0.000 A 
ATOM     28  C   UNL     1      -2.697   9.808  15.656  0.00  0.00    +0.000 A 
ATOM     29  C   UNL     1      -4.074  10.021  15.688  0.00  0.00    +0.000 A 
ATOM     30  C   UNL     1      -4.621  10.884  16.635  0.00  0.00    +0.000 A 
ATOM     31  C   UNL     1      -3.781  11.554  17.517  0.00  0.00    +0.000 A 
ATOM     32  F   UNL     1      -4.322  12.390  18.416  0.00  0.00    +0.000 F 
ENDBRANCH  25  26
ENDBRANCH  10  25
TORSDOF 5
ENDMDL
MODEL 2
REMARK VINA RESULT:      -7.7      3.437      7.033
REMARK  Name = 
REMARK  7 active torsions:
REMARK  status: ('A' for Active; 'I' for Inactive)
REMARK    1  A    between atoms: C_1  and  O_2
REMARK    2  A    between atoms: O_2  and  C_3
REMARK    3  A    between atoms: C_9  and  C_10
REMARK    4  A    between atoms: N_19  and  C_20
REMARK    5  A    between atoms: C_20  and  C_21
REMARK    6  A    between atoms: C_30  and  O_31
REMARK    7  A    between atoms: O_31  and  C_32
REMARK                            x       y       z     vdW  Elec       q    Type
REMARK                         _______ _______ _______ _____ _____    ______ ____
ROOT
ATOM      1  C   UNL     1       2.325   6.907  19.819  0.00  0.00    +0.000 A 
ATOM      2  C   UNL     1       1.718   7.558  20.905  0.00  0.00    +0.000 A 
ATOM      3  C   UNL     1       1.081   8.791  20.718  0.00  0.00    +0.000 A 
ATOM      4  C   UNL     1       0.430   9.464  21.846  0.00  0.00    +0.000 A 
ATOM      5  N   UNL     1       0.402   9.141  23.116  0.00  0.00    +0.000 NA
ATOM      6  N   UNL     1      -0.383  10.165  23.814  0.00  0.00    +0.000 NA
ATOM      7  C   UNL     1      -0.804  11.037  22.929  0.00  0.00    +0.000 A 
ATOM      8  C   UNL     1      -0.309  10.691  21.605  0.00  0.00    +0.000 A 
ATOM      9  C   UNL     1      -0.337  11.196  20.376  0.00  0.00    +0.000 A 
ATOM     10  N   UNL     1       0.278  10.605  19.277  0.00  0.00    +0.000 N 
ATOM     11  C   UNL     1       1.034   9.421  19.462  0.00  0.00    +0.000 A 
ATOM     12  C   UNL     1       1.777   8.824  18.442  0.00  0.00    +0.000 A 
ATOM     13  C   UNL     1       2.406   7.574  18.588  0.00  0.00    +0.000 A 
ENDROOT
BRANCH   7  14
ATOM     14  C   UNL     1      -1.646  12.206  23.194  0.00  0.00    +0.000 A 
ATOM     15  C   UNL     1      -3.011  12.022  23.441  0.00  0.00    +0.000 A 
ATOM     16  C   UNL     1      -3.825  13.129  23.706  0.00  0.00    +0.000 A 
ATOM     17  C   UNL     1      -3.271  14.406  23.716  0.00  0.00    +0.000 A 
ATOM     18  F   UNL     1      -4.051  15.465  23.964  0.00  0.00    +0.000 F 
ATOM     19  C   UNL     1      -1.919  14.601  23.464  0.00  0.00    +0.000 A 
ATOM     20  C   UNL     1      -1.105  13.500  23.193  0.00  0.00    +0.000 A 
ENDBRANCH   7  14
BRANCH   1  22
ATOM     21  C   UNL     1       2.093   4.728  20.729  0.00  0.00    +0.000 C 
ATOM     22  O   UNL     1       2.852   5.651  19.947  0.00  0.00    +0.000 OA
ENDBRANCH   1  22
BRANCH  13  23
ATOM     23  O   UNL     1       2.967   7.194  17.403  0.00  0.00    +0.000 OA
ATOM     24  C   UNL     1       4.354   6.980  17.236  0.00  0.00    +0.000 C 
ENDBRANCH  13  23
BRANCH  10  25
ATOM     25  C   UNL     1      -0.046  11.062  17.911  0.00  0.00    +0.000 C 
BRANCH  25  26
ATOM     26  C   UNL     1      -1.490  10.841  17.537  0.00  0.00    +0.000 A 
ATOM     27  C   UNL     1      -1.939   9.766  16.757  0.00  0.00    +0.000 A 
ATOM     28  C   UNL     1      -3.278   9.681  16.370  0.00  0.00    +0.000 A 
ATOM     29  C   UNL     1      -4.190  10.651  16.782  0.00  0.00    +0.000 A 
ATOM     30  C   UNL     1      -3.769  11.694  17.604  0.00  0.00    +0.000 A 
ATOM     31  C   UNL     1      -2.432  11.777  17.976  0.00  0.00    +0.000 A 
ATOM     32  F   UNL     1      -2.040  12.793  18.758  0.00  0.00    +0.000 F 
ENDBRANCH  25  26
ENDBRANCH  10  25
TORSDOF 5
ENDMDL
MODEL 3
REMARK VINA RESULT:      -7.6      0.662      1.078
REMARK  Name = 
REMARK  7 active torsions:
REMARK  status: ('A' for Active; 'I' for Inactive)
REMARK    1  A    between atoms: C_1  and  O_2
REMARK    2  A    between atoms: O_2  and  C_3
REMARK    3  A    between atoms: C_9  and  C_10
REMARK    4  A    between atoms: N_19  and  C_20
REMARK    5  A    between atoms: C_20  and  C_21
REMARK    6  A    between atoms: C_30  and  O_31
REMARK    7  A    between atoms: O_31  and  C_32
REMARK                            x       y       z     vdW  Elec       q    Type
REMARK                         _______ _______ _______ _____ _____    ______ ____
ROOT
ATOM      1  C   UNL     1      -2.807  13.494  23.761  0.00  0.00    +0.000 A 
ATOM      2  C   UNL     1      -1.915  12.412  23.689  0.00  0.00    +0.000 A 
ATOM      3  C   UNL     1      -1.587  11.854  22.448  0.00  0.00    +0.000 A 
ATOM      4  C   UNL     1      -0.641  10.736  22.368  0.00  0.00    +0.000 A 
ATOM      5  N   UNL     1      -0.063  10.053  23.325  0.00  0.00    +0.000 NA
ATOM      6  N   UNL     1       0.783   9.035  22.693  0.00  0.00    +0.000 NA
ATOM      7  C   UNL     1       0.687   9.170  21.391  0.00  0.00    +0.000 A 
ATOM      8  C   UNL     1      -0.241  10.241  21.062  0.00  0.00    +0.000 A 
ATOM      9  C   UNL     1      -0.777  10.785  19.974  0.00  0.00    +0.000 A 
ATOM     10  N   UNL     1      -1.690  11.835  19.998  0.00  0.00    +0.000 N 
ATOM     11  C   UNL     1      -2.134  12.337  21.247  0.00  0.00    +0.000 A 
ATOM     12  C   UNL     1      -3.130  13.308  21.367  0.00  0.00    +0.000 A 
ATOM     13  C   UNL     1      -3.466  13.908  22.595  0.00  0.00    +0.000 A 
ENDROOT
BRANCH   7  14
ATOM     14  C   UNL     1       1.391   8.376  20.381  0.00  0.00    +0.000 A 
ATOM     15  C   UNL     1       1.812   7.080  20.703  0.00  0.00    +0.000 A 
ATOM     16  C   UNL     1       2.475   6.307  19.745  0.00  0.00    +0.000 A 
ATOM     17  C   UNL     1       2.716   6.834  18.479  0.00  0.00    +0.000 A 
ATOM     18  F   UNL     1       3.356   6.095  17.565  0.00  0.00    +0.000 F 
ATOM     19  C   UNL     1       2.310   8.122  18.152  0.00  0.00    +0.000 A 
ATOM     20  C   UNL     1       1.654   8.899  19.107  0.00  0.00    +0.000 A 
ENDBRANCH   7  14
BRANCH   1  22
ATOM     21  C   UNL     1      -2.212  15.244  25.249  0.00  0.00    +0.000 C 
ATOM     22  O   UNL     1      -3.056  14.133  24.945  0.00  0.00    +0.000 OA
ENDBRANCH   1  22
BRANCH  13  23
ATOM     23  O   UNL     1      -4.394  14.889  22.395  0.00  0.00    +0.000 OA
ATOM     24  C   UNL     1      -4.069  16.176  21.912  0.00  0.00    +0.000 C 
ENDBRANCH  13  23
BRANCH  10  25
ATOM     25  C   UNL     1      -2.006  12.571  18.757  0.00  0.00    +0.000 C 
BRANCH  25  26
ATOM     26  C   UNL     1      -2.658  11.710  17.705  0.00  0.00    +0.000 A 
ATOM     27  C   UNL     1      -1.946  10.953  16.764  0.00  0.00    +0.000 A 
ATOM     28  C   UNL     1      -2.619  10.257  15.757  0.00  0.00    +0.000 A 
ATOM     29  C   UNL     1      -4.011  10.284  15.698  0.00  0.00    +0.000 A 
ATOM     30  C   UNL     1      -4.734  10.985  16.660  0.00  0.00    +0.000 A 
ATOM     31  C   UNL     1      -4.055  11.684  17.652  0.00  0.00    +0.000 A 
ATOM     32  F   UNL     1      -4.765  12.365  18.564  0.00  0.00    +0.000 F 
ENDBRANCH  25  26
ENDBRANCH  10  25
TORSDOF 5
ENDMDL
MODEL 4
REMARK VINA RESULT:      -7.5      3.317      7.097
REMARK  Name = 
REMARK  7 active torsions:
REMARK  status: ('A' for Active; 'I' for Inactive)
REMARK    1  A    between atoms: C_1  and  O_2
REMARK    2  A    between atoms: O_2  and  C_3
REMARK    3  A    between atoms: C_9  and  C_10
REMARK    4  A    between atoms: N_19  and  C_20
REMARK    5  A    between atoms: C_20  and  C_21
REMARK    6  A    between atoms: C_30  and  O_31
REMARK    7  A    between atoms: O_31  and  C_32
REMARK                            x       y       z     vdW  Elec       q    Type
REMARK                         _______ _______ _______ _____ _____    ______ ____
ROOT
ATOM      1  C   UNL     1       2.372   7.003  19.745  0.00  0.00    +0.000 A 
ATOM      2  C   UNL     1       1.789   7.653  20.844  0.00  0.00    +0.000 A 
ATOM      3  C   UNL     1       1.072   8.842  20.657  0.00  0.00    +0.000 A 
ATOM      4  C   UNL     1       0.446   9.513  21.800  0.00  0.00    +0.000 A 
ATOM      5  N   UNL     1       0.506   9.231  23.078  0.00  0.00    +0.000 NA
ATOM      6  N   UNL     1      -0.298  10.231  23.790  0.00  0.00    +0.000 NA
ATOM      7  C   UNL     1      -0.817  11.049  22.905  0.00  0.00    +0.000 A 
ATOM      8  C   UNL     1      -0.375  10.689  21.566  0.00  0.00    +0.000 A 
ATOM      9  C   UNL     1      -0.501  11.151  20.326  0.00  0.00    +0.000 A 
ATOM     10  N   UNL     1       0.086  10.560  19.211  0.00  0.00    +0.000 N 
ATOM     11  C   UNL     1       0.920   9.427  19.388  0.00  0.00    +0.000 A 
ATOM     12  C   UNL     1       1.639   8.840  18.345  0.00  0.00    +0.000 A 
ATOM     13  C   UNL     1       2.347   7.633  18.492  0.00  0.00    +0.000 A 
ENDROOT
BRANCH   7  14
ATOM     14  C   UNL     1      -1.710  12.177  23.182  0.00  0.00    +0.000 A 
ATOM     15  C   UNL     1      -1.187  13.475  23.189  0.00  0.00    +0.000 A 
ATOM     16  C   UNL     1      -2.030  14.562  23.442  0.00  0.00    +0.000 A 
ATOM     17  C   UNL     1      -3.382  14.344  23.689  0.00  0.00    +0.000 A 
ATOM     18  F   UNL     1      -4.187  15.384  23.937  0.00  0.00    +0.000 F 
ATOM     19  C   UNL     1      -3.910  13.058  23.693  0.00  0.00    +0.000 A 
ATOM     20  C   UNL     1      -3.071  11.971  23.448  0.00  0.00    +0.000 A 
ENDBRANCH   7  14
BRANCH   1  22
ATOM     21  C   UNL     1       2.139   4.642  19.696  0.00  0.00    +0.000 C 
ATOM     22  O   UNL     1       2.978   5.784  19.880  0.00  0.00    +0.000 OA
ENDBRANCH   1  22
BRANCH  13  23
ATOM     23  O   UNL     1       2.863   7.246  17.289  0.00  0.00    +0.000 OA
ATOM     24  C   UNL     1       4.240   7.007  17.078  0.00  0.00    +0.000 C 
ENDBRANCH  13  23
BRANCH  10  25
ATOM     25  C   UNL     1      -0.338  10.953  17.853  0.00  0.00    +0.000 C 
BRANCH  25  26
ATOM     26  C   UNL     1      -1.835  11.047  17.702  0.00  0.00    +0.000 A 
ATOM     27  C   UNL     1      -2.649  11.871  18.491  0.00  0.00    +0.000 A 
ATOM     28  C   UNL     1      -4.039  11.831  18.360  0.00  0.00    +0.000 A 
ATOM     29  C   UNL     1      -4.630  10.989  17.419  0.00  0.00    +0.000 A 
ATOM     30  C   UNL     1      -3.831  10.206  16.590  0.00  0.00    +0.000 A 
ATOM     31  C   UNL     1      -2.449  10.244  16.735  0.00  0.00    +0.000 A 
ATOM     32  F   UNL     1      -1.693   9.475  15.937  0.00  0.00    +0.000 F 
ENDBRANCH  25  26
ENDBRANCH  10  25
TORSDOF 5
ENDMDL
MODEL 5
REMARK VINA RESULT:      -7.2      2.235      3.298
REMARK  Name = 
REMARK  7 active torsions:
REMARK  status: ('A' for Active; 'I' for Inactive)
REMARK    1  A    between atoms: C_1  and  O_2
REMARK    2  A    between atoms: O_2  and  C_3
REMARK    3  A    between atoms: C_9  and  C_10
REMARK    4  A    between atoms: N_19  and  C_20
REMARK    5  A    between atoms: C_20  and  C_21
REMARK    6  A    between atoms: C_30  and  O_31
REMARK    7  A    between atoms: O_31  and  C_32
REMARK                            x       y       z     vdW  Elec       q    Type
REMARK                         _______ _______ _______ _____ _____    ______ ____
ROOT
ATOM      1  C   UNL     1      -2.583  12.954  23.066  0.00  0.00    +0.000 A 
ATOM      2  C   UNL     1      -1.820  11.780  22.959  0.00  0.00    +0.000 A 
ATOM      3  C   UNL     1      -1.224  11.439  21.739  0.00  0.00    +0.000 A 
ATOM      4  C   UNL     1      -0.411  10.223  21.629  0.00  0.00    +0.000 A 
ATOM      5  N   UNL     1      -0.188   9.278  22.508  0.00  0.00    +0.000 NA
ATOM      6  N   UNL     1       0.691   8.286  21.878  0.00  0.00    +0.000 NA
ATOM      7  C   UNL     1       0.968   8.695  20.662  0.00  0.00    +0.000 A 
ATOM      8  C   UNL     1       0.278   9.945  20.381  0.00  0.00    +0.000 A 
ATOM      9  C   UNL     1       0.117  10.776  19.356  0.00  0.00    +0.000 A 
ATOM     10  N   UNL     1      -0.656  11.932  19.404  0.00  0.00    +0.000 N 
ATOM     11  C   UNL     1      -1.371  12.236  20.590  0.00  0.00    +0.000 A 
ATOM     12  C   UNL     1      -2.258  13.309  20.691  0.00  0.00    +0.000 A 
ATOM     13  C   UNL     1      -2.853  13.695  21.906  0.00  0.00    +0.000 A 
ENDROOT
BRANCH   7  14
ATOM     14  C   UNL     1       1.836   8.019  19.695  0.00  0.00    +0.000 A 
ATOM     15  C   UNL     1       2.129   8.652  18.482  0.00  0.00    +0.000 A 
ATOM     16  C   UNL     1       2.965   8.023  17.553  0.00  0.00    +0.000 A 
ATOM     17  C   UNL     1       3.496   6.769  17.842  0.00  0.00    +0.000 A 
ATOM     18  F   UNL     1       4.292   6.165  16.951  0.00  0.00    +0.000 F 
ATOM     19  C   UNL     1       3.205   6.127  19.040  0.00  0.00    +0.000 A 
ATOM     20  C   UNL     1       2.366   6.749  19.966  0.00  0.00    +0.000 A 
ENDBRANCH   7  14
BRANCH   1  22
ATOM     21  C   UNL     1      -4.239  12.684  24.743  0.00  0.00    +0.000 C 
ATOM     22  O   UNL     1      -3.080  13.372  24.270  0.00  0.00    +0.000 OA
ENDBRANCH   1  22
BRANCH  13  23
ATOM     23  O   UNL     1      -3.587  14.831  21.725  0.00  0.00    +0.000 OA
ATOM     24  C   UNL     1      -4.991  14.830  21.571  0.00  0.00    +0.000 C 
ENDBRANCH  13  23
BRANCH  10  25
ATOM     25  C   UNL     1      -0.545  12.944  18.335  0.00  0.00    +0.000 C 
BRANCH  25  26
ATOM     26  C   UNL     1       0.693  13.797  18.451  0.00  0.00    +0.000 A 
ATOM     27  C   UNL     1       1.994  13.315  18.252  0.00  0.00    +0.000 A 
ATOM     28  C   UNL     1       3.098  14.142  18.473  0.00  0.00    +0.000 A 
ATOM     29  C   UNL     1       2.914  15.466  18.866  0.00  0.00    +0.000 A 
ATOM     30  C   UNL     1       1.626  15.974  19.013  0.00  0.00    +0.000 A 
ATOM     31  C   UNL     1       0.533  15.141  18.801  0.00  0.00    +0.000 A 
ATOM     32  F   UNL     1      -0.701  15.642  18.958  0.00  0.00    +0.000 F 
ENDBRANCH  25  26
ENDBRANCH  10  25
TORSDOF 5
ENDMDL
MODEL 6
REMARK VINA RESULT:      -7.2      4.522      9.144
REMARK  Name = 
REMARK  7 active torsions:
REMARK  status: ('A' for Active; 'I' for Inactive)
REMARK    1  A    between atoms: C_1  and  O_2
REMARK    2  A    between atoms: O_2  and  C_3
REMARK    3  A    between atoms: C_9  and  C_10
REMARK    4  A    between atoms: N_19  and  C_20
REMARK    5  A    between atoms: C_20  and  C_21
REMARK    6  A    between atoms: C_30  and  O_31
REMARK    7  A    between atoms: O_31  and  C_32
REMARK                            x       y       z     vdW  Elec       q    Type
REMARK                         _______ _______ _______ _____ _____    ______ ____
ROOT
ATOM      1  C   UNL     1       2.700   3.867  20.757  0.00  0.00    +0.000 A 
ATOM      2  C   UNL     1       2.031   5.064  21.060  0.00  0.00    +0.000 A 
ATOM      3  C   UNL     1       2.168   6.176  20.221  0.00  0.00    +0.000 A 
ATOM      4  C   UNL     1       1.456   7.421  20.525  0.00  0.00    +0.000 A 
ATOM      5  N   UNL     1       0.722   7.739  21.563  0.00  0.00    +0.000 NA
ATOM      6  N   UNL     1       0.254   9.116  21.368  0.00  0.00    +0.000 NA
ATOM      7  C   UNL     1       0.711   9.548  20.216  0.00  0.00    +0.000 A 
ATOM      8  C   UNL     1       1.534   8.527  19.586  0.00  0.00    +0.000 A 
ATOM      9  C   UNL     1       2.286   8.397  18.498  0.00  0.00    +0.000 A 
ATOM     10  N   UNL     1       2.994   7.244  18.173  0.00  0.00    +0.000 N 
ATOM     11  C   UNL     1       2.973   6.145  19.069  0.00  0.00    +0.000 A 
ATOM     12  C   UNL     1       3.741   4.995  18.882  0.00  0.00    +0.000 A 
ATOM     13  C   UNL     1       3.610   3.850  19.690  0.00  0.00    +0.000 A 
ENDROOT
BRANCH   7  14
ATOM     14  C   UNL     1       0.457  10.861  19.618  0.00  0.00    +0.000 A 
ATOM     15  C   UNL     1      -0.783  11.110  19.018  0.00  0.00    +0.000 A 
ATOM     16  C   UNL     1      -1.043  12.362  18.453  0.00  0.00    +0.000 A 
ATOM     17  C   UNL     1      -0.063  13.351  18.487  0.00  0.00    +0.000 A 
ATOM     18  F   UNL     1      -0.310  14.547  17.940  0.00  0.00    +0.000 F 
ATOM     19  C   UNL     1       1.174  13.112  19.072  0.00  0.00    +0.000 A 
ATOM     20  C   UNL     1       1.440  11.861  19.631  0.00  0.00    +0.000 A 
ENDBRANCH   7  14
BRANCH   1  22
ATOM     21  C   UNL     1       1.149   2.481  21.898  0.00  0.00    +0.000 C 
ATOM     22  O   UNL     1       2.495   2.732  21.492  0.00  0.00    +0.000 OA
ENDBRANCH   1  22
BRANCH  13  23
ATOM     23  O   UNL     1       4.408   2.850  19.214  0.00  0.00    +0.000 OA
ATOM     24  C   UNL     1       3.902   1.679  18.605  0.00  0.00    +0.000 C 
ENDBRANCH  13  23
BRANCH  10  25
ATOM     25  C   UNL     1       3.557   7.074  16.819  0.00  0.00    +0.000 C 
BRANCH  25  26
ATOM     26  C   UNL     1       4.999   6.635  16.826  0.00  0.00    +0.000 A 
ATOM     27  C   UNL     1       6.037   7.374  17.412  0.00  0.00    +0.000 A 
ATOM     28  C   UNL     1       7.363   6.951  17.293  0.00  0.00    +0.000 A 
ATOM     29  C   UNL     1       7.664   5.772  16.613  0.00  0.00    +0.000 A 
ATOM     30  C   UNL     1       6.638   5.001  16.074  0.00  0.00    +0.000 A 
ATOM     31  C   UNL     1       5.322   5.434  16.188  0.00  0.00    +0.000 A 
ATOM     32  F   UNL     1       4.346   4.685  15.653  0.00  0.00    +0.000 F 
ENDBRANCH  25  26
ENDBRANCH  10  25
TORSDOF 5
ENDMDL
MODEL 7
REMARK VINA RESULT:      -7.1      2.339      3.469
REMARK  Name = 
REMARK  7 active torsions:
REMARK  status: ('A' for Active; 'I' for Inactive)
REMARK    1  A    between atoms: C_1  and  O_2
REMARK    2  A    between atoms: O_2  and  C_3
REMARK    3  A    between atoms: C_9  and  C_10
REMARK    4  A    between atoms: N_19  and  C_20
REMARK    5  A    between atoms: C_20  and  C_21
REMARK    6  A    between atoms: C_30  and  O_31
REMARK    7  A    between atoms: O_31  and  C_32
REMARK                            x       y       z     vdW  Elec       q    Type
REMARK                         _______ _______ _______ _____ _____    ______ ____
ROOT
ATOM      1  C   UNL     1      -2.494  12.949  23.063  0.00  0.00    +0.000 A 
ATOM      2  C   UNL     1      -1.736  11.771  22.968  0.00  0.00    +0.000 A 
ATOM      3  C   UNL     1      -1.154  11.407  21.747  0.00  0.00    +0.000 A 
ATOM      4  C   UNL     1      -0.346  10.188  21.649  0.00  0.00    +0.000 A 
ATOM      5  N   UNL     1      -0.117   9.256  22.542  0.00  0.00    +0.000 NA
ATOM      6  N   UNL     1       0.752   8.252  21.918  0.00  0.00    +0.000 NA
ATOM      7  C   UNL     1       1.018   8.639  20.693  0.00  0.00    +0.000 A 
ATOM      8  C   UNL     1       0.329   9.886  20.398  0.00  0.00    +0.000 A 
ATOM      9  C   UNL     1       0.159  10.701  19.362  0.00  0.00    +0.000 A 
ATOM     10  N   UNL     1      -0.610  11.859  19.399  0.00  0.00    +0.000 N 
ATOM     11  C   UNL     1      -1.311  12.186  20.587  0.00  0.00    +0.000 A 
ATOM     12  C   UNL     1      -2.194  13.263  20.679  0.00  0.00    +0.000 A 
ATOM     13  C   UNL     1      -2.775  13.671  21.894  0.00  0.00    +0.000 A 
ENDROOT
BRANCH   7  14
ATOM     14  C   UNL     1       1.873   7.944  19.728  0.00  0.00    +0.000 A 
ATOM     15  C   UNL     1       2.234   8.595  18.543  0.00  0.00    +0.000 A 
ATOM     16  C   UNL     1       3.059   7.948  17.618  0.00  0.00    +0.000 A 
ATOM     17  C   UNL     1       3.512   6.658  17.881  0.00  0.00    +0.000 A 
ATOM     18  F   UNL     1       4.297   6.036  16.993  0.00  0.00    +0.000 F 
ATOM     19  C   UNL     1       3.153   5.999  19.051  0.00  0.00    +0.000 A 
ATOM     20  C   UNL     1       2.325   6.639  19.973  0.00  0.00    +0.000 A 
ENDBRANCH   7  14
BRANCH   1  22
ATOM     21  C   UNL     1      -4.221  12.825  24.686  0.00  0.00    +0.000 C 
ATOM     22  O   UNL     1      -2.977  13.388  24.265  0.00  0.00    +0.000 OA
ENDBRANCH   1  22
BRANCH  13  23
ATOM     23  O   UNL     1      -3.507  14.807  21.702  0.00  0.00    +0.000 OA
ATOM     24  C   UNL     1      -4.883  14.797  21.383  0.00  0.00    +0.000 C 
ENDBRANCH  13  23
BRANCH  10  25
ATOM     25  C   UNL     1      -0.508  12.854  18.312  0.00  0.00    +0.000 C 
BRANCH  25  26
ATOM     26  C   UNL     1       0.540  13.907  18.567  0.00  0.00    +0.000 A 
ATOM     27  C   UNL     1       0.256  15.184  19.071  0.00  0.00    +0.000 A 
ATOM     28  C   UNL     1       1.267  16.141  19.189  0.00  0.00    +0.000 A 
ATOM     29  C   UNL     1       2.577  15.824  18.833  0.00  0.00    +0.000 A 
ATOM     30  C   UNL     1       2.883  14.543  18.383  0.00  0.00    +0.000 A 
ATOM     31  C   UNL     1       1.869  13.599  18.259  0.00  0.00    +0.000 A 
ATOM     32  F   UNL     1       2.177  12.373  17.813  0.00  0.00    +0.000 F 
ENDBRANCH  25  26
ENDBRANCH  10  25
TORSDOF 5
ENDMDL
MODEL 8
REMARK VINA RESULT:      -7.1      2.214      3.348
REMARK  Name = 
REMARK  7 active torsions:
REMARK  status: ('A' for Active; 'I' for Inactive)
REMARK    1  A    between atoms: C_1  and  O_2
REMARK    2  A    between atoms: O_2  and  C_3
REMARK    3  A    between atoms: C_9  and  C_10
REMARK    4  A    between atoms: N_19  and  C_20
REMARK    5  A    between atoms: C_20  and  C_21
REMARK    6  A    between atoms: C_30  and  O_31
REMARK    7  A    between atoms: O_31  and  C_32
REMARK                            x       y       z     vdW  Elec       q    Type
REMARK                         _______ _______ _______ _____ _____    ______ ____
ROOT
ATOM      1  C   UNL     1      -2.562  13.112  23.077  0.00  0.00    +0.000 A 
ATOM      2  C   UNL     1      -1.815  11.926  22.994  0.00  0.00    +0.000 A 
ATOM      3  C   UNL     1      -1.234  11.546  21.778  0.00  0.00    +0.000 A 
ATOM      4  C   UNL     1      -0.437  10.319  21.693  0.00  0.00    +0.000 A 
ATOM      5  N   UNL     1      -0.218   9.394  22.595  0.00  0.00    +0.000 NA
ATOM      6  N   UNL     1       0.642   8.375  21.983  0.00  0.00    +0.000 NA
ATOM      7  C   UNL     1       0.914   8.749  20.755  0.00  0.00    +0.000 A 
ATOM      8  C   UNL     1       0.237   9.999  20.447  0.00  0.00    +0.000 A 
ATOM      9  C   UNL     1       0.077  10.806  19.402  0.00  0.00    +0.000 A 
ATOM     10  N   UNL     1      -0.681  11.972  19.427  0.00  0.00    +0.000 N 
ATOM     11  C   UNL     1      -1.382  12.315  20.611  0.00  0.00    +0.000 A 
ATOM     12  C   UNL     1      -2.254  13.402  20.691  0.00  0.00    +0.000 A 
ATOM     13  C   UNL     1      -2.834  13.827  21.901  0.00  0.00    +0.000 A 
ENDROOT
BRANCH   7  14
ATOM     14  C   UNL     1       1.765   8.037  19.798  0.00  0.00    +0.000 A 
ATOM     15  C   UNL     1       2.246   6.764  20.128  0.00  0.00    +0.000 A 
ATOM     16  C   UNL     1       3.051   6.069  19.220  0.00  0.00    +0.000 A 
ATOM     17  C   UNL     1       3.371   6.650  17.996  0.00  0.00    +0.000 A 
ATOM     18  F   UNL     1       4.146   5.987  17.129  0.00  0.00    +0.000 F 
ATOM     19  C   UNL     1       2.906   7.916  17.662  0.00  0.00    +0.000 A 
ATOM     20  C   UNL     1       2.109   8.616  18.568  0.00  0.00    +0.000 A 
ENDBRANCH   7  14
BRANCH   1  22
ATOM     21  C   UNL     1      -2.414  14.738  24.800  0.00  0.00    +0.000 C 
ATOM     22  O   UNL     1      -3.043  13.568  24.274  0.00  0.00    +0.000 OA
ENDBRANCH   1  22
BRANCH  13  23
ATOM     23  O   UNL     1      -3.555  14.967  21.697  0.00  0.00    +0.000 OA
ATOM     24  C   UNL     1      -2.994  16.156  21.179  0.00  0.00    +0.000 C 
ENDBRANCH  13  23
BRANCH  10  25
ATOM     25  C   UNL     1      -0.567  12.955  18.331  0.00  0.00    +0.000 C 
BRANCH  25  26
ATOM     26  C   UNL     1       0.693  13.780  18.401  0.00  0.00    +0.000 A 
ATOM     27  C   UNL     1       1.974  13.271  18.150  0.00  0.00    +0.000 A 
ATOM     28  C   UNL     1       3.104  14.072  18.331  0.00  0.00    +0.000 A 
ATOM     29  C   UNL     1       2.965  15.399  18.736  0.00  0.00    +0.000 A 
ATOM     30  C   UNL     1       1.695  15.933  18.935  0.00  0.00    +0.000 A 
ATOM     31  C   UNL     1       0.576  15.126  18.763  0.00  0.00    +0.000 A 
ATOM     32  F   UNL     1      -0.640  15.652  18.970  0.00  0.00    +0.000 F 
ENDBRANCH  25  26
ENDBRANCH  10  25
TORSDOF 5
ENDMDL
MODEL 9
REMARK VINA RESULT:      -7.0      2.383      3.572
REMARK  Name = 
REMARK  7 active torsions:
REMARK  status: ('A' for Active; 'I' for Inactive)
REMARK    1  A    between atoms: C_1  and  O_2
REMARK    2  A    between atoms: O_2  and  C_3
REMARK    3  A    between atoms: C_9  and  C_10
REMARK    4  A    between atoms: N_19  and  C_20
REMARK    5  A    between atoms: C_20  and  C_21
REMARK    6  A    between atoms: C_30  and  O_31
REMARK    7  A    between atoms: O_31  and  C_32
REMARK                            x       y       z     vdW  Elec       q    Type
REMARK                         _______ _______ _______ _____ _____    ______ ____
ROOT
ATOM      1  C   UNL     1      -2.080  14.074  23.432  0.00  0.00    +0.000 A 
ATOM      2  C   UNL     1      -1.443  12.824  23.404  0.00  0.00    +0.000 A 
ATOM      3  C   UNL     1      -1.039  12.269  22.183  0.00  0.00    +0.000 A 
ATOM      4  C   UNL     1      -0.356  10.972  22.152  0.00  0.00    +0.000 A 
ATOM      5  N   UNL     1      -0.107  10.129  23.124  0.00  0.00    +0.000 NA
ATOM      6  N   UNL     1       0.594   8.979  22.542  0.00  0.00    +0.000 NA
ATOM      7  C   UNL     1       0.750   9.198  21.257  0.00  0.00    +0.000 A 
ATOM      8  C   UNL     1       0.142  10.466  20.884  0.00  0.00    +0.000 A 
ATOM      9  C   UNL     1      -0.074  11.172  19.779  0.00  0.00    +0.000 A 
ATOM     10  N   UNL     1      -0.731  12.398  19.753  0.00  0.00    +0.000 N 
ATOM     11  C   UNL     1      -1.260  12.924  20.959  0.00  0.00    +0.000 A 
ATOM     12  C   UNL     1      -2.030  14.087  21.009  0.00  0.00    +0.000 A 
ATOM     13  C   UNL     1      -2.430  14.685  22.219  0.00  0.00    +0.000 A 
ENDROOT
BRANCH   7  14
ATOM     14  C   UNL     1       1.426   8.317  20.301  0.00  0.00    +0.000 A 
ATOM     15  C   UNL     1       1.742   7.009  20.685  0.00  0.00    +0.000 A 
ATOM     16  C   UNL     1       2.378   6.153  19.779  0.00  0.00    +0.000 A 
ATOM     17  C   UNL     1       2.695   6.612  18.503  0.00  0.00    +0.000 A 
ATOM     18  F   UNL     1       3.309   5.796  17.639  0.00  0.00    +0.000 F 
ATOM     19  C   UNL     1       2.394   7.912  18.115  0.00  0.00    +0.000 A 
ATOM     20  C   UNL     1       1.766   8.770  19.019  0.00  0.00    +0.000 A 
ENDBRANCH   7  14
BRANCH   1  22
ATOM     21  C   UNL     1      -1.328  15.447  25.215  0.00  0.00    +0.000 C 
ATOM     22  O   UNL     1      -2.382  14.692  24.615  0.00  0.00    +0.000 OA
ENDBRANCH   1  22
BRANCH  13  23
ATOM     23  O   UNL     1      -3.079  15.859  21.966  0.00  0.00    +0.000 OA
ATOM     24  C   UNL     1      -2.417  17.104  21.864  0.00  0.00    +0.000 C 
ENDBRANCH  13  23
BRANCH  10  25
ATOM     25  C   UNL     1      -0.669  13.248  18.548  0.00  0.00    +0.000 C 
BRANCH  25  26
ATOM     26  C   UNL     1       0.457  14.250  18.585  0.00  0.00    +0.000 A 
ATOM     27  C   UNL     1       0.282  15.612  18.870  0.00  0.00    +0.000 A 
ATOM     28  C   UNL     1       1.359  16.498  18.789  0.00  0.00    +0.000 A 
ATOM     29  C   UNL     1       2.628  16.029  18.453  0.00  0.00    +0.000 A 
ATOM     30  C   UNL     1       2.827  14.671  18.222  0.00  0.00    +0.000 A 
ATOM     31  C   UNL     1       1.748  13.798  18.294  0.00  0.00    +0.000 A 
ATOM     32  F   UNL     1       1.954  12.494  18.057  0.00  0.00    +0.000 F 
ENDBRANCH  25  26
ENDBRANCH  10  25
TORSDOF 5
ENDMDL
