MODEL 1
REMARK VINA RESULT:      -7.5      0.000      0.000
REMARK  Name = 
REMARK  2 active torsions:
REMARK  status: ('A' for Active; 'I' for Inactive)
REMARK    1  A    between atoms: C_2  and  C_3
REMARK    2  A    between atoms: C_6  and  C_8
REMARK                            x       y       z     vdW  Elec       q    Type
REMARK                         _______ _______ _______ _____ _____    ______ ____
ROOT
ATOM      1  C   UNL     1       2.553   6.008  19.507  0.00  0.00    +0.000 A 
ATOM      2  C   UNL     1       3.698   6.032  18.738  0.00  0.00    +0.000 A 
ATOM      3  N   UNL     1       3.921   4.768  18.194  0.00  0.00    +0.000 N 
ATOM      4  C   UNL     1       5.044   4.372  17.423  0.00  0.00    +0.000 C 
ATOM      5  O   UNL     1       4.972   3.422  16.657  0.00  0.00    +0.000 OA
ATOM      6  C   UNL     1       2.846   3.963  18.582  0.00  0.00    +0.000 A 
ATOM      7  N   UNL     1       2.677   2.661  18.268  0.00  0.00    +0.000 NA
ATOM      8  C   UNL     1       1.571   2.100  18.806  0.00  0.00    +0.000 A 
ATOM      9  C   UNL     1       0.663   2.738  19.635  0.00  0.00    +0.000 A 
ATOM     10  C   UNL     1       0.879   4.074  19.959  0.00  0.00    +0.000 A 
ATOM     11  C   UNL     1       2.008   4.710  19.412  0.00  0.00    +0.000 A 
ENDROOT
BRANCH   4  12
ATOM     12  C   UNL     1       6.276   5.250  17.613  0.00  0.00    +0.000 C 
ATOM     13  C   UNL     1       6.724   5.411  19.074  0.00  0.00    +0.000 C 
ATOM     14  C   UNL     1       8.068   6.149  19.116  0.00  0.00    +0.000 C 
ATOM     15  C   UNL     1       8.026   7.495  18.385  0.00  0.00    +0.000 C 
ATOM     16  C   UNL     1       7.404   7.394  16.994  0.00  0.00    +0.000 C 
ATOM     17  C   UNL     1       6.067   6.663  17.038  0.00  0.00    +0.000 C 
ENDBRANCH   4  12
BRANCH   1  19
ATOM     18  N   UNL     1       1.639   8.021  20.848  0.00  0.00    +0.000 NA
ATOM     19  C   UNL     1       2.047   7.115  20.248  0.00  0.00    +0.000 C 
ENDBRANCH   1  19
TORSDOF 2
ENDMDL
MODEL 2
REMARK VINA RESULT:      -7.5      2.306      5.692
REMARK  Name = 
REMARK  2 active torsions:
REMARK  status: ('A' for Active; 'I' for Inactive)
REMARK    1  A    between atoms: C_2  and  C_3
REMARK    2  A    between atoms: C_6  and  C_8
REMARK                            x       y       z     vdW  Elec       q    Type
REMARK                         _______ _______ _______ _____ _____    ______ ____
ROOT
ATOM      1  C   UNL     1       6.670   5.264  17.831  0.00  0.00    +0.000 A 
ATOM      2  C   UNL     1       5.702   4.526  18.479  0.00  0.00    +0.000 A 
ATOM      3  N   UNL     1       4.979   3.783  17.546  0.00  0.00    +0.000 N 
ATOM      4  C   UNL     1       3.846   2.973  17.814  0.00  0.00    +0.000 C 
ATOM      5  O   UNL     1       3.539   2.059  17.062  0.00  0.00    +0.000 OA
ATOM      6  C   UNL     1       5.564   4.018  16.299  0.00  0.00    +0.000 A 
ATOM      7  N   UNL     1       5.162   3.490  15.123  0.00  0.00    +0.000 NA
ATOM      8  C   UNL     1       5.873   3.913  14.054  0.00  0.00    +0.000 A 
ATOM      9  C   UNL     1       6.917   4.823  14.085  0.00  0.00    +0.000 A 
ATOM     10  C   UNL     1       7.292   5.366  15.311  0.00  0.00    +0.000 A 
ATOM     11  C   UNL     1       6.593   4.948  16.458  0.00  0.00    +0.000 A 
ENDROOT
BRANCH   4  12
ATOM     12  C   UNL     1       3.117   3.322  19.107  0.00  0.00    +0.000 C 
ATOM     13  C   UNL     1       3.347   2.329  20.256  0.00  0.00    +0.000 C 
ATOM     14  C   UNL     1       2.723   2.885  21.543  0.00  0.00    +0.000 C 
ATOM     15  C   UNL     1       1.239   3.229  21.379  0.00  0.00    +0.000 C 
ATOM     16  C   UNL     1       0.958   4.060  20.130  0.00  0.00    +0.000 C 
ATOM     17  C   UNL     1       1.596   3.435  18.895  0.00  0.00    +0.000 C 
ENDBRANCH   4  12
BRANCH   1  19
ATOM     18  N   UNL     1       8.298   6.904  18.990  0.00  0.00    +0.000 NA
ATOM     19  C   UNL     1       7.565   6.171  18.469  0.00  0.00    +0.000 C 
ENDBRANCH   1  19
TORSDOF 2
ENDMDL
MODEL 3
REMARK VINA RESULT:      -7.3      3.570      5.922
REMARK  Name = 
REMARK  2 active torsions:
REMARK  status: ('A' for Active; 'I' for Inactive)
REMARK    1  A    between atoms: C_2  and  C_3
REMARK    2  A    between atoms: C_6  and  C_8
REMARK                            x       y       z     vdW  Elec       q    Type
REMARK                         _______ _______ _______ _____ _____    ______ ____
ROOT
ATOM      1  C   UNL     1       0.984   8.970  21.466  0.00  0.00    +0.000 A 
ATOM      2  C   UNL     1       1.424   7.690  21.202  0.00  0.00    +0.000 A 
ATOM      3  N   UNL     1       1.862   7.610  19.881  0.00  0.00    +0.000 N 
ATOM      4  C   UNL     1       2.301   6.439  19.211  0.00  0.00    +0.000 C 
ATOM      5  O   UNL     1       3.037   6.515  18.238  0.00  0.00    +0.000 OA
ATOM      6  C   UNL     1       1.753   8.893  19.338  0.00  0.00    +0.000 A 
ATOM      7  N   UNL     1       2.071   9.250  18.075  0.00  0.00    +0.000 NA
ATOM      8  C   UNL     1       1.830  10.549  17.790  0.00  0.00    +0.000 A 
ATOM      9  C   UNL     1       1.284  11.480  18.657  0.00  0.00    +0.000 A 
ATOM     10  C   UNL     1       0.945  11.075  19.944  0.00  0.00    +0.000 A 
ATOM     11  C   UNL     1       1.189   9.735  20.299  0.00  0.00    +0.000 A 
ENDROOT
BRANCH   4  12
ATOM     12  C   UNL     1       1.814   5.137  19.838  0.00  0.00    +0.000 C 
ATOM     13  C   UNL     1       2.785   4.517  20.855  0.00  0.00    +0.000 C 
ATOM     14  C   UNL     1       2.107   3.329  21.548  0.00  0.00    +0.000 C 
ATOM     15  C   UNL     1       1.583   2.286  20.556  0.00  0.00    +0.000 C 
ATOM     16  C   UNL     1       0.769   2.904  19.422  0.00  0.00    +0.000 C 
ATOM     17  C   UNL     1       1.516   4.065  18.775  0.00  0.00    +0.000 C 
ENDBRANCH   4  12
BRANCH   1  19
ATOM     18  N   UNL     1      -0.021   9.746  23.718  0.00  0.00    +0.000 NA
ATOM     19  C   UNL     1       0.427   9.399  22.705  0.00  0.00    +0.000 C 
ENDBRANCH   1  19
TORSDOF 2
ENDMDL
MODEL 4
REMARK VINA RESULT:      -7.2      0.707      1.327
REMARK  Name = 
REMARK  2 active torsions:
REMARK  status: ('A' for Active; 'I' for Inactive)
REMARK    1  A    between atoms: C_2  and  C_3
REMARK    2  A    between atoms: C_6  and  C_8
REMARK                            x       y       z     vdW  Elec       q    Type
REMARK                         _______ _______ _______ _____ _____    ______ ____
ROOT
ATOM      1  C   UNL     1       2.094   6.005  20.030  0.00  0.00    +0.000 A 
ATOM      2  C   UNL     1       3.223   6.272  19.284  0.00  0.00    +0.000 A 
ATOM      3  N   UNL     1       3.695   5.091  18.714  0.00  0.00    +0.000 N 
ATOM      4  C   UNL     1       4.884   4.942  17.955  0.00  0.00    +0.000 C 
ATOM      5  O   UNL     1       5.010   4.018  17.165  0.00  0.00    +0.000 OA
ATOM      6  C   UNL     1       2.791   4.083  19.060  0.00  0.00    +0.000 A 
ATOM      7  N   UNL     1       2.882   2.782  18.711  0.00  0.00    +0.000 NA
ATOM      8  C   UNL     1       1.899   2.003  19.213  0.00  0.00    +0.000 A 
ATOM      9  C   UNL     1       0.872   2.429  20.039  0.00  0.00    +0.000 A 
ATOM     10  C   UNL     1       0.820   3.772  20.400  0.00  0.00    +0.000 A 
ATOM     11  C   UNL     1       1.812   4.630  19.892  0.00  0.00    +0.000 A 
ENDROOT
BRANCH   4  12
ATOM     12  C   UNL     1       5.920   6.036  18.191  0.00  0.00    +0.000 C 
ATOM     13  C   UNL     1       6.108   7.000  17.010  0.00  0.00    +0.000 C 
ATOM     14  C   UNL     1       7.024   8.154  17.435  0.00  0.00    +0.000 C 
ATOM     15  C   UNL     1       8.368   7.669  17.989  0.00  0.00    +0.000 C 
ATOM     16  C   UNL     1       8.214   6.567  19.033  0.00  0.00    +0.000 C 
ATOM     17  C   UNL     1       7.304   5.452  18.531  0.00  0.00    +0.000 C 
ENDBRANCH   4  12
BRANCH   1  19
ATOM     18  N   UNL     1       0.789   7.765  21.403  0.00  0.00    +0.000 NA
ATOM     19  C   UNL     1       1.372   6.973  20.788  0.00  0.00    +0.000 C 
ENDBRANCH   1  19
TORSDOF 2
ENDMDL
MODEL 5
REMARK VINA RESULT:      -7.2      2.481      3.657
REMARK  Name = 
REMARK  2 active torsions:
REMARK  status: ('A' for Active; 'I' for Inactive)
REMARK    1  A    between atoms: C_2  and  C_3
REMARK    2  A    between atoms: C_6  and  C_8
REMARK                            x       y       z     vdW  Elec       q    Type
REMARK                         _______ _______ _______ _____ _____    ______ ____
ROOT
ATOM      1  C   UNL     1       4.510   2.518  20.287  0.00  0.00    +0.000 A 
ATOM      2  C   UNL     1       5.032   3.325  19.298  0.00  0.00    +0.000 A 
ATOM      3  N   UNL     1       4.032   4.160  18.801  0.00  0.00    +0.000 N 
ATOM      4  C   UNL     1       4.157   5.066  17.716  0.00  0.00    +0.000 C 
ATOM      5  O   UNL     1       3.407   6.026  17.615  0.00  0.00    +0.000 OA
ATOM      6  C   UNL     1       2.882   3.909  19.554  0.00  0.00    +0.000 A 
ATOM      7  N   UNL     1       1.682   4.507  19.392  0.00  0.00    +0.000 NA
ATOM      8  C   UNL     1       0.719   4.051  20.224  0.00  0.00    +0.000 A 
ATOM      9  C   UNL     1       0.872   3.046  21.164  0.00  0.00    +0.000 A 
ATOM     10  C   UNL     1       2.115   2.433  21.290  0.00  0.00    +0.000 A 
ATOM     11  C   UNL     1       3.157   2.881  20.457  0.00  0.00    +0.000 A 
ENDROOT
BRANCH   4  12
ATOM     12  C   UNL     1       5.303   4.748  16.763  0.00  0.00    +0.000 C 
ATOM     13  C   UNL     1       6.340   5.873  16.617  0.00  0.00    +0.000 C 
ATOM     14  C   UNL     1       7.529   5.366  15.790  0.00  0.00    +0.000 C 
ATOM     15  C   UNL     1       7.106   4.806  14.429  0.00  0.00    +0.000 C 
ATOM     16  C   UNL     1       5.941   3.824  14.528  0.00  0.00    +0.000 C 
ATOM     17  C   UNL     1       4.796   4.406  15.350  0.00  0.00    +0.000 C 
ENDBRANCH   4  12
BRANCH   1  19
ATOM     18  N   UNL     1       5.833   0.690  21.548  0.00  0.00    +0.000 NA
ATOM     19  C   UNL     1       5.238   1.512  20.985  0.00  0.00    +0.000 C 
ENDBRANCH   1  19
TORSDOF 2
ENDMDL
MODEL 6
REMARK VINA RESULT:      -7.2      2.785      5.809
REMARK  Name = 
REMARK  2 active torsions:
REMARK  status: ('A' for Active; 'I' for Inactive)
REMARK    1  A    between atoms: C_2  and  C_3
REMARK    2  A    between atoms: C_6  and  C_8
REMARK                            x       y       z     vdW  Elec       q    Type
REMARK                         _______ _______ _______ _____ _____    ______ ____
ROOT
ATOM      1  C   UNL     1       2.335   4.633  20.583  0.00  0.00    +0.000 A 
ATOM      2  C   UNL     1       1.614   5.800  20.445  0.00  0.00    +0.000 A 
ATOM      3  N   UNL     1       2.288   6.666  19.586  0.00  0.00    +0.000 N 
ATOM      4  C   UNL     1       1.910   7.996  19.267  0.00  0.00    +0.000 C 
ATOM      5  O   UNL     1       2.289   8.522  18.231  0.00  0.00    +0.000 OA
ATOM      6  C   UNL     1       3.419   5.985  19.129  0.00  0.00    +0.000 A 
ATOM      7  N   UNL     1       4.348   6.472  18.277  0.00  0.00    +0.000 NA
ATOM      8  C   UNL     1       5.370   5.624  18.028  0.00  0.00    +0.000 A 
ATOM      9  C   UNL     1       5.528   4.364  18.580  0.00  0.00    +0.000 A 
ATOM     10  C   UNL     1       4.566   3.901  19.472  0.00  0.00    +0.000 A 
ATOM     11  C   UNL     1       3.472   4.739  19.755  0.00  0.00    +0.000 A 
ENDROOT
BRANCH   4  12
ATOM     12  C   UNL     1       0.986   8.647  20.290  0.00  0.00    +0.000 C 
ATOM     13  C   UNL     1       0.408  10.003  19.854  0.00  0.00    +0.000 C 
ATOM     14  C   UNL     1      -0.642  10.461  20.874  0.00  0.00    +0.000 C 
ATOM     15  C   UNL     1      -0.096  10.511  22.304  0.00  0.00    +0.000 C 
ATOM     16  C   UNL     1       0.655   9.241  22.697  0.00  0.00    +0.000 C 
ATOM     17  C   UNL     1       1.689   8.862  21.643  0.00  0.00    +0.000 C 
ENDBRANCH   4  12
BRANCH   1  19
ATOM     18  N   UNL     1       1.658   2.657  22.107  0.00  0.00    +0.000 NA
ATOM     19  C   UNL     1       1.964   3.542  21.422  0.00  0.00    +0.000 C 
ENDBRANCH   1  19
TORSDOF 2
ENDMDL
MODEL 7
REMARK VINA RESULT:      -7.1      2.613      4.939
REMARK  Name = 
REMARK  2 active torsions:
REMARK  status: ('A' for Active; 'I' for Inactive)
REMARK    1  A    between atoms: C_2  and  C_3
REMARK    2  A    between atoms: C_6  and  C_8
REMARK                            x       y       z     vdW  Elec       q    Type
REMARK                         _______ _______ _______ _____ _____    ______ ____
ROOT
ATOM      1  C   UNL     1       4.236   5.620  17.305  0.00  0.00    +0.000 A 
ATOM      2  C   UNL     1       3.767   6.600  18.153  0.00  0.00    +0.000 A 
ATOM      3  N   UNL     1       2.779   6.068  18.980  0.00  0.00    +0.000 N 
ATOM      4  C   UNL     1       1.995   6.784  19.921  0.00  0.00    +0.000 C 
ATOM      5  O   UNL     1       1.476   6.210  20.867  0.00  0.00    +0.000 OA
ATOM      6  C   UNL     1       2.689   4.706  18.680  0.00  0.00    +0.000 A 
ATOM      7  N   UNL     1       1.847   3.821  19.256  0.00  0.00    +0.000 NA
ATOM      8  C   UNL     1       1.930   2.569  18.753  0.00  0.00    +0.000 A 
ATOM      9  C   UNL     1       2.763   2.165  17.723  0.00  0.00    +0.000 A 
ATOM     10  C   UNL     1       3.602   3.107  17.135  0.00  0.00    +0.000 A 
ATOM     11  C   UNL     1       3.566   4.422  17.631  0.00  0.00    +0.000 A 
ENDROOT
BRANCH   4  12
ATOM     12  C   UNL     1       1.916   8.284  19.659  0.00  0.00    +0.000 C 
ATOM     13  C   UNL     1       0.866   9.023  20.502  0.00  0.00    +0.000 C 
ATOM     14  C   UNL     1       1.013  10.535  20.289  0.00  0.00    +0.000 C 
ATOM     15  C   UNL     1       0.936  10.933  18.811  0.00  0.00    +0.000 C 
ATOM     16  C   UNL     1       1.834  10.079  17.920  0.00  0.00    +0.000 C 
ATOM     17  C   UNL     1       1.618   8.592  18.181  0.00  0.00    +0.000 C 
ENDBRANCH   4  12
BRANCH   1  19
ATOM     18  N   UNL     1       6.026   5.989  15.476  0.00  0.00    +0.000 NA
ATOM     19  C   UNL     1       5.221   5.821  16.294  0.00  0.00    +0.000 C 
ENDBRANCH   1  19
TORSDOF 2
ENDMDL
MODEL 8
REMARK VINA RESULT:      -7.1      1.811      2.472
REMARK  Name = 
REMARK  2 active torsions:
REMARK  status: ('A' for Active; 'I' for Inactive)
REMARK    1  A    between atoms: C_2  and  C_3
REMARK    2  A    between atoms: C_6  and  C_8
REMARK                            x       y       z     vdW  Elec       q    Type
REMARK                         _______ _______ _______ _____ _____    ______ ____
ROOT
ATOM      1  C   UNL     1       2.573   6.091  19.042  0.00  0.00    +0.000 A 
ATOM      2  C   UNL     1       3.225   5.630  17.917  0.00  0.00    +0.000 A 
ATOM      3  N   UNL     1       3.518   4.276  18.069  0.00  0.00    +0.000 N 
ATOM      4  C   UNL     1       4.261   3.471  17.168  0.00  0.00    +0.000 C 
ATOM      5  O   UNL     1       4.121   2.257  17.153  0.00  0.00    +0.000 OA
ATOM      6  C   UNL     1       2.969   3.876  19.291  0.00  0.00    +0.000 A 
ATOM      7  N   UNL     1       3.031   2.636  19.820  0.00  0.00    +0.000 NA
ATOM      8  C   UNL     1       2.455   2.523  21.038  0.00  0.00    +0.000 A 
ATOM      9  C   UNL     1       1.859   3.551  21.748  0.00  0.00    +0.000 A 
ATOM     10  C   UNL     1       1.831   4.824  21.185  0.00  0.00    +0.000 A 
ATOM     11  C   UNL     1       2.404   4.992  19.911  0.00  0.00    +0.000 A 
ENDROOT
BRANCH   4  12
ATOM     12  C   UNL     1       5.175   4.256  16.233  0.00  0.00    +0.000 C 
ATOM     13  C   UNL     1       5.467   3.559  14.895  0.00  0.00    +0.000 C 
ATOM     14  C   UNL     1       6.232   4.521  13.977  0.00  0.00    +0.000 C 
ATOM     15  C   UNL     1       7.510   5.065  14.623  0.00  0.00    +0.000 C 
ATOM     16  C   UNL     1       7.280   5.591  16.038  0.00  0.00    +0.000 C 
ATOM     17  C   UNL     1       6.530   4.574  16.891  0.00  0.00    +0.000 C 
ENDBRANCH   4  12
BRANCH   1  19
ATOM     18  N   UNL     1       1.828   8.539  19.411  0.00  0.00    +0.000 NA
ATOM     19  C   UNL     1       2.162   7.439  19.249  0.00  0.00    +0.000 C 
ENDBRANCH   1  19
TORSDOF 2
ENDMDL
MODEL 9
REMARK VINA RESULT:      -6.9      3.360      5.737
REMARK  Name = 
REMARK  2 active torsions:
REMARK  status: ('A' for Active; 'I' for Inactive)
REMARK    1  A    between atoms: C_2  and  C_3
REMARK    2  A    between atoms: C_6  and  C_8
REMARK                            x       y       z     vdW  Elec       q    Type
REMARK                         _______ _______ _______ _____ _____    ______ ____
ROOT
ATOM      1  C   UNL     1       0.687   9.392  21.374  0.00  0.00    +0.000 A 
ATOM      2  C   UNL     1       1.629   8.628  20.717  0.00  0.00    +0.000 A 
ATOM      3  N   UNL     1       1.483   8.791  19.340  0.00  0.00    +0.000 N 
ATOM      4  C   UNL     1       2.205   8.102  18.332  0.00  0.00    +0.000 C 
ATOM      5  O   UNL     1       2.325   8.578  17.212  0.00  0.00    +0.000 OA
ATOM      6  C   UNL     1       0.471   9.734  19.147  0.00  0.00    +0.000 A 
ATOM      7  N   UNL     1       0.014  10.176  17.956  0.00  0.00    +0.000 NA
ATOM      8  C   UNL     1      -1.004  11.060  18.045  0.00  0.00    +0.000 A 
ATOM      9  C   UNL     1      -1.593  11.499  19.220  0.00  0.00    +0.000 A 
ATOM     10  C   UNL     1      -1.114  11.007  20.431  0.00  0.00    +0.000 A 
ATOM     11  C   UNL     1      -0.044  10.095  20.394  0.00  0.00    +0.000 A 
ENDROOT
BRANCH   4  12
ATOM     12  C   UNL     1       2.825   6.787  18.792  0.00  0.00    +0.000 C 
ATOM     13  C   UNL     1       4.179   6.460  18.144  0.00  0.00    +0.000 C 
ATOM     14  C   UNL     1       4.783   5.223  18.821  0.00  0.00    +0.000 C 
ATOM     15  C   UNL     1       3.839   4.017  18.799  0.00  0.00    +0.000 C 
ATOM     16  C   UNL     1       2.425   4.363  19.261  0.00  0.00    +0.000 C 
ATOM     17  C   UNL     1       1.891   5.591  18.532  0.00  0.00    +0.000 C 
ENDBRANCH   4  12
BRANCH   1  19
ATOM     18  N   UNL     1       0.386   9.469  23.941  0.00  0.00    +0.000 NA
ATOM     19  C   UNL     1       0.517   9.434  22.788  0.00  0.00    +0.000 C 
ENDBRANCH   1  19
TORSDOF 2
ENDMDL
