MODEL 1
REMARK VINA RESULT:      -7.2      0.000      0.000
REMARK  Name = 
REMARK  4 active torsions:
REMARK  status: ('A' for Active; 'I' for Inactive)
REMARK    1  A    between atoms: C_1  and  C_2
REMARK    2  A    between atoms: C_5  and  S_6
REMARK    3  A    between atoms: S_6  and  C_7
REMARK    4  A    between atoms: C_7  and  C_8
REMARK                            x       y       z     vdW  Elec       q    Type
REMARK                         _______ _______ _______ _____ _____    ______ ____
ROOT
ATOM      1  C   UNL     1       6.877   4.820  17.768  0.00  0.00    +0.000 C 
ENDROOT
BRANCH   1   2
ATOM      2  C   UNL     1       6.801   4.605  16.286  0.00  0.00    +0.000 A 
ATOM      3  C   UNL     1       6.003   3.728  15.573  0.00  0.00    +0.000 A 
ATOM      4  N   UNL     1       6.334   3.898  14.255  0.00  0.00    +0.000 N 
ATOM      5  C   UNL     1       5.843   3.247  13.124  0.00  0.00    +0.000 A 
ATOM      6  C   UNL     1       6.314   3.587  11.913  0.00  0.00    +0.000 A 
ATOM      7  C   UNL     1       7.327   4.629  11.821  0.00  0.00    +0.000 A 
ATOM      8  C   UNL     1       7.801   5.250  12.921  0.00  0.00    +0.000 A 
ATOM      9  C   UNL     1       7.302   4.893  14.209  0.00  0.00    +0.000 A 
ATOM     10  N   UNL     1       7.589   5.338  15.417  0.00  0.00    +0.000 NA
ENDBRANCH   1   2
BRANCH   1  11
ATOM     11  S   UNL     1       5.531   5.935  18.316  0.00  0.00    +0.000 S 
BRANCH  11  16
ATOM     12  C   UNL     1       0.682   2.247  18.808  0.00  0.00    +0.000 C 
ATOM     13  C   UNL     1       1.867   3.153  18.638  0.00  0.00    +0.000 A 
ATOM     14  C   UNL     1       3.127   2.779  19.111  0.00  0.00    +0.000 A 
ATOM     15  C   UNL     1       4.218   3.639  18.966  0.00  0.00    +0.000 A 
ATOM     16  C   UNL     1       4.083   4.887  18.342  0.00  0.00    +0.000 A 
ATOM     17  C   UNL     1       2.822   5.262  17.872  0.00  0.00    +0.000 A 
ATOM     18  C   UNL     1       1.723   4.400  18.018  0.00  0.00    +0.000 A 
ENDBRANCH  11  16
ENDBRANCH   1  11
TORSDOF 3
ENDMDL
MODEL 2
REMARK VINA RESULT:      -7.2      1.205      1.594
REMARK  Name = 
REMARK  4 active torsions:
REMARK  status: ('A' for Active; 'I' for Inactive)
REMARK    1  A    between atoms: C_1  and  C_2
REMARK    2  A    between atoms: C_5  and  S_6
REMARK    3  A    between atoms: S_6  and  C_7
REMARK    4  A    between atoms: C_7  and  C_8
REMARK                            x       y       z     vdW  Elec       q    Type
REMARK                         _______ _______ _______ _____ _____    ______ ____
ROOT
ATOM      1  C   UNL     1       6.576   4.940  17.702  0.00  0.00    +0.000 C 
ENDROOT
BRANCH   1   2
ATOM      2  C   UNL     1       6.611   4.698  16.223  0.00  0.00    +0.000 A 
ATOM      3  C   UNL     1       5.875   3.800  15.470  0.00  0.00    +0.000 A 
ATOM      4  N   UNL     1       6.300   3.951  14.177  0.00  0.00    +0.000 N 
ATOM      5  C   UNL     1       5.898   3.275  13.025  0.00  0.00    +0.000 A 
ATOM      6  C   UNL     1       6.455   3.597  11.845  0.00  0.00    +0.000 A 
ATOM      7  C   UNL     1       7.463   4.647  11.809  0.00  0.00    +0.000 A 
ATOM      8  C   UNL     1       7.850   5.293  12.929  0.00  0.00    +0.000 A 
ATOM      9  C   UNL     1       7.261   4.953  14.184  0.00  0.00    +0.000 A 
ATOM     10  N   UNL     1       7.455   5.422  15.401  0.00  0.00    +0.000 NA
ENDBRANCH   1   2
BRANCH   1  11
ATOM     11  S   UNL     1       5.137   5.985  18.140  0.00  0.00    +0.000 S 
BRANCH  11  16
ATOM     12  C   UNL     1       1.432   2.625  21.650  0.00  0.00    +0.000 C 
ATOM     13  C   UNL     1       2.379   3.436  20.816  0.00  0.00    +0.000 A 
ATOM     14  C   UNL     1       2.199   4.812  20.662  0.00  0.00    +0.000 A 
ATOM     15  C   UNL     1       3.076   5.554  19.866  0.00  0.00    +0.000 A 
ATOM     16  C   UNL     1       4.155   4.945  19.211  0.00  0.00    +0.000 A 
ATOM     17  C   UNL     1       4.333   3.568  19.363  0.00  0.00    +0.000 A 
ATOM     18  C   UNL     1       3.453   2.820  20.161  0.00  0.00    +0.000 A 
ENDBRANCH  11  16
ENDBRANCH   1  11
TORSDOF 3
ENDMDL
MODEL 3
REMARK VINA RESULT:      -7.2      0.169      1.132
REMARK  Name = 
REMARK  4 active torsions:
REMARK  status: ('A' for Active; 'I' for Inactive)
REMARK    1  A    between atoms: C_1  and  C_2
REMARK    2  A    between atoms: C_5  and  S_6
REMARK    3  A    between atoms: S_6  and  C_7
REMARK    4  A    between atoms: C_7  and  C_8
REMARK                            x       y       z     vdW  Elec       q    Type
REMARK                         _______ _______ _______ _____ _____    ______ ____
ROOT
ATOM      1  C   UNL     1       6.829   4.897  17.785  0.00  0.00    +0.000 C 
ENDROOT
BRANCH   1   2
ATOM      2  C   UNL     1       6.753   4.660  16.306  0.00  0.00    +0.000 A 
ATOM      3  C   UNL     1       5.920   3.810  15.602  0.00  0.00    +0.000 A 
ATOM      4  N   UNL     1       6.268   3.942  14.284  0.00  0.00    +0.000 N 
ATOM      5  C   UNL     1       5.754   3.296  13.160  0.00  0.00    +0.000 A 
ATOM      6  C   UNL     1       6.250   3.591  11.947  0.00  0.00    +0.000 A 
ATOM      7  C   UNL     1       7.313   4.582  11.845  0.00  0.00    +0.000 A 
ATOM      8  C   UNL     1       7.808   5.199  12.939  0.00  0.00    +0.000 A 
ATOM      9  C   UNL     1       7.283   4.888  14.229  0.00  0.00    +0.000 A 
ATOM     10  N   UNL     1       7.582   5.339  15.432  0.00  0.00    +0.000 NA
ENDBRANCH   1   2
BRANCH   1  11
ATOM     11  S   UNL     1       5.468   6.001  18.320  0.00  0.00    +0.000 S 
BRANCH  11  16
ATOM     12  C   UNL     1       0.678   2.232  18.771  0.00  0.00    +0.000 C 
ATOM     13  C   UNL     1       1.852   3.165  18.709  0.00  0.00    +0.000 A 
ATOM     14  C   UNL     1       1.818   4.305  17.902  0.00  0.00    +0.000 A 
ATOM     15  C   UNL     1       2.926   5.155  17.836  0.00  0.00    +0.000 A 
ATOM     16  C   UNL     1       4.087   4.895  18.575  0.00  0.00    +0.000 A 
ATOM     17  C   UNL     1       4.122   3.754  19.379  0.00  0.00    +0.000 A 
ATOM     18  C   UNL     1       3.012   2.896  19.446  0.00  0.00    +0.000 A 
ENDBRANCH  11  16
ENDBRANCH   1  11
TORSDOF 3
ENDMDL
MODEL 4
REMARK VINA RESULT:      -7.0      1.273      1.295
REMARK  Name = 
REMARK  4 active torsions:
REMARK  status: ('A' for Active; 'I' for Inactive)
REMARK    1  A    between atoms: C_1  and  C_2
REMARK    2  A    between atoms: C_5  and  S_6
REMARK    3  A    between atoms: S_6  and  C_7
REMARK    4  A    between atoms: C_7  and  C_8
REMARK                            x       y       z     vdW  Elec       q    Type
REMARK                         _______ _______ _______ _____ _____    ______ ____
ROOT
ATOM      1  C   UNL     1       6.188   5.223  17.687  0.00  0.00    +0.000 C 
ENDROOT
BRANCH   1   2
ATOM      2  C   UNL     1       6.324   4.902  16.229  0.00  0.00    +0.000 A 
ATOM      3  C   UNL     1       5.602   4.003  15.464  0.00  0.00    +0.000 A 
ATOM      4  N   UNL     1       6.134   4.064  14.203  0.00  0.00    +0.000 N 
ATOM      5  C   UNL     1       5.788   3.350  13.057  0.00  0.00    +0.000 A 
ATOM      6  C   UNL     1       6.450   3.582  11.912  0.00  0.00    +0.000 A 
ATOM      7  C   UNL     1       7.512   4.578  11.905  0.00  0.00    +0.000 A 
ATOM      8  C   UNL     1       7.844   5.262  13.020  0.00  0.00    +0.000 A 
ATOM      9  C   UNL     1       7.143   5.018  14.238  0.00  0.00    +0.000 A 
ATOM     10  N   UNL     1       7.266   5.541  15.443  0.00  0.00    +0.000 NA
ENDBRANCH   1   2
BRANCH   1  11
ATOM     11  S   UNL     1       4.707   6.263  17.971  0.00  0.00    +0.000 S 
BRANCH  11  16
ATOM     12  C   UNL     1       1.513   2.629  21.706  0.00  0.00    +0.000 C 
ATOM     13  C   UNL     1       2.255   3.535  20.767  0.00  0.00    +0.000 A 
ATOM     14  C   UNL     1       3.252   3.033  19.927  0.00  0.00    +0.000 A 
ATOM     15  C   UNL     1       3.950   3.890  19.072  0.00  0.00    +0.000 A 
ATOM     16  C   UNL     1       3.670   5.262  19.029  0.00  0.00    +0.000 A 
ATOM     17  C   UNL     1       2.675   5.764  19.871  0.00  0.00    +0.000 A 
ATOM     18  C   UNL     1       1.973   4.906  20.733  0.00  0.00    +0.000 A 
ENDBRANCH  11  16
ENDBRANCH   1  11
TORSDOF 3
ENDMDL
MODEL 5
REMARK VINA RESULT:      -6.9      2.293      6.437
REMARK  Name = 
REMARK  4 active torsions:
REMARK  status: ('A' for Active; 'I' for Inactive)
REMARK    1  A    between atoms: C_1  and  C_2
REMARK    2  A    between atoms: C_5  and  S_6
REMARK    3  A    between atoms: S_6  and  C_7
REMARK    4  A    between atoms: C_7  and  C_8
REMARK                            x       y       z     vdW  Elec       q    Type
REMARK                         _______ _______ _______ _____ _____    ______ ____
ROOT
ATOM      1  C   UNL     1       6.688   4.930  18.618  0.00  0.00    +0.000 C 
ENDROOT
BRANCH   1   2
ATOM      2  C   UNL     1       5.312   4.555  19.079  0.00  0.00    +0.000 A 
ATOM      3  C   UNL     1       4.744   3.298  19.192  0.00  0.00    +0.000 A 
ATOM      4  N   UNL     1       3.462   3.499  19.630  0.00  0.00    +0.000 N 
ATOM      5  C   UNL     1       2.455   2.569  19.887  0.00  0.00    +0.000 A 
ATOM      6  C   UNL     1       1.258   2.998  20.321  0.00  0.00    +0.000 A 
ATOM      7  C   UNL     1       1.052   4.427  20.511  0.00  0.00    +0.000 A 
ATOM      8  C   UNL     1       2.031   5.321  20.255  0.00  0.00    +0.000 A 
ATOM      9  C   UNL     1       3.303   4.869  19.794  0.00  0.00    +0.000 A 
ATOM     10  N   UNL     1       4.406   5.520  19.479  0.00  0.00    +0.000 NA
ENDBRANCH   1   2
BRANCH   1  11
ATOM     11  S   UNL     1       6.591   6.211  17.311  0.00  0.00    +0.000 S 
BRANCH  11  16
ATOM     12  C   UNL     1       5.758   3.147  12.089  0.00  0.00    +0.000 C 
ATOM     13  C   UNL     1       6.003   3.872  13.380  0.00  0.00    +0.000 A 
ATOM     14  C   UNL     1       5.033   3.890  14.385  0.00  0.00    +0.000 A 
ATOM     15  C   UNL     1       5.263   4.586  15.575  0.00  0.00    +0.000 A 
ATOM     16  C   UNL     1       6.465   5.274  15.794  0.00  0.00    +0.000 A 
ATOM     17  C   UNL     1       7.433   5.258  14.788  0.00  0.00    +0.000 A 
ATOM     18  C   UNL     1       7.203   4.561  13.590  0.00  0.00    +0.000 A 
ENDBRANCH  11  16
ENDBRANCH   1  11
TORSDOF 3
ENDMDL
MODEL 6
REMARK VINA RESULT:      -6.9      2.282      6.523
REMARK  Name = 
REMARK  4 active torsions:
REMARK  status: ('A' for Active; 'I' for Inactive)
REMARK    1  A    between atoms: C_1  and  C_2
REMARK    2  A    between atoms: C_5  and  S_6
REMARK    3  A    between atoms: S_6  and  C_7
REMARK    4  A    between atoms: C_7  and  C_8
REMARK                            x       y       z     vdW  Elec       q    Type
REMARK                         _______ _______ _______ _____ _____    ______ ____
ROOT
ATOM      1  C   UNL     1       6.858   4.828  18.446  0.00  0.00    +0.000 C 
ENDROOT
BRANCH   1   2
ATOM      2  C   UNL     1       5.472   4.620  18.979  0.00  0.00    +0.000 A 
ATOM      3  C   UNL     1       4.446   5.537  19.118  0.00  0.00    +0.000 A 
ATOM      4  N   UNL     1       3.399   4.854  19.678  0.00  0.00    +0.000 N 
ATOM      5  C   UNL     1       2.134   5.312  20.045  0.00  0.00    +0.000 A 
ATOM      6  C   UNL     1       1.252   4.451  20.579  0.00  0.00    +0.000 A 
ATOM      7  C   UNL     1       1.648   3.061  20.756  0.00  0.00    +0.000 A 
ATOM      8  C   UNL     1       2.877   2.627  20.403  0.00  0.00    +0.000 A 
ATOM      9  C   UNL     1       3.816   3.539  19.835  0.00  0.00    +0.000 A 
ATOM     10  N   UNL     1       5.054   3.375  19.412  0.00  0.00    +0.000 NA
ENDBRANCH   1   2
BRANCH   1  11
ATOM     11  S   UNL     1       6.855   6.139  17.166  0.00  0.00    +0.000 S 
BRANCH  11  16
ATOM     12  C   UNL     1       5.856   3.026  12.003  0.00  0.00    +0.000 C 
ATOM     13  C   UNL     1       6.060   3.816  13.262  0.00  0.00    +0.000 A 
ATOM     14  C   UNL     1       7.226   4.560  13.459  0.00  0.00    +0.000 A 
ATOM     15  C   UNL     1       7.414   5.275  14.645  0.00  0.00    +0.000 A 
ATOM     16  C   UNL     1       6.445   5.272  15.658  0.00  0.00    +0.000 A 
ATOM     17  C   UNL     1       5.281   4.526  15.461  0.00  0.00    +0.000 A 
ATOM     18  C   UNL     1       5.090   3.805  14.272  0.00  0.00    +0.000 A 
ENDBRANCH  11  16
ENDBRANCH   1  11
TORSDOF 3
ENDMDL
MODEL 7
REMARK VINA RESULT:      -6.9      2.341      6.368
REMARK  Name = 
REMARK  4 active torsions:
REMARK  status: ('A' for Active; 'I' for Inactive)
REMARK    1  A    between atoms: C_1  and  C_2
REMARK    2  A    between atoms: C_5  and  S_6
REMARK    3  A    between atoms: S_6  and  C_7
REMARK    4  A    between atoms: C_7  and  C_8
REMARK                            x       y       z     vdW  Elec       q    Type
REMARK                         _______ _______ _______ _____ _____    ______ ____
ROOT
ATOM      1  C   UNL     1       6.539   5.214  18.856  0.00  0.00    +0.000 C 
ENDROOT
BRANCH   1   2
ATOM      2  C   UNL     1       5.176   4.699  19.211  0.00  0.00    +0.000 A 
ATOM      3  C   UNL     1       4.703   3.399  19.183  0.00  0.00    +0.000 A 
ATOM      4  N   UNL     1       3.389   3.465  19.568  0.00  0.00    +0.000 N 
ATOM      5  C   UNL     1       2.447   2.444  19.690  0.00  0.00    +0.000 A 
ATOM      6  C   UNL     1       1.202   2.743  20.097  0.00  0.00    +0.000 A 
ATOM      7  C   UNL     1       0.877   4.130  20.399  0.00  0.00    +0.000 A 
ATOM      8  C   UNL     1       1.794   5.113  20.273  0.00  0.00    +0.000 A 
ATOM      9  C   UNL     1       3.117   4.799  19.842  0.00  0.00    +0.000 A 
ATOM     10  N   UNL     1       4.180   5.555  19.644  0.00  0.00    +0.000 NA
ENDBRANCH   1   2
BRANCH   1  11
ATOM     11  S   UNL     1       6.409   6.526  17.584  0.00  0.00    +0.000 S 
BRANCH  11  16
ATOM     12  C   UNL     1       6.057   3.256  12.433  0.00  0.00    +0.000 C 
ATOM     13  C   UNL     1       6.108   4.088  13.680  0.00  0.00    +0.000 A 
ATOM     14  C   UNL     1       7.298   4.697  14.086  0.00  0.00    +0.000 A 
ATOM     15  C   UNL     1       7.339   5.453  15.260  0.00  0.00    +0.000 A 
ATOM     16  C   UNL     1       6.197   5.626  16.054  0.00  0.00    +0.000 A 
ATOM     17  C   UNL     1       5.008   5.015  15.650  0.00  0.00    +0.000 A 
ATOM     18  C   UNL     1       4.964   4.253  14.471  0.00  0.00    +0.000 A 
ENDBRANCH  11  16
ENDBRANCH   1  11
TORSDOF 3
ENDMDL
MODEL 8
REMARK VINA RESULT:      -6.8      1.245      1.253
REMARK  Name = 
REMARK  4 active torsions:
REMARK  status: ('A' for Active; 'I' for Inactive)
REMARK    1  A    between atoms: C_1  and  C_2
REMARK    2  A    between atoms: C_5  and  S_6
REMARK    3  A    between atoms: S_6  and  C_7
REMARK    4  A    between atoms: C_7  and  C_8
REMARK                            x       y       z     vdW  Elec       q    Type
REMARK                         _______ _______ _______ _____ _____    ______ ____
ROOT
ATOM      1  C   UNL     1       6.553   6.187  17.432  0.00  0.00    +0.000 C 
ENDROOT
BRANCH   1   2
ATOM      2  C   UNL     1       6.449   5.536  16.086  0.00  0.00    +0.000 A 
ATOM      3  C   UNL     1       5.427   4.758  15.572  0.00  0.00    +0.000 A 
ATOM      4  N   UNL     1       5.829   4.382  14.317  0.00  0.00    +0.000 N 
ATOM      5  C   UNL     1       5.181   3.579  13.380  0.00  0.00    +0.000 A 
ATOM      6  C   UNL     1       5.769   3.347  12.194  0.00  0.00    +0.000 A 
ATOM      7  C   UNL     1       7.069   3.946  11.926  0.00  0.00    +0.000 A 
ATOM      8  C   UNL     1       7.691   4.719  12.841  0.00  0.00    +0.000 A 
ATOM      9  C   UNL     1       7.070   4.967  14.101  0.00  0.00    +0.000 A 
ATOM     10  N   UNL     1       7.455   5.672  15.147  0.00  0.00    +0.000 NA
ENDBRANCH   1   2
BRANCH   1  11
ATOM     11  S   UNL     1       6.642   4.915  18.747  0.00  0.00    +0.000 S 
BRANCH  11  16
ATOM     12  C   UNL     1       0.936   3.593  20.492  0.00  0.00    +0.000 C 
ATOM     13  C   UNL     1       2.319   3.940  20.024  0.00  0.00    +0.000 A 
ATOM     14  C   UNL     1       3.271   2.942  19.804  0.00  0.00    +0.000 A 
ATOM     15  C   UNL     1       4.562   3.278  19.388  0.00  0.00    +0.000 A 
ATOM     16  C   UNL     1       4.933   4.613  19.175  0.00  0.00    +0.000 A 
ATOM     17  C   UNL     1       3.981   5.610  19.397  0.00  0.00    +0.000 A 
ATOM     18  C   UNL     1       2.684   5.276  19.817  0.00  0.00    +0.000 A 
ENDBRANCH  11  16
ENDBRANCH   1  11
TORSDOF 3
ENDMDL
MODEL 9
REMARK VINA RESULT:      -6.8      2.333      6.536
REMARK  Name = 
REMARK  4 active torsions:
REMARK  status: ('A' for Active; 'I' for Inactive)
REMARK    1  A    between atoms: C_1  and  C_2
REMARK    2  A    between atoms: C_5  and  S_6
REMARK    3  A    between atoms: S_6  and  C_7
REMARK    4  A    between atoms: C_7  and  C_8
REMARK                            x       y       z     vdW  Elec       q    Type
REMARK                         _______ _______ _______ _____ _____    ______ ____
ROOT
ATOM      1  C   UNL     1       6.558   5.236  18.824  0.00  0.00    +0.000 C 
ENDROOT
BRANCH   1   2
ATOM      2  C   UNL     1       5.164   4.847  19.215  0.00  0.00    +0.000 A 
ATOM      3  C   UNL     1       4.083   5.660  19.507  0.00  0.00    +0.000 A 
ATOM      4  N   UNL     1       3.052   4.818  19.833  0.00  0.00    +0.000 N 
ATOM      5  C   UNL     1       1.749   5.121  20.226  0.00  0.00    +0.000 A 
ATOM      6  C   UNL     1       0.893   4.120  20.493  0.00  0.00    +0.000 A 
ATOM      7  C   UNL     1       1.358   2.746  20.361  0.00  0.00    +0.000 A 
ATOM      8  C   UNL     1       2.623   2.462  19.985  0.00  0.00    +0.000 A 
ATOM      9  C   UNL     1       3.534   3.522  19.701  0.00  0.00    +0.000 A 
ATOM     10  N   UNL     1       4.797   3.518  19.320  0.00  0.00    +0.000 NA
ENDBRANCH   1   2
BRANCH   1  11
ATOM     11  S   UNL     1       6.516   6.463  17.464  0.00  0.00    +0.000 S 
BRANCH  11  16
ATOM     12  C   UNL     1       5.908   3.247  12.303  0.00  0.00    +0.000 C 
ATOM     13  C   UNL     1       6.091   4.005  13.585  0.00  0.00    +0.000 A 
ATOM     14  C   UNL     1       5.015   4.218  14.450  0.00  0.00    +0.000 A 
ATOM     15  C   UNL     1       5.194   4.943  15.632  0.00  0.00    +0.000 A 
ATOM     16  C   UNL     1       6.446   5.466  15.982  0.00  0.00    +0.000 A 
ATOM     17  C   UNL     1       7.521   5.254  15.116  0.00  0.00    +0.000 A 
ATOM     18  C   UNL     1       7.344   4.528  13.927  0.00  0.00    +0.000 A 
ENDBRANCH  11  16
ENDBRANCH   1  11
TORSDOF 3
ENDMDL
