MODEL 1
REMARK VINA RESULT:      -8.4      0.000      0.000
REMARK  Name = 
REMARK  1 active torsions:
REMARK  status: ('A' for Active; 'I' for Inactive)
REMARK    1  A    between atoms: C_6  and  C_7
REMARK                            x       y       z     vdW  Elec       q    Type
REMARK                         _______ _______ _______ _____ _____    ______ ____
ROOT
ATOM      1  C   UNL     1       5.117   4.683  15.810  0.00  0.00    +0.000 A 
ATOM      2  C   UNL     1       4.850   5.901  16.457  0.00  0.00    +0.000 A 
ATOM      3  C   UNL     1       4.024   5.960  17.580  0.00  0.00    +0.000 A 
ATOM      4  F   UNL     1       3.827   7.159  18.144  0.00  0.00    +0.000 F 
ATOM      5  C   UNL     1       3.426   4.807  18.086  0.00  0.00    +0.000 A 
ATOM      6  C   UNL     1       3.660   3.574  17.466  0.00  0.00    +0.000 A 
ATOM      7  C   UNL     1       4.511   3.529  16.345  0.00  0.00    +0.000 A 
ATOM      8  C   UNL     1       3.034   2.284  17.941  0.00  0.00    +0.000 C 
ATOM      9  C   UNL     1       2.125   2.361  19.169  0.00  0.00    +0.000 C 
ATOM     10  C   UNL     1       1.972   3.717  19.736  0.00  0.00    +0.000 A 
ATOM     11  N   UNL     1       1.256   4.060  20.786  0.00  0.00    +0.000 NA
ATOM     12  N   UNL     1       1.392   5.414  20.961  0.00  0.00    +0.000 NA
ATOM     13  C   UNL     1       2.187   5.859  20.014  0.00  0.00    +0.000 A 
ATOM     14  N   UNL     1       2.585   4.829  19.211  0.00  0.00    +0.000 N 
ENDROOT
BRANCH   1  20
ATOM     15  F   UNL     1       6.360   2.826  11.460  0.00  0.00    +0.000 F 
ATOM     16  C   UNL     1       6.592   3.682  12.462  0.00  0.00    +0.000 A 
ATOM     17  C   UNL     1       7.667   4.549  12.412  0.00  0.00    +0.000 A 
ATOM     18  N   UNL     1       7.951   5.429  13.395  0.00  0.00    +0.000 NA
ATOM     19  C   UNL     1       7.116   5.426  14.464  0.00  0.00    +0.000 A 
ATOM     20  C   UNL     1       5.991   4.604  14.618  0.00  0.00    +0.000 A 
ATOM     21  C   UNL     1       5.747   3.709  13.565  0.00  0.00    +0.000 A 
ENDBRANCH   1  20
TORSDOF 1
ENDMDL
MODEL 2
REMARK VINA RESULT:      -8.3      1.303      1.310
REMARK  Name = 
REMARK  1 active torsions:
REMARK  status: ('A' for Active; 'I' for Inactive)
REMARK    1  A    between atoms: C_6  and  C_7
REMARK                            x       y       z     vdW  Elec       q    Type
REMARK                         _______ _______ _______ _____ _____    ______ ____
ROOT
ATOM      1  C   UNL     1       5.217   4.209  16.493  0.00  0.00    +0.000 A 
ATOM      2  C   UNL     1       5.469   4.937  17.667  0.00  0.00    +0.000 A 
ATOM      3  C   UNL     1       4.709   4.739  18.822  0.00  0.00    +0.000 A 
ATOM      4  F   UNL     1       5.019   5.468  19.902  0.00  0.00    +0.000 F 
ATOM      5  C   UNL     1       3.664   3.818  18.837  0.00  0.00    +0.000 A 
ATOM      6  C   UNL     1       3.375   3.076  17.684  0.00  0.00    +0.000 A 
ATOM      7  C   UNL     1       4.164   3.275  16.534  0.00  0.00    +0.000 A 
ATOM      8  C   UNL     1       2.248   2.074  17.615  0.00  0.00    +0.000 C 
ATOM      9  C   UNL     1       1.417   1.869  18.883  0.00  0.00    +0.000 C 
ATOM     10  C   UNL     1       1.832   2.702  20.031  0.00  0.00    +0.000 A 
ATOM     11  N   UNL     1       1.295   2.719  21.232  0.00  0.00    +0.000 NA
ATOM     12  N   UNL     1       1.985   3.635  21.986  0.00  0.00    +0.000 NA
ATOM     13  C   UNL     1       2.923   4.150  21.224  0.00  0.00    +0.000 A 
ATOM     14  N   UNL     1       2.875   3.595  19.977  0.00  0.00    +0.000 N 
ENDROOT
BRANCH   1  20
ATOM     15  F   UNL     1       6.190   3.368  11.775  0.00  0.00    +0.000 F 
ATOM     16  C   UNL     1       6.482   3.989  12.925  0.00  0.00    +0.000 A 
ATOM     17  C   UNL     1       7.548   4.864  13.000  0.00  0.00    +0.000 A 
ATOM     18  N   UNL     1       7.890   5.514  14.133  0.00  0.00    +0.000 NA
ATOM     19  C   UNL     1       7.124   5.263  15.224  0.00  0.00    +0.000 A 
ATOM     20  C   UNL     1       6.014   4.408  15.262  0.00  0.00    +0.000 A 
ATOM     21  C   UNL     1       5.708   3.760  14.056  0.00  0.00    +0.000 A 
ENDBRANCH   1  20
TORSDOF 1
ENDMDL
MODEL 3
REMARK VINA RESULT:      -8.1      1.157      1.420
REMARK  Name = 
REMARK  1 active torsions:
REMARK  status: ('A' for Active; 'I' for Inactive)
REMARK    1  A    between atoms: C_6  and  C_7
REMARK                            x       y       z     vdW  Elec       q    Type
REMARK                         _______ _______ _______ _____ _____    ______ ____
ROOT
ATOM      1  C   UNL     1       5.154   4.618  15.670  0.00  0.00    +0.000 A 
ATOM      2  C   UNL     1       4.891   5.846  16.298  0.00  0.00    +0.000 A 
ATOM      3  C   UNL     1       4.116   5.917  17.458  0.00  0.00    +0.000 A 
ATOM      4  F   UNL     1       3.919   7.126  17.999  0.00  0.00    +0.000 F 
ATOM      5  C   UNL     1       3.568   4.766  18.019  0.00  0.00    +0.000 A 
ATOM      6  C   UNL     1       3.801   3.522  17.420  0.00  0.00    +0.000 A 
ATOM      7  C   UNL     1       4.600   3.466  16.262  0.00  0.00    +0.000 A 
ATOM      8  C   UNL     1       3.226   2.233  17.956  0.00  0.00    +0.000 C 
ATOM      9  C   UNL     1       2.373   2.322  19.223  0.00  0.00    +0.000 C 
ATOM     10  C   UNL     1       2.216   3.689  19.763  0.00  0.00    +0.000 A 
ATOM     11  N   UNL     1       1.542   4.044  20.836  0.00  0.00    +0.000 NA
ATOM     12  N   UNL     1       1.656   5.405  20.970  0.00  0.00    +0.000 NA
ATOM     13  C   UNL     1       2.396   5.842  19.976  0.00  0.00    +0.000 A 
ATOM     14  N   UNL     1       2.779   4.800  19.181  0.00  0.00    +0.000 N 
ENDROOT
BRANCH   1  20
ATOM     15  F   UNL     1       8.998   5.871  12.919  0.00  0.00    +0.000 F 
ATOM     16  C   UNL     1       7.884   5.150  13.092  0.00  0.00    +0.000 A 
ATOM     17  C   UNL     1       7.460   4.268  12.117  0.00  0.00    +0.000 A 
ATOM     18  N   UNL     1       6.342   3.519  12.235  0.00  0.00    +0.000 NA
ATOM     19  C   UNL     1       5.633   3.674  13.381  0.00  0.00    +0.000 A 
ATOM     20  C   UNL     1       5.974   4.527  14.441  0.00  0.00    +0.000 A 
ATOM     21  C   UNL     1       7.143   5.280  14.260  0.00  0.00    +0.000 A 
ENDBRANCH   1  20
TORSDOF 1
ENDMDL
MODEL 4
REMARK VINA RESULT:      -8.1      1.495      2.344
REMARK  Name = 
REMARK  1 active torsions:
REMARK  status: ('A' for Active; 'I' for Inactive)
REMARK    1  A    between atoms: C_6  and  C_7
REMARK                            x       y       z     vdW  Elec       q    Type
REMARK                         _______ _______ _______ _____ _____    ______ ____
ROOT
ATOM      1  C   UNL     1       5.016   4.163  16.190  0.00  0.00    +0.000 A 
ATOM      2  C   UNL     1       4.640   2.873  16.598  0.00  0.00    +0.000 A 
ATOM      3  C   UNL     1       3.788   2.675  17.686  0.00  0.00    +0.000 A 
ATOM      4  F   UNL     1       3.472   1.413  18.006  0.00  0.00    +0.000 F 
ATOM      5  C   UNL     1       3.295   3.758  18.411  0.00  0.00    +0.000 A 
ATOM      6  C   UNL     1       3.652   5.061  18.041  0.00  0.00    +0.000 A 
ATOM      7  C   UNL     1       4.496   5.244  16.929  0.00  0.00    +0.000 A 
ATOM      8  C   UNL     1       3.176   6.285  18.787  0.00  0.00    +0.000 C 
ATOM      9  C   UNL     1       2.248   6.057  19.982  0.00  0.00    +0.000 C 
ATOM     10  C   UNL     1       1.940   4.638  20.258  0.00  0.00    +0.000 A 
ATOM     11  N   UNL     1       1.171   4.167  21.217  0.00  0.00    +0.000 NA
ATOM     12  N   UNL     1       1.161   2.799  21.112  0.00  0.00    +0.000 NA
ATOM     13  C   UNL     1       1.924   2.473  20.093  0.00  0.00    +0.000 A 
ATOM     14  N   UNL     1       2.442   3.597  19.514  0.00  0.00    +0.000 N 
ENDROOT
BRANCH   1  20
ATOM     15  F   UNL     1       6.408   3.414  11.562  0.00  0.00    +0.000 F 
ATOM     16  C   UNL     1       6.592   4.015  12.743  0.00  0.00    +0.000 A 
ATOM     17  C   UNL     1       7.641   4.895  12.928  0.00  0.00    +0.000 A 
ATOM     18  N   UNL     1       7.878   5.525  14.099  0.00  0.00    +0.000 NA
ATOM     19  C   UNL     1       7.020   5.250  15.114  0.00  0.00    +0.000 A 
ATOM     20  C   UNL     1       5.917   4.389  15.038  0.00  0.00    +0.000 A 
ATOM     21  C   UNL     1       5.723   3.762  13.798  0.00  0.00    +0.000 A 
ENDBRANCH   1  20
TORSDOF 1
ENDMDL
MODEL 5
REMARK VINA RESULT:      -8.0      1.692      2.675
REMARK  Name = 
REMARK  1 active torsions:
REMARK  status: ('A' for Active; 'I' for Inactive)
REMARK    1  A    between atoms: C_6  and  C_7
REMARK                            x       y       z     vdW  Elec       q    Type
REMARK                         _______ _______ _______ _____ _____    ______ ____
ROOT
ATOM      1  C   UNL     1       5.216   4.509  15.712  0.00  0.00    +0.000 A 
ATOM      2  C   UNL     1       4.954   3.344  16.453  0.00  0.00    +0.000 A 
ATOM      3  C   UNL     1       4.199   3.386  17.627  0.00  0.00    +0.000 A 
ATOM      4  F   UNL     1       3.988   2.230  18.270  0.00  0.00    +0.000 F 
ATOM      5  C   UNL     1       3.693   4.592  18.106  0.00  0.00    +0.000 A 
ATOM      6  C   UNL     1       3.937   5.777  17.401  0.00  0.00    +0.000 A 
ATOM      7  C   UNL     1       4.685   5.715  16.209  0.00  0.00    +0.000 A 
ATOM      8  C   UNL     1       3.441   7.125  17.865  0.00  0.00    +0.000 C 
ATOM      9  C   UNL     1       2.620   7.161  19.156  0.00  0.00    +0.000 C 
ATOM     10  C   UNL     1       2.423   5.842  19.795  0.00  0.00    +0.000 A 
ATOM     11  N   UNL     1       1.759   5.591  20.902  0.00  0.00    +0.000 NA
ATOM     12  N   UNL     1       1.828   4.240  21.134  0.00  0.00    +0.000 NA
ATOM     13  C   UNL     1       2.533   3.706  20.163  0.00  0.00    +0.000 A 
ATOM     14  N   UNL     1       2.934   4.673  19.285  0.00  0.00    +0.000 N 
ENDROOT
BRANCH   1  20
ATOM     15  F   UNL     1       9.000   5.920  12.955  0.00  0.00    +0.000 F 
ATOM     16  C   UNL     1       7.895   5.182  13.114  0.00  0.00    +0.000 A 
ATOM     17  C   UNL     1       7.461   4.341  12.107  0.00  0.00    +0.000 A 
ATOM     18  N   UNL     1       6.351   3.579  12.210  0.00  0.00    +0.000 NA
ATOM     19  C   UNL     1       5.662   3.675  13.374  0.00  0.00    +0.000 A 
ATOM     20  C   UNL     1       6.014   4.481  14.466  0.00  0.00    +0.000 A 
ATOM     21  C   UNL     1       7.174   5.252  14.300  0.00  0.00    +0.000 A 
ENDBRANCH   1  20
TORSDOF 1
ENDMDL
MODEL 6
REMARK VINA RESULT:      -7.9      3.655      8.132
REMARK  Name = 
REMARK  1 active torsions:
REMARK  status: ('A' for Active; 'I' for Inactive)
REMARK    1  A    between atoms: C_6  and  C_7
REMARK                            x       y       z     vdW  Elec       q    Type
REMARK                         _______ _______ _______ _____ _____    ______ ____
ROOT
ATOM      1  C   UNL     1       1.276   8.131  20.489  0.00  0.00    +0.000 A 
ATOM      2  C   UNL     1       1.919   8.365  19.263  0.00  0.00    +0.000 A 
ATOM      3  C   UNL     1       2.584   7.342  18.584  0.00  0.00    +0.000 A 
ATOM      4  F   UNL     1       3.165   7.647  17.416  0.00  0.00    +0.000 F 
ATOM      5  C   UNL     1       2.640   6.055  19.115  0.00  0.00    +0.000 A 
ATOM      6  C   UNL     1       2.017   5.781  20.339  0.00  0.00    +0.000 A 
ATOM      7  C   UNL     1       1.335   6.820  21.001  0.00  0.00    +0.000 A 
ATOM      8  C   UNL     1       2.050   4.418  20.989  0.00  0.00    +0.000 C 
ATOM      9  C   UNL     1       2.786   3.305  20.241  0.00  0.00    +0.000 C 
ATOM     10  C   UNL     1       3.387   3.722  18.956  0.00  0.00    +0.000 A 
ATOM     11  N   UNL     1       4.067   2.968  18.119  0.00  0.00    +0.000 NA
ATOM     12  N   UNL     1       4.441   3.754  17.058  0.00  0.00    +0.000 NA
ATOM     13  C   UNL     1       3.980   4.965  17.278  0.00  0.00    +0.000 A 
ATOM     14  N   UNL     1       3.304   5.002  18.464  0.00  0.00    +0.000 N 
ENDROOT
BRANCH   1  20
ATOM     15  F   UNL     1      -1.518  12.141  20.664  0.00  0.00    +0.000 F 
ATOM     16  C   UNL     1      -0.822  11.186  21.293  0.00  0.00    +0.000 A 
ATOM     17  C   UNL     1      -0.753  11.161  22.673  0.00  0.00    +0.000 A 
ATOM     18  N   UNL     1      -0.062  10.226  23.360  0.00  0.00    +0.000 NA
ATOM     19  C   UNL     1       0.578   9.286  22.619  0.00  0.00    +0.000 A 
ATOM     20  C   UNL     1       0.567   9.205  21.219  0.00  0.00    +0.000 A 
ATOM     21  C   UNL     1      -0.164  10.205  20.561  0.00  0.00    +0.000 A 
ENDBRANCH   1  20
TORSDOF 1
ENDMDL
MODEL 7
REMARK VINA RESULT:      -7.9      2.804      4.243
REMARK  Name = 
REMARK  1 active torsions:
REMARK  status: ('A' for Active; 'I' for Inactive)
REMARK    1  A    between atoms: C_6  and  C_7
REMARK                            x       y       z     vdW  Elec       q    Type
REMARK                         _______ _______ _______ _____ _____    ______ ____
ROOT
ATOM      1  C   UNL     1       4.101   6.255  17.887  0.00  0.00    +0.000 A 
ATOM      2  C   UNL     1       3.629   5.703  19.089  0.00  0.00    +0.000 A 
ATOM      3  C   UNL     1       2.666   6.357  19.860  0.00  0.00    +0.000 A 
ATOM      4  F   UNL     1       2.263   5.758  20.988  0.00  0.00    +0.000 F 
ATOM      5  C   UNL     1       2.153   7.590  19.463  0.00  0.00    +0.000 A 
ATOM      6  C   UNL     1       2.602   8.179  18.274  0.00  0.00    +0.000 A 
ATOM      7  C   UNL     1       3.560   7.497  17.499  0.00  0.00    +0.000 A 
ATOM      8  C   UNL     1       2.111   9.521  17.786  0.00  0.00    +0.000 C 
ATOM      9  C   UNL     1       1.061  10.232  18.641  0.00  0.00    +0.000 C 
ATOM     10  C   UNL     1       0.662   9.499  19.862  0.00  0.00    +0.000 A 
ATOM     11  N   UNL     1      -0.218   9.880  20.762  0.00  0.00    +0.000 NA
ATOM     12  N   UNL     1      -0.279   8.906  21.726  0.00  0.00    +0.000 NA
ATOM     13  C   UNL     1       0.566   7.958  21.388  0.00  0.00    +0.000 A 
ATOM     14  N   UNL     1       1.188   8.280  20.215  0.00  0.00    +0.000 N 
ENDROOT
BRANCH   1  20
ATOM     15  F   UNL     1       5.545   3.911  13.846  0.00  0.00    +0.000 F 
ATOM     16  C   UNL     1       5.825   4.420  15.051  0.00  0.00    +0.000 A 
ATOM     17  C   UNL     1       7.104   4.340  15.568  0.00  0.00    +0.000 A 
ATOM     18  N   UNL     1       7.442   4.831  16.779  0.00  0.00    +0.000 NA
ATOM     19  C   UNL     1       6.447   5.423  17.487  0.00  0.00    +0.000 A 
ATOM     20  C   UNL     1       5.121   5.574  17.059  0.00  0.00    +0.000 A 
ATOM     21  C   UNL     1       4.829   5.041  15.795  0.00  0.00    +0.000 A 
ENDBRANCH   1  20
TORSDOF 1
ENDMDL
MODEL 8
REMARK VINA RESULT:      -7.8      3.591      7.744
REMARK  Name = 
REMARK  1 active torsions:
REMARK  status: ('A' for Active; 'I' for Inactive)
REMARK    1  A    between atoms: C_6  and  C_7
REMARK                            x       y       z     vdW  Elec       q    Type
REMARK                         _______ _______ _______ _____ _____    ______ ____
ROOT
ATOM      1  C   UNL     1       1.558   7.663  20.161  0.00  0.00    +0.000 A 
ATOM      2  C   UNL     1       2.304   7.643  18.971  0.00  0.00    +0.000 A 
ATOM      3  C   UNL     1       2.844   6.455  18.474  0.00  0.00    +0.000 A 
ATOM      4  F   UNL     1       3.536   6.520  17.328  0.00  0.00    +0.000 F 
ATOM      5  C   UNL     1       2.669   5.252  19.155  0.00  0.00    +0.000 A 
ATOM      6  C   UNL     1       1.937   5.231  20.349  0.00  0.00    +0.000 A 
ATOM      7  C   UNL     1       1.383   6.434  20.827  0.00  0.00    +0.000 A 
ATOM      8  C   UNL     1       1.720   3.973  21.155  0.00  0.00    +0.000 C 
ATOM      9  C   UNL     1       2.321   2.678  20.604  0.00  0.00    +0.000 C 
ATOM     10  C   UNL     1       3.057   2.835  19.332  0.00  0.00    +0.000 A 
ATOM     11  N   UNL     1       3.662   1.890  18.646  0.00  0.00    +0.000 NA
ATOM     12  N   UNL     1       4.218   2.470  17.534  0.00  0.00    +0.000 NA
ATOM     13  C   UNL     1       3.936   3.753  17.572  0.00  0.00    +0.000 A 
ATOM     14  N   UNL     1       3.202   4.040  18.687  0.00  0.00    +0.000 N 
ENDROOT
BRANCH   1  20
ATOM     15  F   UNL     1      -0.732  10.235  23.634  0.00  0.00    +0.000 F 
ATOM     16  C   UNL     1      -0.149  10.177  22.430  0.00  0.00    +0.000 A 
ATOM     17  C   UNL     1      -0.053  11.307  21.641  0.00  0.00    +0.000 A 
ATOM     18  N   UNL     1       0.519  11.307  20.418  0.00  0.00    +0.000 NA
ATOM     19  C   UNL     1       1.009  10.118  19.984  0.00  0.00    +0.000 A 
ATOM     20  C   UNL     1       0.979   8.913  20.701  0.00  0.00    +0.000 A 
ATOM     21  C   UNL     1       0.370   8.976  21.963  0.00  0.00    +0.000 A 
ENDBRANCH   1  20
TORSDOF 1
ENDMDL
MODEL 9
REMARK VINA RESULT:      -7.8      3.672      7.378
REMARK  Name = 
REMARK  1 active torsions:
REMARK  status: ('A' for Active; 'I' for Inactive)
REMARK    1  A    between atoms: C_6  and  C_7
REMARK                            x       y       z     vdW  Elec       q    Type
REMARK                         _______ _______ _______ _____ _____    ______ ____
ROOT
ATOM      1  C   UNL     1       1.717   7.504  20.025  0.00  0.00    +0.000 A 
ATOM      2  C   UNL     1       2.468   7.384  18.844  0.00  0.00    +0.000 A 
ATOM      3  C   UNL     1       2.909   6.140  18.388  0.00  0.00    +0.000 A 
ATOM      4  F   UNL     1       3.613   6.111  17.249  0.00  0.00    +0.000 F 
ATOM      5  C   UNL     1       2.625   4.978  19.102  0.00  0.00    +0.000 A 
ATOM      6  C   UNL     1       1.884   5.055  20.288  0.00  0.00    +0.000 A 
ATOM      7  C   UNL     1       1.431   6.315  20.725  0.00  0.00    +0.000 A 
ATOM      8  C   UNL     1       1.554   3.846  21.129  0.00  0.00    +0.000 C 
ATOM      9  C   UNL     1       2.046   2.488  20.624  0.00  0.00    +0.000 C 
ATOM     10  C   UNL     1       2.804   2.543  19.355  0.00  0.00    +0.000 A 
ATOM     11  N   UNL     1       3.332   1.529  18.705  0.00  0.00    +0.000 NA
ATOM     12  N   UNL     1       3.944   2.026  17.582  0.00  0.00    +0.000 NA
ATOM     13  C   UNL     1       3.773   3.329  17.579  0.00  0.00    +0.000 A 
ATOM     14  N   UNL     1       3.056   3.711  18.677  0.00  0.00    +0.000 N 
ENDROOT
BRANCH   1  20
ATOM     15  F   UNL     1       0.098  12.069  19.347  0.00  0.00    +0.000 F 
ATOM     16  C   UNL     1       0.435  11.071  20.172  0.00  0.00    +0.000 A 
ATOM     17  C   UNL     1       0.337  11.227  21.541  0.00  0.00    +0.000 A 
ATOM     18  N   UNL     1       0.668  10.258  22.421  0.00  0.00    +0.000 NA
ATOM     19  C   UNL     1       1.114   9.091  21.889  0.00  0.00    +0.000 A 
ATOM     20  C   UNL     1       1.242   8.815  20.521  0.00  0.00    +0.000 A 
ATOM     21  C   UNL     1       0.886   9.861  19.657  0.00  0.00    +0.000 A 
ENDBRANCH   1  20
TORSDOF 1
ENDMDL
