MODEL 1
REMARK VINA RESULT:      -8.0      0.000      0.000
REMARK  Name = 
REMARK  5 active torsions:
REMARK  status: ('A' for Active; 'I' for Inactive)
REMARK    1  A    between atoms: C_1  and  N_2
REMARK    2  A    between atoms: N_8  and  C_9
REMARK    3  A    between atoms: C_11  and  C_12
REMARK    4  A    between atoms: C_12  and  O_13
REMARK    5  A    between atoms: C_15  and  O_16
REMARK                            x       y       z     vdW  Elec       q    Type
REMARK                         _______ _______ _______ _____ _____    ______ ____
ROOT
ATOM      1  C   UNL     1       2.232   3.267  21.963  0.00  0.00    +0.000 C 
ATOM      2  N   UNL     1       1.973   3.376  20.543  0.00  0.00    +0.000 N 
ATOM      3  N   UNL     1       2.249   2.211  19.787  0.00  0.00    +0.000 NA
ATOM      4  C   UNL     1       2.727   2.366  18.574  0.00  0.00    +0.000 C 
ATOM      5  N   UNL     1       2.060   1.746  17.559  0.00  0.00    +0.000 N 
ATOM      6  C   UNL     1       3.456   3.549  18.195  0.00  0.00    +0.000 A 
ATOM      7  C   UNL     1       4.477   3.978  17.410  0.00  0.00    +0.000 A 
ATOM      8  N   UNL     1       4.517   5.382  17.459  0.00  0.00    +0.000 N 
ATOM      9  C   UNL     1       3.523   5.814  18.340  0.00  0.00    +0.000 A 
ATOM     10  N   UNL     1       3.050   7.031  18.646  0.00  0.00    +0.000 NA
ATOM     11  C   UNL     1       2.111   6.932  19.639  0.00  0.00    +0.000 A 
ATOM     12  N   UNL     1       1.734   5.852  20.383  0.00  0.00    +0.000 NA
ATOM     13  C   UNL     1       2.224   4.662  20.003  0.00  0.00    +0.000 A 
ATOM     14  C   UNL     1       3.055   4.671  18.903  0.00  0.00    +0.000 A 
ATOM     15  H   UNL     1       1.264   1.295  18.015  0.00  0.00    +0.000 HD
ATOM     16  H   UNL     1       1.641   2.456  16.958  0.00  0.00    +0.000 HD
ENDROOT
BRANCH   8  17
ATOM     17  C   UNL     1       5.546   6.165  16.789  0.00  0.00    +0.000 C 
ATOM     18  O   UNL     1       5.278   6.111  15.361  0.00  0.00    +0.000 OA
ATOM     19  C   UNL     1       6.271   5.265  14.735  0.00  0.00    +0.000 C 
ATOM     20  C   UNL     1       7.258   4.821  15.806  0.00  0.00    +0.000 C 
ATOM     21  C   UNL     1       7.019   5.805  16.925  0.00  0.00    +0.000 C 
BRANCH  21  22
ATOM     22  O   UNL     1       7.824   6.977  16.661  0.00  0.00    +0.000 OA
ATOM     23  H   UNL     1       8.071   6.987  15.718  0.00  0.00    +0.000 HD
ENDBRANCH  21  22
BRANCH  19  24
ATOM     24  C   UNL     1       5.577   4.087  14.045  0.00  0.00    +0.000 C 
BRANCH  24  25
ATOM     25  O   UNL     1       6.483   3.354  13.221  0.00  0.00    +0.000 OA
ATOM     26  H   UNL     1       6.841   3.959  12.549  0.00  0.00    +0.000 HD
ENDBRANCH  24  25
ENDBRANCH  19  24
ENDBRANCH   8  17
TORSDOF 4
ENDMDL
MODEL 2
REMARK VINA RESULT:      -7.6      1.261      1.392
REMARK  Name = 
REMARK  5 active torsions:
REMARK  status: ('A' for Active; 'I' for Inactive)
REMARK    1  A    between atoms: C_1  and  N_2
REMARK    2  A    between atoms: N_8  and  C_9
REMARK    3  A    between atoms: C_11  and  C_12
REMARK    4  A    between atoms: C_12  and  O_13
REMARK    5  A    between atoms: C_15  and  O_16
REMARK                            x       y       z     vdW  Elec       q    Type
REMARK                         _______ _______ _______ _____ _____    ______ ____
ROOT
ATOM      1  C   UNL     1       1.208   2.588  21.948  0.00  0.00    +0.000 C 
ATOM      2  N   UNL     1       1.407   2.911  20.552  0.00  0.00    +0.000 N 
ATOM      3  N   UNL     1       1.899   1.851  19.750  0.00  0.00    +0.000 NA
ATOM      4  C   UNL     1       2.733   2.151  18.782  0.00  0.00    +0.000 C 
ATOM      5  N   UNL     1       2.414   1.718  17.530  0.00  0.00    +0.000 N 
ATOM      6  C   UNL     1       3.553   3.335  18.831  0.00  0.00    +0.000 A 
ATOM      7  C   UNL     1       4.771   3.815  18.474  0.00  0.00    +0.000 A 
ATOM      8  N   UNL     1       4.804   5.193  18.746  0.00  0.00    +0.000 N 
ATOM      9  C   UNL     1       3.588   5.549  19.331  0.00  0.00    +0.000 A 
ATOM     10  N   UNL     1       3.051   6.734  19.656  0.00  0.00    +0.000 NA
ATOM     11  C   UNL     1       1.847   6.547  20.284  0.00  0.00    +0.000 A 
ATOM     12  N   UNL     1       1.248   5.395  20.703  0.00  0.00    +0.000 NA
ATOM     13  C   UNL     1       1.825   4.245  20.317  0.00  0.00    +0.000 A 
ATOM     14  C   UNL     1       2.958   4.365  19.542  0.00  0.00    +0.000 A 
ATOM     15  H   UNL     1       1.511   1.251  17.644  0.00  0.00    +0.000 HD
ATOM     16  H   UNL     1       2.209   2.528  16.943  0.00  0.00    +0.000 HD
ENDROOT
BRANCH   8  17
ATOM     17  C   UNL     1       5.997   6.006  18.552  0.00  0.00    +0.000 C 
ATOM     18  O   UNL     1       6.040   6.397  17.153  0.00  0.00    +0.000 OA
ATOM     19  C   UNL     1       7.094   5.653  16.496  0.00  0.00    +0.000 C 
ATOM     20  C   UNL     1       7.799   4.806  17.546  0.00  0.00    +0.000 C 
ATOM     21  C   UNL     1       7.383   5.448  18.846  0.00  0.00    +0.000 C 
BRANCH  21  22
ATOM     22  O   UNL     1       8.292   6.541  19.109  0.00  0.00    +0.000 OA
ATOM     23  H   UNL     1       7.780   7.365  19.201  0.00  0.00    +0.000 HD
ENDBRANCH  21  22
BRANCH  19  24
ATOM     24  C   UNL     1       6.497   4.816  15.361  0.00  0.00    +0.000 C 
BRANCH  24  25
ATOM     25  O   UNL     1       7.050   5.177  14.096  0.00  0.00    +0.000 OA
ATOM     26  H   UNL     1       6.708   6.055  13.855  0.00  0.00    +0.000 HD
ENDBRANCH  24  25
ENDBRANCH  19  24
ENDBRANCH   8  17
TORSDOF 4
ENDMDL
MODEL 3
REMARK VINA RESULT:      -7.6      1.637      1.950
REMARK  Name = 
REMARK  5 active torsions:
REMARK  status: ('A' for Active; 'I' for Inactive)
REMARK    1  A    between atoms: C_1  and  N_2
REMARK    2  A    between atoms: N_8  and  C_9
REMARK    3  A    between atoms: C_11  and  C_12
REMARK    4  A    between atoms: C_12  and  O_13
REMARK    5  A    between atoms: C_15  and  O_16
REMARK                            x       y       z     vdW  Elec       q    Type
REMARK                         _______ _______ _______ _____ _____    ______ ____
ROOT
ATOM      1  C   UNL     1       1.391   2.959  21.918  0.00  0.00    +0.000 C 
ATOM      2  N   UNL     1       2.281   2.480  20.883  0.00  0.00    +0.000 N 
ATOM      3  N   UNL     1       3.540   2.013  21.336  0.00  0.00    +0.000 NA
ATOM      4  C   UNL     1       4.586   2.233  20.574  0.00  0.00    +0.000 C 
ATOM      5  N   UNL     1       5.345   1.153  20.234  0.00  0.00    +0.000 N 
ATOM      6  C   UNL     1       4.621   3.326  19.636  0.00  0.00    +0.000 A 
ATOM      7  C   UNL     1       5.459   4.232  19.072  0.00  0.00    +0.000 A 
ATOM      8  N   UNL     1       4.756   4.928  18.075  0.00  0.00    +0.000 N 
ATOM      9  C   UNL     1       3.438   4.466  18.069  0.00  0.00    +0.000 A 
ATOM     10  N   UNL     1       2.403   4.690  17.247  0.00  0.00    +0.000 NA
ATOM     11  C   UNL     1       1.284   4.052  17.718  0.00  0.00    +0.000 A 
ATOM     12  N   UNL     1       1.085   3.388  18.893  0.00  0.00    +0.000 NA
ATOM     13  C   UNL     1       2.171   3.175  19.653  0.00  0.00    +0.000 A 
ATOM     14  C   UNL     1       3.364   3.655  19.155  0.00  0.00    +0.000 A 
ATOM     15  H   UNL     1       4.865   0.358  20.662  0.00  0.00    +0.000 HD
ATOM     16  H   UNL     1       5.259   0.992  19.230  0.00  0.00    +0.000 HD
ENDROOT
BRANCH   8  17
ATOM     17  C   UNL     1       5.339   6.030  17.322  0.00  0.00    +0.000 C 
ATOM     18  O   UNL     1       5.000   5.834  15.922  0.00  0.00    +0.000 OA
ATOM     19  C   UNL     1       6.191   5.424  15.210  0.00  0.00    +0.000 C 
ATOM     20  C   UNL     1       7.355   5.432  16.190  0.00  0.00    +0.000 C 
ATOM     21  C   UNL     1       6.842   6.277  17.330  0.00  0.00    +0.000 C 
BRANCH  21  22
ATOM     22  O   UNL     1       7.101   7.662  17.004  0.00  0.00    +0.000 OA
ATOM     23  H   UNL     1       8.026   7.751  16.709  0.00  0.00    +0.000 HD
ENDBRANCH  21  22
BRANCH  19  24
ATOM     24  C   UNL     1       5.959   4.050  14.576  0.00  0.00    +0.000 C 
BRANCH  24  25
ATOM     25  O   UNL     1       5.974   3.011  15.554  0.00  0.00    +0.000 OA
ATOM     26  H   UNL     1       6.777   2.479  15.420  0.00  0.00    +0.000 HD
ENDBRANCH  24  25
ENDBRANCH  19  24
ENDBRANCH   8  17
TORSDOF 4
ENDMDL
MODEL 4
REMARK VINA RESULT:      -7.5      3.073      5.651
REMARK  Name = 
REMARK  5 active torsions:
REMARK  status: ('A' for Active; 'I' for Inactive)
REMARK    1  A    between atoms: C_1  and  N_2
REMARK    2  A    between atoms: N_8  and  C_9
REMARK    3  A    between atoms: C_11  and  C_12
REMARK    4  A    between atoms: C_12  and  O_13
REMARK    5  A    between atoms: C_15  and  O_16
REMARK                            x       y       z     vdW  Elec       q    Type
REMARK                         _______ _______ _______ _____ _____    ______ ____
ROOT
ATOM      1  C   UNL     1       5.254   6.619  15.286  0.00  0.00    +0.000 C 
ATOM      2  N   UNL     1       5.653   6.552  16.676  0.00  0.00    +0.000 N 
ATOM      3  N   UNL     1       6.832   5.811  16.931  0.00  0.00    +0.000 NA
ATOM      4  C   UNL     1       6.890   5.116  18.043  0.00  0.00    +0.000 C 
ATOM      5  N   UNL     1       7.959   5.337  18.860  0.00  0.00    +0.000 N 
ATOM      6  C   UNL     1       5.699   4.650  18.707  0.00  0.00    +0.000 A 
ATOM      7  C   UNL     1       5.210   3.620  19.442  0.00  0.00    +0.000 A 
ATOM      8  N   UNL     1       3.919   3.960  19.881  0.00  0.00    +0.000 N 
ATOM      9  C   UNL     1       3.596   5.211  19.354  0.00  0.00    +0.000 A 
ATOM     10  N   UNL     1       2.565   6.043  19.561  0.00  0.00    +0.000 NA
ATOM     11  C   UNL     1       2.669   7.133  18.736  0.00  0.00    +0.000 A 
ATOM     12  N   UNL     1       3.548   7.382  17.722  0.00  0.00    +0.000 NA
ATOM     13  C   UNL     1       4.571   6.523  17.590  0.00  0.00    +0.000 A 
ATOM     14  C   UNL     1       4.613   5.486  18.498  0.00  0.00    +0.000 A 
ATOM     15  H   UNL     1       8.491   6.073  18.390  0.00  0.00    +0.000 HD
ATOM     16  H   UNL     1       7.631   5.771  19.723  0.00  0.00    +0.000 HD
ENDROOT
BRANCH   8  17
ATOM     17  C   UNL     1       3.076   3.041  20.633  0.00  0.00    +0.000 C 
ATOM     18  O   UNL     1       2.581   2.038  19.704  0.00  0.00    +0.000 OA
ATOM     19  C   UNL     1       1.176   2.282  19.463  0.00  0.00    +0.000 C 
ATOM     20  C   UNL     1       0.742   3.451  20.336  0.00  0.00    +0.000 C 
ATOM     21  C   UNL     1       1.838   3.536  21.369  0.00  0.00    +0.000 C 
BRANCH  21  22
ATOM     22  O   UNL     1       1.514   2.612  22.434  0.00  0.00    +0.000 OA
ATOM     23  H   UNL     1       0.975   1.885  22.071  0.00  0.00    +0.000 HD
ENDBRANCH  21  22
BRANCH  19  24
ATOM     24  C   UNL     1       0.952   2.543  17.970  0.00  0.00    +0.000 C 
BRANCH  24  25
ATOM     25  O   UNL     1       1.116   3.924  17.649  0.00  0.00    +0.000 OA
ATOM     26  H   UNL     1       1.226   4.418  18.479  0.00  0.00    +0.000 HD
ENDBRANCH  24  25
ENDBRANCH  19  24
ENDBRANCH   8  17
TORSDOF 4
ENDMDL
MODEL 5
REMARK VINA RESULT:      -7.3      1.503      2.752
REMARK  Name = 
REMARK  5 active torsions:
REMARK  status: ('A' for Active; 'I' for Inactive)
REMARK    1  A    between atoms: C_1  and  N_2
REMARK    2  A    between atoms: N_8  and  C_9
REMARK    3  A    between atoms: C_11  and  C_12
REMARK    4  A    between atoms: C_12  and  O_13
REMARK    5  A    between atoms: C_15  and  O_16
REMARK                            x       y       z     vdW  Elec       q    Type
REMARK                         _______ _______ _______ _____ _____    ______ ____
ROOT
ATOM      1  C   UNL     1       0.775   2.515  19.578  0.00  0.00    +0.000 C 
ATOM      2  N   UNL     1       1.546   3.583  20.178  0.00  0.00    +0.000 N 
ATOM      3  N   UNL     1       0.856   4.809  20.342  0.00  0.00    +0.000 NA
ATOM      4  C   UNL     1       1.534   5.921  20.182  0.00  0.00    +0.000 C 
ATOM      5  N   UNL     1       1.493   6.826  21.200  0.00  0.00    +0.000 N 
ATOM      6  C   UNL     1       2.720   5.972  19.365  0.00  0.00    +0.000 A 
ATOM      7  C   UNL     1       3.414   6.781  18.525  0.00  0.00    +0.000 A 
ATOM      8  N   UNL     1       4.628   6.152  18.204  0.00  0.00    +0.000 N 
ATOM      9  C   UNL     1       4.650   4.903  18.826  0.00  0.00    +0.000 A 
ATOM     10  N   UNL     1       5.605   3.972  18.957  0.00  0.00    +0.000 NA
ATOM     11  C   UNL     1       5.102   2.871  19.600  0.00  0.00    +0.000 A 
ATOM     12  N   UNL     1       3.820   2.582  19.969  0.00  0.00    +0.000 NA
ATOM     13  C   UNL     1       2.921   3.571  19.835  0.00  0.00    +0.000 A 
ATOM     14  C   UNL     1       3.400   4.764  19.340  0.00  0.00    +0.000 A 
ATOM     15  H   UNL     1       0.922   6.376  21.919  0.00  0.00    +0.000 HD
ATOM     16  H   UNL     1       2.422   6.895  21.618  0.00  0.00    +0.000 HD
ENDROOT
BRANCH   8  17
ATOM     17  C   UNL     1       5.581   6.717  17.258  0.00  0.00    +0.000 C 
ATOM     18  O   UNL     1       5.165   6.318  15.923  0.00  0.00    +0.000 OA
ATOM     19  C   UNL     1       6.086   5.317  15.430  0.00  0.00    +0.000 C 
ATOM     20  C   UNL     1       7.180   5.127  16.471  0.00  0.00    +0.000 C 
ATOM     21  C   UNL     1       7.060   6.363  17.328  0.00  0.00    +0.000 C 
BRANCH  21  22
ATOM     22  O   UNL     1       7.833   7.412  16.700  0.00  0.00    +0.000 OA
ATOM     23  H   UNL     1       8.066   7.136  15.794  0.00  0.00    +0.000 HD
ENDBRANCH  21  22
BRANCH  19  24
ATOM     24  C   UNL     1       5.323   4.024  15.129  0.00  0.00    +0.000 C 
BRANCH  24  25
ATOM     25  O   UNL     1       5.663   2.988  16.050  0.00  0.00    +0.000 OA
ATOM     26  H   UNL     1       6.061   3.399  16.837  0.00  0.00    +0.000 HD
ENDBRANCH  24  25
ENDBRANCH  19  24
ENDBRANCH   8  17
TORSDOF 4
ENDMDL
MODEL 6
REMARK VINA RESULT:      -7.3      3.004      5.638
REMARK  Name = 
REMARK  5 active torsions:
REMARK  status: ('A' for Active; 'I' for Inactive)
REMARK    1  A    between atoms: C_1  and  N_2
REMARK    2  A    between atoms: N_8  and  C_9
REMARK    3  A    between atoms: C_11  and  C_12
REMARK    4  A    between atoms: C_12  and  O_13
REMARK    5  A    between atoms: C_15  and  O_16
REMARK                            x       y       z     vdW  Elec       q    Type
REMARK                         _______ _______ _______ _____ _____    ______ ____
ROOT
ATOM      1  C   UNL     1       6.623   4.720  14.238  0.00  0.00    +0.000 C 
ATOM      2  N   UNL     1       6.890   5.228  15.566  0.00  0.00    +0.000 N 
ATOM      3  N   UNL     1       7.764   4.437  16.352  0.00  0.00    +0.000 NA
ATOM      4  C   UNL     1       7.533   4.365  17.642  0.00  0.00    +0.000 C 
ATOM      5  N   UNL     1       8.563   4.682  18.477  0.00  0.00    +0.000 N 
ATOM      6  C   UNL     1       6.216   4.576  18.187  0.00  0.00    +0.000 A 
ATOM      7  C   UNL     1       5.387   4.174  19.182  0.00  0.00    +0.000 A 
ATOM      8  N   UNL     1       4.238   4.982  19.159  0.00  0.00    +0.000 N 
ATOM      9  C   UNL     1       4.351   5.868  18.086  0.00  0.00    +0.000 A 
ATOM     10  N   UNL     1       3.616   6.919  17.697  0.00  0.00    +0.000 NA
ATOM     11  C   UNL     1       4.104   7.423  16.519  0.00  0.00    +0.000 A 
ATOM     12  N   UNL     1       5.080   6.938  15.698  0.00  0.00    +0.000 NA
ATOM     13  C   UNL     1       5.795   5.901  16.163  0.00  0.00    +0.000 A 
ATOM     14  C   UNL     1       5.457   5.446  17.420  0.00  0.00    +0.000 A 
ATOM     15  H   UNL     1       9.326   4.952  17.851  0.00  0.00    +0.000 HD
ATOM     16  H   UNL     1       8.329   5.540  18.979  0.00  0.00    +0.000 HD
ENDROOT
BRANCH   8  17
ATOM     17  C   UNL     1       3.106   4.768  20.049  0.00  0.00    +0.000 C 
ATOM     18  O   UNL     1       3.136   3.377  20.471  0.00  0.00    +0.000 OA
ATOM     19  C   UNL     1       2.061   2.669  19.809  0.00  0.00    +0.000 C 
ATOM     20  C   UNL     1       1.268   3.674  18.986  0.00  0.00    +0.000 C 
ATOM     21  C   UNL     1       1.678   5.002  19.574  0.00  0.00    +0.000 C 
BRANCH  21  22
ATOM     22  O   UNL     1       0.830   5.260  20.717  0.00  0.00    +0.000 OA
ATOM     23  H   UNL     1       1.175   4.769  21.486  0.00  0.00    +0.000 HD
ENDBRANCH  21  22
BRANCH  19  24
ATOM     24  C   UNL     1       2.643   1.536  18.959  0.00  0.00    +0.000 C 
BRANCH  24  25
ATOM     25  O   UNL     1       2.490   1.794  17.564  0.00  0.00    +0.000 OA
ATOM     26  H   UNL     1       3.220   1.359  17.092  0.00  0.00    +0.000 HD
ENDBRANCH  24  25
ENDBRANCH  19  24
ENDBRANCH   8  17
TORSDOF 4
ENDMDL
MODEL 7
REMARK VINA RESULT:      -7.3      1.877      3.378
REMARK  Name = 
REMARK  5 active torsions:
REMARK  status: ('A' for Active; 'I' for Inactive)
REMARK    1  A    between atoms: C_1  and  N_2
REMARK    2  A    between atoms: N_8  and  C_9
REMARK    3  A    between atoms: C_11  and  C_12
REMARK    4  A    between atoms: C_12  and  O_13
REMARK    5  A    between atoms: C_15  and  O_16
REMARK                            x       y       z     vdW  Elec       q    Type
REMARK                         _______ _______ _______ _____ _____    ______ ____
ROOT
ATOM      1  C   UNL     1       1.665   7.810  21.483  0.00  0.00    +0.000 C 
ATOM      2  N   UNL     1       1.482   6.839  20.426  0.00  0.00    +0.000 N 
ATOM      3  N   UNL     1       1.239   5.512  20.860  0.00  0.00    +0.000 NA
ATOM      4  C   UNL     1       1.742   4.532  20.146  0.00  0.00    +0.000 C 
ATOM      5  N   UNL     1       0.879   3.567  19.721  0.00  0.00    +0.000 N 
ATOM      6  C   UNL     1       2.907   4.719  19.319  0.00  0.00    +0.000 A 
ATOM      7  C   UNL     1       4.016   4.085  18.863  0.00  0.00    +0.000 A 
ATOM      8  N   UNL     1       4.649   4.914  17.922  0.00  0.00    +0.000 N 
ATOM      9  C   UNL     1       3.930   6.108  17.843  0.00  0.00    +0.000 A 
ATOM     10  N   UNL     1       4.018   7.166  17.024  0.00  0.00    +0.000 NA
ATOM     11  C   UNL     1       3.123   8.131  17.406  0.00  0.00    +0.000 A 
ATOM     12  N   UNL     1       2.319   8.192  18.507  0.00  0.00    +0.000 NA
ATOM     13  C   UNL     1       2.258   7.087  19.267  0.00  0.00    +0.000 A 
ATOM     14  C   UNL     1       3.018   6.017  18.844  0.00  0.00    +0.000 A 
ATOM     15  H   UNL     1      -0.036   3.874  20.060  0.00  0.00    +0.000 HD
ATOM     16  H   UNL     1       0.803   3.616  18.704  0.00  0.00    +0.000 HD
ENDROOT
BRANCH   8  17
ATOM     17  C   UNL     1       5.915   4.567  17.293  0.00  0.00    +0.000 C 
ATOM     18  O   UNL     1       6.856   4.236  18.350  0.00  0.00    +0.000 OA
ATOM     19  C   UNL     1       7.821   5.308  18.464  0.00  0.00    +0.000 C 
ATOM     20  C   UNL     1       7.522   6.332  17.379  0.00  0.00    +0.000 C 
ATOM     21  C   UNL     1       6.653   5.566  16.412  0.00  0.00    +0.000 C 
BRANCH  21  22
ATOM     22  O   UNL     1       7.525   4.852  15.505  0.00  0.00    +0.000 OA
ATOM     23  H   UNL     1       8.311   5.399  15.324  0.00  0.00    +0.000 HD
ENDBRANCH  21  22
BRANCH  19  24
ATOM     24  C   UNL     1       7.759   5.904  19.874  0.00  0.00    +0.000 C 
BRANCH  24  25
ATOM     25  O   UNL     1       8.490   5.114  20.810  0.00  0.00    +0.000 OA
ATOM     26  H   UNL     1       9.353   4.897  20.417  0.00  0.00    +0.000 HD
ENDBRANCH  24  25
ENDBRANCH  19  24
ENDBRANCH   8  17
TORSDOF 4
ENDMDL
MODEL 8
REMARK VINA RESULT:      -7.2      1.569      2.613
REMARK  Name = 
REMARK  5 active torsions:
REMARK  status: ('A' for Active; 'I' for Inactive)
REMARK    1  A    between atoms: C_1  and  N_2
REMARK    2  A    between atoms: N_8  and  C_9
REMARK    3  A    between atoms: C_11  and  C_12
REMARK    4  A    between atoms: C_12  and  O_13
REMARK    5  A    between atoms: C_15  and  O_16
REMARK                            x       y       z     vdW  Elec       q    Type
REMARK                         _______ _______ _______ _____ _____    ______ ____
ROOT
ATOM      1  C   UNL     1       1.836   3.724  21.879  0.00  0.00    +0.000 C 
ATOM      2  N   UNL     1       1.738   3.634  20.437  0.00  0.00    +0.000 N 
ATOM      3  N   UNL     1       1.705   2.318  19.914  0.00  0.00    +0.000 NA
ATOM      4  C   UNL     1       2.304   2.099  18.767  0.00  0.00    +0.000 C 
ATOM      5  N   UNL     1       1.564   1.517  17.781  0.00  0.00    +0.000 N 
ATOM      6  C   UNL     1       3.389   2.929  18.310  0.00  0.00    +0.000 A 
ATOM      7  C   UNL     1       4.552   2.892  17.612  0.00  0.00    +0.000 A 
ATOM      8  N   UNL     1       5.015   4.208  17.449  0.00  0.00    +0.000 N 
ATOM      9  C   UNL     1       4.134   5.065  18.110  0.00  0.00    +0.000 A 
ATOM     10  N   UNL     1       4.033   6.401  18.158  0.00  0.00    +0.000 NA
ATOM     11  C   UNL     1       3.031   6.765  19.021  0.00  0.00    +0.000 A 
ATOM     12  N   UNL     1       2.282   5.999  19.865  0.00  0.00    +0.000 NA
ATOM     13  C   UNL     1       2.414   4.668  19.744  0.00  0.00    +0.000 A 
ATOM     14  C   UNL     1       3.294   4.231  18.776  0.00  0.00    +0.000 A 
ATOM     15  H   UNL     1       0.634   1.408  18.190  0.00  0.00    +0.000 HD
ATOM     16  H   UNL     1       1.433   2.192  17.026  0.00  0.00    +0.000 HD
ENDROOT
BRANCH   8  17
ATOM     17  C   UNL     1       6.285   4.522  16.809  0.00  0.00    +0.000 C 
ATOM     18  O   UNL     1       7.334   4.340  17.799  0.00  0.00    +0.000 OA
ATOM     19  C   UNL     1       7.826   5.641  18.198  0.00  0.00    +0.000 C 
ATOM     20  C   UNL     1       7.107   6.694  17.366  0.00  0.00    +0.000 C 
ATOM     21  C   UNL     1       6.545   5.900  16.214  0.00  0.00    +0.000 C 
BRANCH  21  22
ATOM     22  O   UNL     1       7.575   5.798  15.203  0.00  0.00    +0.000 OA
ATOM     23  H   UNL     1       7.366   6.412  14.475  0.00  0.00    +0.000 HD
ENDBRANCH  21  22
BRANCH  19  24
ATOM     24  C   UNL     1       7.615   5.828  19.703  0.00  0.00    +0.000 C 
BRANCH  24  25
ATOM     25  O   UNL     1       8.606   5.138  20.462  0.00  0.00    +0.000 OA
ATOM     26  H   UNL     1       8.618   4.209  20.173  0.00  0.00    +0.000 HD
ENDBRANCH  24  25
ENDBRANCH  19  24
ENDBRANCH   8  17
TORSDOF 4
ENDMDL
MODEL 9
REMARK VINA RESULT:      -7.2      3.088      5.897
REMARK  Name = 
REMARK  5 active torsions:
REMARK  status: ('A' for Active; 'I' for Inactive)
REMARK    1  A    between atoms: C_1  and  N_2
REMARK    2  A    between atoms: N_8  and  C_9
REMARK    3  A    between atoms: C_11  and  C_12
REMARK    4  A    between atoms: C_12  and  O_13
REMARK    5  A    between atoms: C_15  and  O_16
REMARK                            x       y       z     vdW  Elec       q    Type
REMARK                         _______ _______ _______ _____ _____    ______ ____
ROOT
ATOM      1  C   UNL     1       7.497   7.506  17.428  0.00  0.00    +0.000 C 
ATOM      2  N   UNL     1       7.317   6.131  17.014  0.00  0.00    +0.000 N 
ATOM      3  N   UNL     1       7.128   5.938  15.624  0.00  0.00    +0.000 NA
ATOM      4  C   UNL     1       6.309   4.986  15.243  0.00  0.00    +0.000 C 
ATOM      5  N   UNL     1       6.795   4.062  14.366  0.00  0.00    +0.000 N 
ATOM      6  C   UNL     1       5.242   4.521  16.093  0.00  0.00    +0.000 A 
ATOM      7  C   UNL     1       3.972   4.045  16.062  0.00  0.00    +0.000 A 
ATOM      8  N   UNL     1       3.613   3.648  17.361  0.00  0.00    +0.000 N 
ATOM      9  C   UNL     1       4.679   3.939  18.214  0.00  0.00    +0.000 A 
ATOM     10  N   UNL     1       4.914   3.651  19.502  0.00  0.00    +0.000 NA
ATOM     11  C   UNL     1       6.088   4.232  19.907  0.00  0.00    +0.000 A 
ATOM     12  N   UNL     1       6.904   5.106  19.249  0.00  0.00    +0.000 NA
ATOM     13  C   UNL     1       6.626   5.327  17.954  0.00  0.00    +0.000 A 
ATOM     14  C   UNL     1       5.545   4.643  17.440  0.00  0.00    +0.000 A 
ATOM     15  H   UNL     1       7.770   4.333  14.223  0.00  0.00    +0.000 HD
ATOM     16  H   UNL     1       6.848   3.157  14.836  0.00  0.00    +0.000 HD
ENDROOT
BRANCH   8  17
ATOM     17  C   UNL     1       2.282   3.161  17.697  0.00  0.00    +0.000 C 
ATOM     18  O   UNL     1       1.492   4.303  18.127  0.00  0.00    +0.000 OA
ATOM     19  C   UNL     1       1.298   4.219  19.558  0.00  0.00    +0.000 C 
ATOM     20  C   UNL     1       1.933   2.925  20.047  0.00  0.00    +0.000 C 
ATOM     21  C   UNL     1       2.081   2.114  18.783  0.00  0.00    +0.000 C 
BRANCH  21  22
ATOM     22  O   UNL     1       0.832   1.421  18.555  0.00  0.00    +0.000 OA
ATOM     23  H   UNL     1       0.094   2.011  18.795  0.00  0.00    +0.000 HD
ENDBRANCH  21  22
BRANCH  19  24
ATOM     24  C   UNL     1       1.894   5.461  20.228  0.00  0.00    +0.000 C 
BRANCH  24  25
ATOM     25  O   UNL     1       2.673   5.116  21.373  0.00  0.00    +0.000 OA
ATOM     26  H   UNL     1       3.181   5.901  21.642  0.00  0.00    +0.000 HD
ENDBRANCH  24  25
ENDBRANCH  19  24
ENDBRANCH   8  17
TORSDOF 4
ENDMDL
