MODEL 1
REMARK VINA RESULT:      -8.1      0.000      0.000
REMARK  Name = 
REMARK  5 active torsions:
REMARK  status: ('A' for Active; 'I' for Inactive)
REMARK    1  A    between atoms: C_1  and  C_2
REMARK    2  A    between atoms: C_8  and  N_9
REMARK    3  A    between atoms: N_17  and  C_18
REMARK    4  A    between atoms: C_18  and  C_19
REMARK    5  A    between atoms: C_19  and  C_20
REMARK                            x       y       z     vdW  Elec       q    Type
REMARK                         _______ _______ _______ _____ _____    ______ ____
ROOT
ATOM      1  N   UNL     1       1.059   9.672  19.442  0.00  0.00    +0.000 N 
ATOM      2  C   UNL     1       1.651   9.781  18.195  0.00  0.00    +0.000 A 
ATOM      3  C   UNL     1       2.402   8.801  17.688  0.00  0.00    +0.000 A 
ATOM      4  N   UNL     1       2.623   7.599  18.298  0.00  0.00    +0.000 NA
ATOM      5  C   UNL     1       2.130   7.455  19.490  0.00  0.00    +0.000 A 
ATOM      6  N   UNL     1       2.283   6.277  20.202  0.00  0.00    +0.000 N 
ATOM      7  C   UNL     1       2.941   5.118  19.855  0.00  0.00    +0.000 C 
ATOM      8  O   UNL     1       2.986   4.178  20.643  0.00  0.00    +0.000 OA
ATOM      9  N   UNL     1       3.531   5.108  18.626  0.00  0.00    +0.000 N 
ATOM     10  C   UNL     1       1.320   8.535  20.225  0.00  0.00    +0.000 A 
ATOM     11  O   UNL     1       0.954   8.306  21.372  0.00  0.00    +0.000 OA
ATOM     12  H   UNL     1       1.864   6.247  21.125  0.00  0.00    +0.000 HD
ATOM     13  H   UNL     1       3.250   5.852  17.992  0.00  0.00    +0.000 HD
ENDROOT
BRANCH   1  21
ATOM     14  C   UNL     1      -1.778   9.993  18.739  0.00  0.00    +0.000 C 
ATOM     15  C   UNL     1      -1.033  11.002  19.579  0.00  0.00    +0.000 A 
ATOM     16  C   UNL     1      -1.651  12.189  20.017  0.00  0.00    +0.000 A 
ATOM     17 CL   UNL     1      -3.262  12.620  19.556  0.00  0.00    +0.000 Cl
ATOM     18  C   UNL     1      -0.975  13.088  20.849  0.00  0.00    +0.000 A 
ATOM     19  C   UNL     1       0.324  12.817  21.267  0.00  0.00    +0.000 A 
ATOM     20  C   UNL     1       0.959  11.654  20.840  0.00  0.00    +0.000 A 
ATOM     21  C   UNL     1       0.306  10.759  19.979  0.00  0.00    +0.000 A 
ENDBRANCH   1  21
BRANCH   9  22
ATOM     22  C   UNL     1       4.209   3.934  18.119  0.00  0.00    +0.000 C 
BRANCH  22  23
ATOM     23  C   UNL     1       5.198   4.239  16.991  0.00  0.00    +0.000 C 
BRANCH  23  24
ATOM     24  C   UNL     1       6.238   5.231  17.456  0.00  0.00    +0.000 A 
ATOM     25  C   UNL     1       7.058   4.934  18.553  0.00  0.00    +0.000 A 
ATOM     26  C   UNL     1       7.954   5.884  19.046  0.00  0.00    +0.000 A 
ATOM     27  C   UNL     1       8.041   7.139  18.447  0.00  0.00    +0.000 A 
ATOM     28  C   UNL     1       7.240   7.441  17.347  0.00  0.00    +0.000 A 
ATOM     29  C   UNL     1       6.342   6.491  16.853  0.00  0.00    +0.000 A 
ENDBRANCH  23  24
ENDBRANCH  22  23
ENDBRANCH   9  22
TORSDOF 4
ENDMDL
MODEL 2
REMARK VINA RESULT:      -8.0      2.191      4.035
REMARK  Name = 
REMARK  5 active torsions:
REMARK  status: ('A' for Active; 'I' for Inactive)
REMARK    1  A    between atoms: C_1  and  C_2
REMARK    2  A    between atoms: C_8  and  N_9
REMARK    3  A    between atoms: N_17  and  C_18
REMARK    4  A    between atoms: C_18  and  C_19
REMARK    5  A    between atoms: C_19  and  C_20
REMARK                            x       y       z     vdW  Elec       q    Type
REMARK                         _______ _______ _______ _____ _____    ______ ____
ROOT
ATOM      1  N   UNL     1       0.731   9.752  19.652  0.00  0.00    +0.000 N 
ATOM      2  C   UNL     1       0.688   8.909  20.750  0.00  0.00    +0.000 A 
ATOM      3  C   UNL     1       1.403   7.783  20.797  0.00  0.00    +0.000 A 
ATOM      4  N   UNL     1       2.268   7.373  19.823  0.00  0.00    +0.000 NA
ATOM      5  C   UNL     1       2.318   8.100  18.749  0.00  0.00    +0.000 A 
ATOM      6  N   UNL     1       3.165   7.787  17.699  0.00  0.00    +0.000 N 
ATOM      7  C   UNL     1       4.041   6.733  17.557  0.00  0.00    +0.000 C 
ATOM      8  O   UNL     1       4.696   6.613  16.527  0.00  0.00    +0.000 OA
ATOM      9  N   UNL     1       4.101   5.860  18.603  0.00  0.00    +0.000 N 
ATOM     10  C   UNL     1       1.484   9.372  18.529  0.00  0.00    +0.000 A 
ATOM     11  O   UNL     1       1.574   9.946  17.449  0.00  0.00    +0.000 OA
ATOM     12  H   UNL     1       3.144   8.409  16.898  0.00  0.00    +0.000 HD
ATOM     13  H   UNL     1       3.676   6.175  19.471  0.00  0.00    +0.000 HD
ENDROOT
BRANCH   1  21
ATOM     14  C   UNL     1       1.813  12.342  20.529  0.00  0.00    +0.000 C 
ATOM     15  C   UNL     1       0.370  12.163  20.123  0.00  0.00    +0.000 A 
ATOM     16  C   UNL     1      -0.552  13.225  20.205  0.00  0.00    +0.000 A 
ATOM     17 CL   UNL     1      -0.128  14.771  20.857  0.00  0.00    +0.000 Cl
ATOM     18  C   UNL     1      -1.870  13.069  19.766  0.00  0.00    +0.000 A 
ATOM     19  C   UNL     1      -2.293  11.858  19.227  0.00  0.00    +0.000 A 
ATOM     20  C   UNL     1      -1.402  10.791  19.142  0.00  0.00    +0.000 A 
ATOM     21  C   UNL     1      -0.086  10.921  19.611  0.00  0.00    +0.000 A 
ENDBRANCH   1  21
BRANCH   9  22
ATOM     22  C   UNL     1       5.018   4.740  18.604  0.00  0.00    +0.000 C 
BRANCH  22  23
ATOM     23  C   UNL     1       4.344   3.398  18.308  0.00  0.00    +0.000 C 
BRANCH  23  24
ATOM     24  C   UNL     1       3.216   3.149  19.282  0.00  0.00    +0.000 A 
ATOM     25  C   UNL     1       1.885   3.347  18.890  0.00  0.00    +0.000 A 
ATOM     26  C   UNL     1       0.847   3.211  19.812  0.00  0.00    +0.000 A 
ATOM     27  C   UNL     1       1.127   2.874  21.135  0.00  0.00    +0.000 A 
ATOM     28  C   UNL     1       2.446   2.662  21.533  0.00  0.00    +0.000 A 
ATOM     29  C   UNL     1       3.486   2.798  20.612  0.00  0.00    +0.000 A 
ENDBRANCH  23  24
ENDBRANCH  22  23
ENDBRANCH   9  22
TORSDOF 4
ENDMDL
MODEL 3
REMARK VINA RESULT:      -7.8      3.409      9.184
REMARK  Name = 
REMARK  5 active torsions:
REMARK  status: ('A' for Active; 'I' for Inactive)
REMARK    1  A    between atoms: C_1  and  C_2
REMARK    2  A    between atoms: C_8  and  N_9
REMARK    3  A    between atoms: N_17  and  C_18
REMARK    4  A    between atoms: C_18  and  C_19
REMARK    5  A    between atoms: C_19  and  C_20
REMARK                            x       y       z     vdW  Elec       q    Type
REMARK                         _______ _______ _______ _____ _____    ______ ____
ROOT
ATOM      1  N   UNL     1       2.548   7.338  18.508  0.00  0.00    +0.000 N 
ATOM      2  C   UNL     1       2.048   8.315  17.664  0.00  0.00    +0.000 A 
ATOM      3  C   UNL     1       1.293   9.316  18.121  0.00  0.00    +0.000 A 
ATOM      4  N   UNL     1       0.977   9.512  19.435  0.00  0.00    +0.000 NA
ATOM      5  C   UNL     1       1.381   8.603  20.269  0.00  0.00    +0.000 A 
ATOM      6  N   UNL     1       1.128   8.699  21.627  0.00  0.00    +0.000 N 
ATOM      7  C   UNL     1       0.445   9.667  22.329  0.00  0.00    +0.000 C 
ATOM      8  O   UNL     1       0.305   9.561  23.544  0.00  0.00    +0.000 OA
ATOM      9  N   UNL     1      -0.058  10.698  21.593  0.00  0.00    +0.000 N 
ATOM     10  C   UNL     1       2.184   7.356  19.864  0.00  0.00    +0.000 A 
ATOM     11  O   UNL     1       2.460   6.536  20.733  0.00  0.00    +0.000 OA
ATOM     12  H   UNL     1       1.480   7.946  22.209  0.00  0.00    +0.000 HD
ATOM     13  H   UNL     1       0.298  10.783  20.644  0.00  0.00    +0.000 HD
ENDROOT
BRANCH   1  21
ATOM     14  C   UNL     1       1.280   4.722  18.065  0.00  0.00    +0.000 C 
ATOM     15  C   UNL     1       2.756   4.952  17.851  0.00  0.00    +0.000 A 
ATOM     16  C   UNL     1       3.617   3.899  17.487  0.00  0.00    +0.000 A 
ATOM     17 CL   UNL     1       3.072   2.263  17.347  0.00  0.00    +0.000 Cl
ATOM     18  C   UNL     1       4.972   4.133  17.228  0.00  0.00    +0.000 A 
ATOM     19  C   UNL     1       5.492   5.421  17.317  0.00  0.00    +0.000 A 
ATOM     20  C   UNL     1       4.662   6.477  17.683  0.00  0.00    +0.000 A 
ATOM     21  C   UNL     1       3.309   6.252  17.980  0.00  0.00    +0.000 A 
ENDBRANCH   1  21
BRANCH   9  22
ATOM     22  C   UNL     1      -0.750  11.808  22.215  0.00  0.00    +0.000 C 
BRANCH  22  23
ATOM     23  C   UNL     1      -1.928  12.333  21.389  0.00  0.00    +0.000 C 
BRANCH  23  24
ATOM     24  C   UNL     1      -3.126  12.576  22.275  0.00  0.00    +0.000 A 
ATOM     25  C   UNL     1      -3.034  12.380  23.660  0.00  0.00    +0.000 A 
ATOM     26  C   UNL     1      -4.163  12.511  24.471  0.00  0.00    +0.000 A 
ATOM     27  C   UNL     1      -5.394  12.840  23.907  0.00  0.00    +0.000 A 
ATOM     28  C   UNL     1      -5.495  13.050  22.532  0.00  0.00    +0.000 A 
ATOM     29  C   UNL     1      -4.367  12.919  21.719  0.00  0.00    +0.000 A 
ENDBRANCH  23  24
ENDBRANCH  22  23
ENDBRANCH   9  22
TORSDOF 4
ENDMDL
MODEL 4
REMARK VINA RESULT:      -7.8      2.079      3.748
REMARK  Name = 
REMARK  5 active torsions:
REMARK  status: ('A' for Active; 'I' for Inactive)
REMARK    1  A    between atoms: C_1  and  C_2
REMARK    2  A    between atoms: C_8  and  N_9
REMARK    3  A    between atoms: N_17  and  C_18
REMARK    4  A    between atoms: C_18  and  C_19
REMARK    5  A    between atoms: C_19  and  C_20
REMARK                            x       y       z     vdW  Elec       q    Type
REMARK                         _______ _______ _______ _____ _____    ______ ____
ROOT
ATOM      1  N   UNL     1       1.085   9.454  19.676  0.00  0.00    +0.000 N 
ATOM      2  C   UNL     1       0.985   8.525  20.698  0.00  0.00    +0.000 A 
ATOM      3  C   UNL     1       1.620   7.352  20.644  0.00  0.00    +0.000 A 
ATOM      4  N   UNL     1       2.453   6.968  19.631  0.00  0.00    +0.000 NA
ATOM      5  C   UNL     1       2.552   7.779  18.623  0.00  0.00    +0.000 A 
ATOM      6  N   UNL     1       3.373   7.500  17.544  0.00  0.00    +0.000 N 
ATOM      7  C   UNL     1       4.173   6.404  17.306  0.00  0.00    +0.000 C 
ATOM      8  O   UNL     1       4.816   6.328  16.264  0.00  0.00    +0.000 OA
ATOM      9  N   UNL     1       4.174   5.442  18.272  0.00  0.00    +0.000 N 
ATOM     10  C   UNL     1       1.808   9.121  18.519  0.00  0.00    +0.000 A 
ATOM     11  O   UNL     1       1.936   9.777  17.491  0.00  0.00    +0.000 OA
ATOM     12  H   UNL     1       3.394   8.188  16.799  0.00  0.00    +0.000 HD
ATOM     13  H   UNL     1       3.773   5.711  19.168  0.00  0.00    +0.000 HD
ENDROOT
BRANCH   1  21
ATOM     14  C   UNL     1      -1.652   9.593  18.610  0.00  0.00    +0.000 C 
ATOM     15  C   UNL     1      -0.929  10.805  19.145  0.00  0.00    +0.000 A 
ATOM     16  C   UNL     1      -1.513  12.086  19.100  0.00  0.00    +0.000 A 
ATOM     17 CL   UNL     1      -3.048  12.379  18.355  0.00  0.00    +0.000 Cl
ATOM     18  C   UNL     1      -0.864  13.193  19.655  0.00  0.00    +0.000 A 
ATOM     19  C   UNL     1       0.373  13.045  20.275  0.00  0.00    +0.000 A 
ATOM     20  C   UNL     1       0.974  11.790  20.324  0.00  0.00    +0.000 A 
ATOM     21  C   UNL     1       0.351  10.676  19.741  0.00  0.00    +0.000 A 
ENDBRANCH   1  21
BRANCH   9  22
ATOM     22  C   UNL     1       5.011   4.265  18.170  0.00  0.00    +0.000 C 
BRANCH  22  23
ATOM     23  C   UNL     1       4.219   2.965  18.013  0.00  0.00    +0.000 C 
BRANCH  23  24
ATOM     24  C   UNL     1       3.159   2.859  19.084  0.00  0.00    +0.000 A 
ATOM     25  C   UNL     1       1.804   3.008  18.756  0.00  0.00    +0.000 A 
ATOM     26  C   UNL     1       0.829   3.007  19.754  0.00  0.00    +0.000 A 
ATOM     27  C   UNL     1       1.197   2.856  21.090  0.00  0.00    +0.000 A 
ATOM     28  C   UNL     1       2.540   2.695  21.427  0.00  0.00    +0.000 A 
ATOM     29  C   UNL     1       3.517   2.696  20.429  0.00  0.00    +0.000 A 
ENDBRANCH  23  24
ENDBRANCH  22  23
ENDBRANCH   9  22
TORSDOF 4
ENDMDL
MODEL 5
REMARK VINA RESULT:      -7.7      3.021      8.317
REMARK  Name = 
REMARK  5 active torsions:
REMARK  status: ('A' for Active; 'I' for Inactive)
REMARK    1  A    between atoms: C_1  and  C_2
REMARK    2  A    between atoms: C_8  and  N_9
REMARK    3  A    between atoms: N_17  and  C_18
REMARK    4  A    between atoms: C_18  and  C_19
REMARK    5  A    between atoms: C_19  and  C_20
REMARK                            x       y       z     vdW  Elec       q    Type
REMARK                         _______ _______ _______ _____ _____    ______ ____
ROOT
ATOM      1  N   UNL     1       2.756   6.979  18.869  0.00  0.00    +0.000 N 
ATOM      2  C   UNL     1       2.737   7.916  17.850  0.00  0.00    +0.000 A 
ATOM      3  C   UNL     1       2.029   9.043  17.948  0.00  0.00    +0.000 A 
ATOM      4  N   UNL     1       1.306   9.411  19.047  0.00  0.00    +0.000 NA
ATOM      5  C   UNL     1       1.250   8.552  20.018  0.00  0.00    +0.000 A 
ATOM      6  N   UNL     1       0.556   8.819  21.186  0.00  0.00    +0.000 N 
ATOM      7  C   UNL     1      -0.176   9.931  21.540  0.00  0.00    +0.000 C 
ATOM      8  O   UNL     1      -0.747   9.970  22.626  0.00  0.00    +0.000 OA
ATOM      9  N   UNL     1      -0.229  10.933  20.617  0.00  0.00    +0.000 N 
ATOM     10  C   UNL     1       1.948   7.182  19.999  0.00  0.00    +0.000 A 
ATOM     11  O   UNL     1       1.776   6.430  20.952  0.00  0.00    +0.000 OA
ATOM     12  H   UNL     1       0.565   8.094  21.895  0.00  0.00    +0.000 HD
ATOM     13  H   UNL     1       0.445  10.874  19.858  0.00  0.00    +0.000 HD
ENDROOT
BRANCH   1  21
ATOM     14  C   UNL     1       1.443   4.616  17.711  0.00  0.00    +0.000 C 
ATOM     15  C   UNL     1       2.852   4.575  18.253  0.00  0.00    +0.000 A 
ATOM     16  C   UNL     1       3.588   3.375  18.289  0.00  0.00    +0.000 A 
ATOM     17 CL   UNL     1       2.912   1.858  17.804  0.00  0.00    +0.000 Cl
ATOM     18  C   UNL     1       4.914   3.358  18.733  0.00  0.00    +0.000 A 
ATOM     19  C   UNL     1       5.535   4.535  19.141  0.00  0.00    +0.000 A 
ATOM     20  C   UNL     1       4.824   5.732  19.122  0.00  0.00    +0.000 A 
ATOM     21  C   UNL     1       3.482   5.760  18.712  0.00  0.00    +0.000 A 
ENDBRANCH   1  21
BRANCH   9  22
ATOM     22  C   UNL     1      -0.920  12.177  20.885  0.00  0.00    +0.000 C 
BRANCH  22  23
ATOM     23  C   UNL     1      -1.462  12.858  19.626  0.00  0.00    +0.000 C 
BRANCH  23  24
ATOM     24  C   UNL     1      -2.187  11.858  18.756  0.00  0.00    +0.000 A 
ATOM     25  C   UNL     1      -1.479  11.084  17.826  0.00  0.00    +0.000 A 
ATOM     26  C   UNL     1      -2.155  10.230  16.954  0.00  0.00    +0.000 A 
ATOM     27  C   UNL     1      -3.544  10.138  17.003  0.00  0.00    +0.000 A 
ATOM     28  C   UNL     1      -4.258  10.894  17.932  0.00  0.00    +0.000 A 
ATOM     29  C   UNL     1      -3.583  11.750  18.805  0.00  0.00    +0.000 A 
ENDBRANCH  23  24
ENDBRANCH  22  23
ENDBRANCH   9  22
TORSDOF 4
ENDMDL
MODEL 6
REMARK VINA RESULT:      -7.7      3.102      4.985
REMARK  Name = 
REMARK  5 active torsions:
REMARK  status: ('A' for Active; 'I' for Inactive)
REMARK    1  A    between atoms: C_1  and  C_2
REMARK    2  A    between atoms: C_8  and  N_9
REMARK    3  A    between atoms: N_17  and  C_18
REMARK    4  A    between atoms: C_18  and  C_19
REMARK    5  A    between atoms: C_19  and  C_20
REMARK                            x       y       z     vdW  Elec       q    Type
REMARK                         _______ _______ _______ _____ _____    ______ ____
ROOT
ATOM      1  N   UNL     1      -0.751  11.253  22.263  0.00  0.00    +0.000 N 
ATOM      2  C   UNL     1      -0.306  10.236  23.090  0.00  0.00    +0.000 A 
ATOM      3  C   UNL     1       0.418   9.218  22.621  0.00  0.00    +0.000 A 
ATOM      4  N   UNL     1       0.831   9.092  21.325  0.00  0.00    +0.000 NA
ATOM      5  C   UNL     1       0.408   9.993  20.493  0.00  0.00    +0.000 A 
ATOM      6  N   UNL     1       0.768   9.974  19.156  0.00  0.00    +0.000 N 
ATOM      7  C   UNL     1       1.559   9.079  18.470  0.00  0.00    +0.000 C 
ATOM      8  O   UNL     1       1.744   9.221  17.265  0.00  0.00    +0.000 OA
ATOM      9  N   UNL     1       2.079   8.055  19.203  0.00  0.00    +0.000 N 
ATOM     10  C   UNL     1      -0.503  11.169  20.883  0.00  0.00    +0.000 A 
ATOM     11  O   UNL     1      -0.885  11.926  19.998  0.00  0.00    +0.000 OA
ATOM     12  H   UNL     1       0.395  10.717  18.574  0.00  0.00    +0.000 HD
ATOM     13  H   UNL     1       2.029   8.160  20.214  0.00  0.00    +0.000 HD
ENDROOT
BRANCH   1  21
ATOM     14  C   UNL     1       0.217  14.029  22.250  0.00  0.00    +0.000 C 
ATOM     15  C   UNL     1      -1.091  13.632  22.890  0.00  0.00    +0.000 A 
ATOM     16  C   UNL     1      -1.888  14.570  23.573  0.00  0.00    +0.000 A 
ATOM     17 CL   UNL     1      -1.392  16.211  23.808  0.00  0.00    +0.000 Cl
ATOM     18  C   UNL     1      -3.129  14.207  24.107  0.00  0.00    +0.000 A 
ATOM     19  C   UNL     1      -3.604  12.907  23.962  0.00  0.00    +0.000 A 
ATOM     20  C   UNL     1      -2.831  11.960  23.297  0.00  0.00    +0.000 A 
ATOM     21  C   UNL     1      -1.568  12.300  22.786  0.00  0.00    +0.000 A 
ENDBRANCH   1  21
BRANCH   9  22
ATOM     22  C   UNL     1       2.969   7.075  18.615  0.00  0.00    +0.000 C 
BRANCH  22  23
ATOM     23  C   UNL     1       3.319   5.923  19.560  0.00  0.00    +0.000 C 
BRANCH  23  24
ATOM     24  C   UNL     1       2.426   4.734  19.296  0.00  0.00    +0.000 A 
ATOM     25  C   UNL     1       1.525   4.294  20.276  0.00  0.00    +0.000 A 
ATOM     26  C   UNL     1       0.768   3.140  20.076  0.00  0.00    +0.000 A 
ATOM     27  C   UNL     1       0.900   2.414  18.893  0.00  0.00    +0.000 A 
ATOM     28  C   UNL     1       1.784   2.849  17.906  0.00  0.00    +0.000 A 
ATOM     29  C   UNL     1       2.543   4.004  18.106  0.00  0.00    +0.000 A 
ENDBRANCH  23  24
ENDBRANCH  22  23
ENDBRANCH   9  22
TORSDOF 4
ENDMDL
MODEL 7
REMARK VINA RESULT:      -7.7      3.349      9.237
REMARK  Name = 
REMARK  5 active torsions:
REMARK  status: ('A' for Active; 'I' for Inactive)
REMARK    1  A    between atoms: C_1  and  C_2
REMARK    2  A    between atoms: C_8  and  N_9
REMARK    3  A    between atoms: N_17  and  C_18
REMARK    4  A    between atoms: C_18  and  C_19
REMARK    5  A    between atoms: C_19  and  C_20
REMARK                            x       y       z     vdW  Elec       q    Type
REMARK                         _______ _______ _______ _____ _____    ______ ____
ROOT
ATOM      1  N   UNL     1       2.314   7.126  18.571  0.00  0.00    +0.000 N 
ATOM      2  C   UNL     1       2.082   8.160  17.680  0.00  0.00    +0.000 A 
ATOM      3  C   UNL     1       1.515   9.305  18.068  0.00  0.00    +0.000 A 
ATOM      4  N   UNL     1       1.157   9.596  19.353  0.00  0.00    +0.000 NA
ATOM      5  C   UNL     1       1.310   8.648  20.226  0.00  0.00    +0.000 A 
ATOM      6  N   UNL     1       0.991   8.831  21.562  0.00  0.00    +0.000 N 
ATOM      7  C   UNL     1       0.472   9.935  22.200  0.00  0.00    +0.000 C 
ATOM      8  O   UNL     1       0.231   9.894  23.402  0.00  0.00    +0.000 OA
ATOM      9  N   UNL     1       0.239  11.026  21.415  0.00  0.00    +0.000 N 
ATOM     10  C   UNL     1       1.870   7.254  19.897  0.00  0.00    +0.000 A 
ATOM     11  O   UNL     1       1.916   6.420  20.795  0.00  0.00    +0.000 OA
ATOM     12  H   UNL     1       1.143   8.039  22.177  0.00  0.00    +0.000 HD
ATOM     13  H   UNL     1       0.668  11.011  20.493  0.00  0.00    +0.000 HD
ENDROOT
BRANCH   1  21
ATOM     14  C   UNL     1       5.119   7.014  17.694  0.00  0.00    +0.000 C 
ATOM     15  C   UNL     1       4.190   5.829  17.588  0.00  0.00    +0.000 A 
ATOM     16  C   UNL     1       4.608   4.621  16.999  0.00  0.00    +0.000 A 
ATOM     17 CL   UNL     1       6.171   4.433  16.279  0.00  0.00    +0.000 Cl
ATOM     18  C   UNL     1       3.762   3.507  16.962  0.00  0.00    +0.000 A 
ATOM     19  C   UNL     1       2.489   3.573  17.519  0.00  0.00    +0.000 A 
ATOM     20  C   UNL     1       2.050   4.760  18.100  0.00  0.00    +0.000 A 
ATOM     21  C   UNL     1       2.874   5.895  18.114  0.00  0.00    +0.000 A 
ENDBRANCH   1  21
BRANCH   9  22
ATOM     22  C   UNL     1      -0.255  12.269  21.970  0.00  0.00    +0.000 C 
BRANCH  22  23
ATOM     23  C   UNL     1      -1.435  12.858  21.193  0.00  0.00    +0.000 C 
BRANCH  23  24
ATOM     24  C   UNL     1      -2.686  12.840  22.038  0.00  0.00    +0.000 A 
ATOM     25  C   UNL     1      -3.857  13.461  21.582  0.00  0.00    +0.000 A 
ATOM     26  C   UNL     1      -4.986  13.531  22.399  0.00  0.00    +0.000 A 
ATOM     27  C   UNL     1      -4.959  12.978  23.678  0.00  0.00    +0.000 A 
ATOM     28  C   UNL     1      -3.803  12.347  24.137  0.00  0.00    +0.000 A 
ATOM     29  C   UNL     1      -2.672  12.277  23.321  0.00  0.00    +0.000 A 
ENDBRANCH  23  24
ENDBRANCH  22  23
ENDBRANCH   9  22
TORSDOF 4
ENDMDL
MODEL 8
REMARK VINA RESULT:      -7.7      1.432      2.013
REMARK  Name = 
REMARK  5 active torsions:
REMARK  status: ('A' for Active; 'I' for Inactive)
REMARK    1  A    between atoms: C_1  and  C_2
REMARK    2  A    between atoms: C_8  and  N_9
REMARK    3  A    between atoms: N_17  and  C_18
REMARK    4  A    between atoms: C_18  and  C_19
REMARK    5  A    between atoms: C_19  and  C_20
REMARK                            x       y       z     vdW  Elec       q    Type
REMARK                         _______ _______ _______ _____ _____    ______ ____
ROOT
ATOM      1  N   UNL     1       1.586   8.316  19.694  0.00  0.00    +0.000 N 
ATOM      2  C   UNL     1       2.168   8.955  18.612  0.00  0.00    +0.000 A 
ATOM      3  C   UNL     1       2.967   8.305  17.763  0.00  0.00    +0.000 A 
ATOM      4  N   UNL     1       3.253   6.972  17.833  0.00  0.00    +0.000 NA
ATOM      5  C   UNL     1       2.771   6.329  18.852  0.00  0.00    +0.000 A 
ATOM      6  N   UNL     1       2.987   4.972  19.024  0.00  0.00    +0.000 N 
ATOM      7  C   UNL     1       3.704   4.089  18.247  0.00  0.00    +0.000 C 
ATOM      8  O   UNL     1       3.800   2.913  18.583  0.00  0.00    +0.000 OA
ATOM      9  N   UNL     1       4.290   4.612  17.132  0.00  0.00    +0.000 N 
ATOM     10  C   UNL     1       1.908   6.973  19.949  0.00  0.00    +0.000 A 
ATOM     11  O   UNL     1       1.557   6.277  20.895  0.00  0.00    +0.000 OA
ATOM     12  H   UNL     1       2.573   4.547  19.846  0.00  0.00    +0.000 HD
ATOM     13  H   UNL     1       3.969   5.535  16.852  0.00  0.00    +0.000 HD
ENDROOT
BRANCH   1  21
ATOM     14  C   UNL     1      -0.485  10.152  18.701  0.00  0.00    +0.000 C 
ATOM     15  C   UNL     1      -0.157  10.020  20.168  0.00  0.00    +0.000 A 
ATOM     16  C   UNL     1      -0.790  10.824  21.136  0.00  0.00    +0.000 A 
ATOM     17 CL   UNL     1      -1.911  12.073  20.714  0.00  0.00    +0.000 Cl
ATOM     18  C   UNL     1      -0.527  10.651  22.499  0.00  0.00    +0.000 A 
ATOM     19  C   UNL     1       0.361   9.668  22.924  0.00  0.00    +0.000 A 
ATOM     20  C   UNL     1       1.005   8.867  21.986  0.00  0.00    +0.000 A 
ATOM     21  C   UNL     1       0.778   9.051  20.613  0.00  0.00    +0.000 A 
ENDBRANCH   1  21
BRANCH   9  22
ATOM     22  C   UNL     1       5.027   3.782  16.202  0.00  0.00    +0.000 C 
BRANCH  22  23
ATOM     23  C   UNL     1       6.351   4.403  15.747  0.00  0.00    +0.000 C 
BRANCH  23  24
ATOM     24  C   UNL     1       6.908   5.305  16.822  0.00  0.00    +0.000 A 
ATOM     25  C   UNL     1       6.988   6.689  16.612  0.00  0.00    +0.000 A 
ATOM     26  C   UNL     1       7.590   7.516  17.562  0.00  0.00    +0.000 A 
ATOM     27  C   UNL     1       8.114   6.969  18.732  0.00  0.00    +0.000 A 
ATOM     28  C   UNL     1       8.029   5.596  18.957  0.00  0.00    +0.000 A 
ATOM     29  C   UNL     1       7.428   4.767  18.007  0.00  0.00    +0.000 A 
ENDBRANCH  23  24
ENDBRANCH  22  23
ENDBRANCH   9  22
TORSDOF 4
ENDMDL
MODEL 9
REMARK VINA RESULT:      -7.7      3.435      9.240
REMARK  Name = 
REMARK  5 active torsions:
REMARK  status: ('A' for Active; 'I' for Inactive)
REMARK    1  A    between atoms: C_1  and  C_2
REMARK    2  A    between atoms: C_8  and  N_9
REMARK    3  A    between atoms: N_17  and  C_18
REMARK    4  A    between atoms: C_18  and  C_19
REMARK    5  A    between atoms: C_19  and  C_20
REMARK                            x       y       z     vdW  Elec       q    Type
REMARK                         _______ _______ _______ _____ _____    ______ ____
ROOT
ATOM      1  N   UNL     1       2.573   6.872  18.450  0.00  0.00    +0.000 N 
ATOM      2  C   UNL     1       2.238   7.884  17.566  0.00  0.00    +0.000 A 
ATOM      3  C   UNL     1       1.632   9.000  17.976  0.00  0.00    +0.000 A 
ATOM      4  N   UNL     1       1.330   9.284  19.277  0.00  0.00    +0.000 NA
ATOM      5  C   UNL     1       1.581   8.354  20.147  0.00  0.00    +0.000 A 
ATOM      6  N   UNL     1       1.325   8.532  21.496  0.00  0.00    +0.000 N 
ATOM      7  C   UNL     1       0.783   9.614  22.155  0.00  0.00    +0.000 C 
ATOM      8  O   UNL     1       0.610   9.571  23.369  0.00  0.00    +0.000 OA
ATOM      9  N   UNL     1       0.450  10.683  21.377  0.00  0.00    +0.000 N 
ATOM     10  C   UNL     1       2.196   6.989  19.797  0.00  0.00    +0.000 A 
ATOM     11  O   UNL     1       2.334   6.167  20.696  0.00  0.00    +0.000 OA
ATOM     12  H   UNL     1       1.553   7.756  22.108  0.00  0.00    +0.000 HD
ATOM     13  H   UNL     1       0.828  10.682  20.433  0.00  0.00    +0.000 HD
ENDROOT
BRANCH   1  21
ATOM     14  C   UNL     1       5.416   6.834  17.699  0.00  0.00    +0.000 C 
ATOM     15  C   UNL     1       4.512   5.641  17.503  0.00  0.00    +0.000 A 
ATOM     16  C   UNL     1       4.975   4.463  16.887  0.00  0.00    +0.000 A 
ATOM     17 CL   UNL     1       6.572   4.326  16.233  0.00  0.00    +0.000 Cl
ATOM     18  C   UNL     1       4.150   3.341  16.768  0.00  0.00    +0.000 A 
ATOM     19  C   UNL     1       2.851   3.366  17.268  0.00  0.00    +0.000 A 
ATOM     20  C   UNL     1       2.368   4.523  17.874  0.00  0.00    +0.000 A 
ATOM     21  C   UNL     1       3.173   5.668  17.971  0.00  0.00    +0.000 A 
ENDBRANCH   1  21
BRANCH   9  22
ATOM     22  C   UNL     1      -0.079  11.903  21.950  0.00  0.00    +0.000 C 
BRANCH  22  23
ATOM     23  C   UNL     1      -1.608  11.928  22.028  0.00  0.00    +0.000 C 
BRANCH  23  24
ATOM     24  C   UNL     1      -2.065  12.866  23.120  0.00  0.00    +0.000 A 
ATOM     25  C   UNL     1      -3.341  12.729  23.683  0.00  0.00    +0.000 A 
ATOM     26  C   UNL     1      -3.805  13.651  24.622  0.00  0.00    +0.000 A 
ATOM     27  C   UNL     1      -2.997  14.718  25.012  0.00  0.00    +0.000 A 
ATOM     28  C   UNL     1      -1.720  14.857  24.468  0.00  0.00    +0.000 A 
ATOM     29  C   UNL     1      -1.256  13.936  23.527  0.00  0.00    +0.000 A 
ENDBRANCH  23  24
ENDBRANCH  22  23
ENDBRANCH   9  22
TORSDOF 4
ENDMDL
