MODEL 1
REMARK VINA RESULT:      -7.8      0.000      0.000
REMARK  Name = 
REMARK  6 active torsions:
REMARK  status: ('A' for Active; 'I' for Inactive)
REMARK    1  A    between atoms: C_1  and  C_2
REMARK    2  A    between atoms: C_2  and  N_3
REMARK    3  A    between atoms: C_11  and  S_12
REMARK    4  A    between atoms: S_12  and  N_15
REMARK    5  A    between atoms: C_19  and  C_20
REMARK    6  A    between atoms: N_22  and  O_23
REMARK                            x       y       z     vdW  Elec       q    Type
REMARK                         _______ _______ _______ _____ _____    ______ ____
ROOT
ATOM      1  N   UNL     1       0.578   8.620  21.086  0.00  0.00    +0.000 N 
ATOM      2  C   UNL     1       0.683   9.704  20.183  0.00  0.00    +0.000 C 
ATOM      3  O   UNL     1       0.061  10.756  20.246  0.00  0.00    +0.000 OA
ATOM      4  C   UNL     1       1.601   9.197  19.186  0.00  0.00    +0.000 A 
ATOM      5  C   UNL     1       1.990   9.766  17.980  0.00  0.00    +0.000 A 
ATOM      6  C   UNL     1       2.690   8.933  17.097  0.00  0.00    +0.000 A 
ATOM      7  C   UNL     1       3.073   7.625  17.463  0.00  0.00    +0.000 A 
ATOM      8  C   UNL     1       2.817   7.105  18.759  0.00  0.00    +0.000 A 
ATOM      9  C   UNL     1       3.186   5.880  19.391  0.00  0.00    +0.000 A 
ATOM     10  C   UNL     1       2.559   5.494  20.609  0.00  0.00    +0.000 A 
ATOM     11  C   UNL     1       1.631   6.319  21.275  0.00  0.00    +0.000 A 
ATOM     12  C   UNL     1       1.414   7.564  20.706  0.00  0.00    +0.000 A 
ATOM     13  C   UNL     1       2.024   7.920  19.522  0.00  0.00    +0.000 A 
ENDROOT
BRANCH   9  14
ATOM     14  S   UNL     1       4.344   4.713  18.673  0.00  0.00    +0.000 S 
ATOM     15  O   UNL     1       4.831   5.332  17.459  0.00  0.00    +0.000 OA
ATOM     16  O   UNL     1       5.291   4.287  19.681  0.00  0.00    +0.000 OA
BRANCH  14  17
ATOM     17  N   UNL     1       3.461   3.358  18.194  0.00  0.00    +0.000 NA
ATOM     18  C   UNL     1       2.236   3.528  17.396  0.00  0.00    +0.000 C 
ATOM     19  C   UNL     1       1.148   3.054  18.335  0.00  0.00    +0.000 C 
ATOM     20  C   UNL     1       1.780   1.851  19.018  0.00  0.00    +0.000 C 
ATOM     21  C   UNL     1       3.303   2.112  18.997  0.00  0.00    +0.000 C 
BRANCH  21  22
ATOM     22  C   UNL     1       3.911   2.005  20.374  0.00  0.00    +0.000 C 
ATOM     23  O   UNL     1       3.346   2.394  21.396  0.00  0.00    +0.000 OA
ATOM     24  N   UNL     1       5.159   1.426  20.420  0.00  0.00    +0.000 N 
ATOM     25  H   UNL     1       5.579   0.898  19.661  0.00  0.00    +0.000 HD
BRANCH  24  26
ATOM     26  O   UNL     1       5.756   1.313  21.690  0.00  0.00    +0.000 OA
ATOM     27  H   UNL     1       6.373   2.077  21.698  0.00  0.00    +0.000 HD
ENDBRANCH  24  26
ENDBRANCH  21  22
ENDBRANCH  14  17
ENDBRANCH   9  14
BRANCH   1  29
ATOM     28  C   UNL     1      -0.387   9.359  23.215  0.00  0.00    +0.000 C 
ATOM     29  C   UNL     1      -0.564   8.500  21.967  0.00  0.00    +0.000 C 
ENDBRANCH   1  29
TORSDOF 5
ENDMDL
MODEL 2
REMARK VINA RESULT:      -7.8      1.971      3.695
REMARK  Name = 
REMARK  6 active torsions:
REMARK  status: ('A' for Active; 'I' for Inactive)
REMARK    1  A    between atoms: C_1  and  C_2
REMARK    2  A    between atoms: C_2  and  N_3
REMARK    3  A    between atoms: C_11  and  S_12
REMARK    4  A    between atoms: S_12  and  N_15
REMARK    5  A    between atoms: C_19  and  C_20
REMARK    6  A    between atoms: N_22  and  O_23
REMARK                            x       y       z     vdW  Elec       q    Type
REMARK                         _______ _______ _______ _____ _____    ______ ____
ROOT
ATOM      1  N   UNL     1       1.030  11.280  18.571  0.00  0.00    +0.000 N 
ATOM      2  C   UNL     1       0.232  11.620  19.689  0.00  0.00    +0.000 C 
ATOM      3  O   UNL     1      -0.296  12.705  19.893  0.00  0.00    +0.000 OA
ATOM      4  C   UNL     1       0.305  10.426  20.503  0.00  0.00    +0.000 A 
ATOM      5  C   UNL     1      -0.179  10.208  21.788  0.00  0.00    +0.000 A 
ATOM      6  C   UNL     1       0.261   9.042  22.427  0.00  0.00    +0.000 A 
ATOM      7  C   UNL     1       1.061   8.090  21.760  0.00  0.00    +0.000 A 
ATOM      8  C   UNL     1       1.416   8.237  20.393  0.00  0.00    +0.000 A 
ATOM      9  C   UNL     1       2.112   7.384  19.485  0.00  0.00    +0.000 A 
ATOM     10  C   UNL     1       2.575   7.899  18.241  0.00  0.00    +0.000 A 
ATOM     11  C   UNL     1       2.303   9.216  17.822  0.00  0.00    +0.000 A 
ATOM     12  C   UNL     1       1.496   9.964  18.665  0.00  0.00    +0.000 A 
ATOM     13  C   UNL     1       1.061   9.453  19.870  0.00  0.00    +0.000 A 
ENDROOT
BRANCH   9  14
ATOM     14  S   UNL     1       2.546   5.687  19.869  0.00  0.00    +0.000 S 
ATOM     15  O   UNL     1       3.993   5.634  19.858  0.00  0.00    +0.000 OA
ATOM     16  O   UNL     1       1.830   5.259  21.051  0.00  0.00    +0.000 OA
BRANCH  14  17
ATOM     17  N   UNL     1       2.026   4.730  18.580  0.00  0.00    +0.000 NA
ATOM     18  C   UNL     1       1.008   3.692  18.805  0.00  0.00    +0.000 C 
ATOM     19  C   UNL     1       1.769   2.408  18.558  0.00  0.00    +0.000 C 
ATOM     20  C   UNL     1       2.651   2.751  17.368  0.00  0.00    +0.000 C 
ATOM     21  C   UNL     1       2.887   4.276  17.450  0.00  0.00    +0.000 C 
BRANCH  21  22
ATOM     22  C   UNL     1       4.355   4.621  17.418  0.00  0.00    +0.000 C 
ATOM     23  O   UNL     1       4.809   5.598  16.821  0.00  0.00    +0.000 OA
ATOM     24  N   UNL     1       5.174   3.765  18.120  0.00  0.00    +0.000 N 
ATOM     25  H   UNL     1       4.849   3.083  18.798  0.00  0.00    +0.000 HD
BRANCH  24  26
ATOM     26  O   UNL     1       6.550   4.058  18.109  0.00  0.00    +0.000 OA
ATOM     27  H   UNL     1       6.563   4.986  17.785  0.00  0.00    +0.000 HD
ENDBRANCH  24  26
ENDBRANCH  21  22
ENDBRANCH  14  17
ENDBRANCH   9  14
BRANCH   1  29
ATOM     28  C   UNL     1       2.695  13.078  18.494  0.00  0.00    +0.000 C 
ATOM     29  C   UNL     1       1.614  12.311  17.739  0.00  0.00    +0.000 C 
ENDBRANCH   1  29
TORSDOF 5
ENDMDL
MODEL 3
REMARK VINA RESULT:      -7.6      2.206      3.836
REMARK  Name = 
REMARK  6 active torsions:
REMARK  status: ('A' for Active; 'I' for Inactive)
REMARK    1  A    between atoms: C_1  and  C_2
REMARK    2  A    between atoms: C_2  and  N_3
REMARK    3  A    between atoms: C_11  and  S_12
REMARK    4  A    between atoms: S_12  and  N_15
REMARK    5  A    between atoms: C_19  and  C_20
REMARK    6  A    between atoms: N_22  and  O_23
REMARK                            x       y       z     vdW  Elec       q    Type
REMARK                         _______ _______ _______ _____ _____    ______ ____
ROOT
ATOM      1  N   UNL     1       0.835  11.558  18.926  0.00  0.00    +0.000 N 
ATOM      2  C   UNL     1       0.072  11.595  20.116  0.00  0.00    +0.000 C 
ATOM      3  O   UNL     1      -0.500  12.576  20.574  0.00  0.00    +0.000 OA
ATOM      4  C   UNL     1       0.239  10.257  20.640  0.00  0.00    +0.000 A 
ATOM      5  C   UNL     1      -0.176   9.732  21.857  0.00  0.00    +0.000 A 
ATOM      6  C   UNL     1       0.348   8.481  22.205  0.00  0.00    +0.000 A 
ATOM      7  C   UNL     1       1.164   7.748  21.317  0.00  0.00    +0.000 A 
ATOM      8  C   UNL     1       1.451   8.215  20.007  0.00  0.00    +0.000 A 
ATOM      9  C   UNL     1       2.148   7.626  18.910  0.00  0.00    +0.000 A 
ATOM     10  C   UNL     1       2.529   8.430  17.799  0.00  0.00    +0.000 A 
ATOM     11  C   UNL     1       2.174   9.790  17.693  0.00  0.00    +0.000 A 
ATOM     12  C   UNL     1       1.369  10.283  18.708  0.00  0.00    +0.000 A 
ATOM     13  C   UNL     1       1.014   9.494  19.781  0.00  0.00    +0.000 A 
ENDROOT
BRANCH   9  14
ATOM     14  S   UNL     1       2.682   5.914  18.890  0.00  0.00    +0.000 S 
ATOM     15  O   UNL     1       2.675   5.479  20.270  0.00  0.00    +0.000 OA
ATOM     16  O   UNL     1       1.912   5.178  17.910  0.00  0.00    +0.000 OA
BRANCH  14  17
ATOM     17  N   UNL     1       4.294   5.895  18.394  0.00  0.00    +0.000 NA
ATOM     18  C   UNL     1       4.729   6.762  17.288  0.00  0.00    +0.000 C 
ATOM     19  C   UNL     1       5.098   5.774  16.203  0.00  0.00    +0.000 C 
ATOM     20  C   UNL     1       5.784   4.656  16.972  0.00  0.00    +0.000 C 
ATOM     21  C   UNL     1       5.174   4.691  18.392  0.00  0.00    +0.000 C 
BRANCH  21  22
ATOM     22  C   UNL     1       4.633   3.345  18.806  0.00  0.00    +0.000 C 
ATOM     23  O   UNL     1       4.784   2.871  19.932  0.00  0.00    +0.000 OA
ATOM     24  N   UNL     1       3.936   2.669  17.829  0.00  0.00    +0.000 N 
ATOM     25  H   UNL     1       3.595   3.087  16.969  0.00  0.00    +0.000 HD
BRANCH  24  26
ATOM     26  O   UNL     1       3.418   1.409  18.183  0.00  0.00    +0.000 OA
ATOM     27  H   UNL     1       3.024   1.586  19.066  0.00  0.00    +0.000 HD
ENDBRANCH  24  26
ENDBRANCH  21  22
ENDBRANCH  14  17
ENDBRANCH   9  14
BRANCH   1  29
ATOM     28  C   UNL     1       2.573  13.282  19.055  0.00  0.00    +0.000 C 
ATOM     29  C   UNL     1       1.331  12.780  18.327  0.00  0.00    +0.000 C 
ENDBRANCH   1  29
TORSDOF 5
ENDMDL
MODEL 4
REMARK VINA RESULT:      -7.5      2.012      3.539
REMARK  Name = 
REMARK  6 active torsions:
REMARK  status: ('A' for Active; 'I' for Inactive)
REMARK    1  A    between atoms: C_1  and  C_2
REMARK    2  A    between atoms: C_2  and  N_3
REMARK    3  A    between atoms: C_11  and  S_12
REMARK    4  A    between atoms: S_12  and  N_15
REMARK    5  A    between atoms: C_19  and  C_20
REMARK    6  A    between atoms: N_22  and  O_23
REMARK                            x       y       z     vdW  Elec       q    Type
REMARK                         _______ _______ _______ _____ _____    ______ ____
ROOT
ATOM      1  N   UNL     1      -0.087  11.208  18.836  0.00  0.00    +0.000 N 
ATOM      2  C   UNL     1      -0.683  11.347  20.111  0.00  0.00    +0.000 C 
ATOM      3  O   UNL     1      -1.400  12.270  20.474  0.00  0.00    +0.000 OA
ATOM      4  C   UNL     1      -0.152  10.210  20.833  0.00  0.00    +0.000 A 
ATOM      5  C   UNL     1      -0.281   9.885  22.178  0.00  0.00    +0.000 A 
ATOM      6  C   UNL     1       0.552   8.865  22.653  0.00  0.00    +0.000 A 
ATOM      7  C   UNL     1       1.394   8.135  21.787  0.00  0.00    +0.000 A 
ATOM      8  C   UNL     1       1.401   8.360  20.385  0.00  0.00    +0.000 A 
ATOM      9  C   UNL     1       2.070   7.700  19.311  0.00  0.00    +0.000 A 
ATOM     10  C   UNL     1       2.116   8.307  18.024  0.00  0.00    +0.000 A 
ATOM     11  C   UNL     1       1.452   9.516  17.736  0.00  0.00    +0.000 A 
ATOM     12  C   UNL     1       0.690  10.046  18.765  0.00  0.00    +0.000 A 
ATOM     13  C   UNL     1       0.661   9.449  20.008  0.00  0.00    +0.000 A 
ENDROOT
BRANCH   9  14
ATOM     14  S   UNL     1       2.971   6.162  19.511  0.00  0.00    +0.000 S 
ATOM     15  O   UNL     1       4.373   6.512  19.453  0.00  0.00    +0.000 OA
ATOM     16  O   UNL     1       2.465   5.451  20.666  0.00  0.00    +0.000 OA
BRANCH  14  17
ATOM     17  N   UNL     1       2.660   5.215  18.150  0.00  0.00    +0.000 NA
ATOM     18  C   UNL     1       1.287   4.768  17.868  0.00  0.00    +0.000 C 
ATOM     19  C   UNL     1       1.371   3.269  18.047  0.00  0.00    +0.000 C 
ATOM     20  C   UNL     1       2.719   2.922  17.433  0.00  0.00    +0.000 C 
ATOM     21  C   UNL     1       3.588   4.189  17.592  0.00  0.00    +0.000 C 
BRANCH  21  22
ATOM     22  C   UNL     1       4.900   3.890  18.275  0.00  0.00    +0.000 C 
ATOM     23  O   UNL     1       4.990   3.227  19.308  0.00  0.00    +0.000 OA
ATOM     24  N   UNL     1       6.015   4.407  17.653  0.00  0.00    +0.000 N 
ATOM     25  H   UNL     1       6.032   4.768  16.705  0.00  0.00    +0.000 HD
BRANCH  24  26
ATOM     26  O   UNL     1       7.255   4.147  18.266  0.00  0.00    +0.000 OA
ATOM     27  H   UNL     1       7.723   3.627  17.575  0.00  0.00    +0.000 HD
ENDBRANCH  24  26
ENDBRANCH  21  22
ENDBRANCH  14  17
ENDBRANCH   9  14
BRANCH   1  29
ATOM     28  C   UNL     1       1.208  13.236  18.365  0.00  0.00    +0.000 C 
ATOM     29  C   UNL     1       0.040  12.347  17.951  0.00  0.00    +0.000 C 
ENDBRANCH   1  29
TORSDOF 5
ENDMDL
MODEL 5
REMARK VINA RESULT:      -7.3      1.724      3.284
REMARK  Name = 
REMARK  6 active torsions:
REMARK  status: ('A' for Active; 'I' for Inactive)
REMARK    1  A    between atoms: C_1  and  C_2
REMARK    2  A    between atoms: C_2  and  N_3
REMARK    3  A    between atoms: C_11  and  S_12
REMARK    4  A    between atoms: S_12  and  N_15
REMARK    5  A    between atoms: C_19  and  C_20
REMARK    6  A    between atoms: N_22  and  O_23
REMARK                            x       y       z     vdW  Elec       q    Type
REMARK                         _______ _______ _______ _____ _____    ______ ____
ROOT
ATOM      1  N   UNL     1       0.689  11.215  18.613  0.00  0.00    +0.000 N 
ATOM      2  C   UNL     1      -0.119  11.394  19.761  0.00  0.00    +0.000 C 
ATOM      3  O   UNL     1      -0.789  12.384  20.022  0.00  0.00    +0.000 OA
ATOM      4  C   UNL     1       0.143  10.191  20.522  0.00  0.00    +0.000 A 
ATOM      5  C   UNL     1      -0.270   9.856  21.805  0.00  0.00    +0.000 A 
ATOM      6  C   UNL     1       0.347   8.740  22.384  0.00  0.00    +0.000 A 
ATOM      7  C   UNL     1       1.255   7.938  21.660  0.00  0.00    +0.000 A 
ATOM      8  C   UNL     1       1.549   8.188  20.294  0.00  0.00    +0.000 A 
ATOM      9  C   UNL     1       2.333   7.479  19.336  0.00  0.00    +0.000 A 
ATOM     10  C   UNL     1       2.685   8.103  18.106  0.00  0.00    +0.000 A 
ATOM     11  C   UNL     1       2.219   9.384  17.749  0.00  0.00    +0.000 A 
ATOM     12  C   UNL     1       1.338   9.975  18.641  0.00  0.00    +0.000 A 
ATOM     13  C   UNL     1       1.012   9.361  19.831  0.00  0.00    +0.000 A 
ENDROOT
BRANCH   9  14
ATOM     14  S   UNL     1       3.013   5.847  19.637  0.00  0.00    +0.000 S 
ATOM     15  O   UNL     1       4.446   6.024  19.733  0.00  0.00    +0.000 OA
ATOM     16  O   UNL     1       2.301   5.219  20.729  0.00  0.00    +0.000 OA
BRANCH  14  17
ATOM     17  N   UNL     1       2.740   4.924  18.251  0.00  0.00    +0.000 NA
ATOM     18  C   UNL     1       1.367   4.738  17.755  0.00  0.00    +0.000 C 
ATOM     19  C   UNL     1       1.128   3.258  17.957  0.00  0.00    +0.000 C 
ATOM     20  C   UNL     1       2.461   2.636  17.571  0.00  0.00    +0.000 C 
ATOM     21  C   UNL     1       3.525   3.719  17.857  0.00  0.00    +0.000 C 
BRANCH  21  22
ATOM     22  C   UNL     1       4.630   3.201  18.745  0.00  0.00    +0.000 C 
ATOM     23  O   UNL     1       5.752   3.705  18.794  0.00  0.00    +0.000 OA
ATOM     24  N   UNL     1       4.298   2.112  19.519  0.00  0.00    +0.000 N 
ATOM     25  H   UNL     1       3.349   1.790  19.685  0.00  0.00    +0.000 HD
BRANCH  24  26
ATOM     26  O   UNL     1       5.307   1.603  20.358  0.00  0.00    +0.000 OA
ATOM     27  H   UNL     1       4.875   1.626  21.240  0.00  0.00    +0.000 HD
ENDBRANCH  24  26
ENDBRANCH  21  22
ENDBRANCH  14  17
ENDBRANCH   9  14
BRANCH   1  29
ATOM     28  C   UNL     1       2.333  13.022  18.408  0.00  0.00    +0.000 C 
ATOM     29  C   UNL     1       1.099  12.350  17.814  0.00  0.00    +0.000 C 
ENDBRANCH   1  29
TORSDOF 5
ENDMDL
MODEL 6
REMARK VINA RESULT:      -7.3      6.392     10.921
REMARK  Name = 
REMARK  6 active torsions:
REMARK  status: ('A' for Active; 'I' for Inactive)
REMARK    1  A    between atoms: C_1  and  C_2
REMARK    2  A    between atoms: C_2  and  N_3
REMARK    3  A    between atoms: C_11  and  S_12
REMARK    4  A    between atoms: S_12  and  N_15
REMARK    5  A    between atoms: C_19  and  C_20
REMARK    6  A    between atoms: N_22  and  O_23
REMARK                            x       y       z     vdW  Elec       q    Type
REMARK                         _______ _______ _______ _____ _____    ______ ____
ROOT
ATOM      1  N   UNL     1      -1.140  10.870  18.440  0.00  0.00    +0.000 N 
ATOM      2  C   UNL     1      -0.048  10.144  18.972  0.00  0.00    +0.000 C 
ATOM      3  O   UNL     1       0.727   9.442  18.336  0.00  0.00    +0.000 OA
ATOM      4  C   UNL     1      -0.172  10.383  20.393  0.00  0.00    +0.000 A 
ATOM      5  C   UNL     1       0.544   9.824  21.444  0.00  0.00    +0.000 A 
ATOM      6  C   UNL     1       0.036  10.045  22.730  0.00  0.00    +0.000 A 
ATOM      7  C   UNL     1      -1.079  10.882  22.950  0.00  0.00    +0.000 A 
ATOM      8  C   UNL     1      -1.708  11.584  21.889  0.00  0.00    +0.000 A 
ATOM      9  C   UNL     1      -2.760  12.548  21.867  0.00  0.00    +0.000 A 
ATOM     10  C   UNL     1      -3.386  12.886  20.634  0.00  0.00    +0.000 A 
ATOM     11  C   UNL     1      -2.954  12.364  19.399  0.00  0.00    +0.000 A 
ATOM     12  C   UNL     1      -1.833  11.549  19.449  0.00  0.00    +0.000 A 
ATOM     13  C   UNL     1      -1.242  11.225  20.651  0.00  0.00    +0.000 A 
ENDROOT
BRANCH   9  14
ATOM     14  S   UNL     1      -3.435  13.300  23.349  0.00  0.00    +0.000 S 
ATOM     15  O   UNL     1      -4.152  12.248  24.038  0.00  0.00    +0.000 OA
ATOM     16  O   UNL     1      -2.390  14.019  24.046  0.00  0.00    +0.000 OA
BRANCH  14  17
ATOM     17  N   UNL     1      -4.594  14.425  22.861  0.00  0.00    +0.000 NA
ATOM     18  C   UNL     1      -4.584  15.780  23.434  0.00  0.00    +0.000 C 
ATOM     19  C   UNL     1      -5.869  15.824  24.230  0.00  0.00    +0.000 C 
ATOM     20  C   UNL     1      -6.854  15.085  23.337  0.00  0.00    +0.000 C 
ATOM     21  C   UNL     1      -6.004  14.100  22.504  0.00  0.00    +0.000 C 
BRANCH  21  22
ATOM     22  C   UNL     1      -6.516  12.684  22.613  0.00  0.00    +0.000 C 
ATOM     23  O   UNL     1      -6.486  11.879  21.682  0.00  0.00    +0.000 OA
ATOM     24  N   UNL     1      -7.021  12.337  23.846  0.00  0.00    +0.000 N 
ATOM     25  H   UNL     1      -6.879  12.870  24.699  0.00  0.00    +0.000 HD
BRANCH  24  26
ATOM     26  O   UNL     1      -7.508  11.023  23.981  0.00  0.00    +0.000 OA
ATOM     27  H   UNL     1      -7.662  10.957  24.949  0.00  0.00    +0.000 HD
ENDBRANCH  24  26
ENDBRANCH  21  22
ENDBRANCH  14  17
ENDBRANCH   9  14
BRANCH   1  29
ATOM     28  C   UNL     1      -2.903   9.648  17.253  0.00  0.00    +0.000 C 
ATOM     29  C   UNL     1      -1.677  10.548  17.135  0.00  0.00    +0.000 C 
ENDBRANCH   1  29
TORSDOF 5
ENDMDL
MODEL 7
REMARK VINA RESULT:      -7.2      1.763      2.495
REMARK  Name = 
REMARK  6 active torsions:
REMARK  status: ('A' for Active; 'I' for Inactive)
REMARK    1  A    between atoms: C_1  and  C_2
REMARK    2  A    between atoms: C_2  and  N_3
REMARK    3  A    between atoms: C_11  and  S_12
REMARK    4  A    between atoms: S_12  and  N_15
REMARK    5  A    between atoms: C_19  and  C_20
REMARK    6  A    between atoms: N_22  and  O_23
REMARK                            x       y       z     vdW  Elec       q    Type
REMARK                         _______ _______ _______ _____ _____    ______ ____
ROOT
ATOM      1  N   UNL     1      -0.015  10.604  20.717  0.00  0.00    +0.000 N 
ATOM      2  C   UNL     1       0.526  11.285  19.601  0.00  0.00    +0.000 C 
ATOM      3  O   UNL     1       0.254  12.426  19.253  0.00  0.00    +0.000 OA
ATOM      4  C   UNL     1       1.357  10.272  18.987  0.00  0.00    +0.000 A 
ATOM      5  C   UNL     1       2.046  10.314  17.781  0.00  0.00    +0.000 A 
ATOM      6  C   UNL     1       2.558   9.096  17.315  0.00  0.00    +0.000 A 
ATOM      7  C   UNL     1       2.473   7.916  18.085  0.00  0.00    +0.000 A 
ATOM      8  C   UNL     1       1.915   7.913  19.390  0.00  0.00    +0.000 A 
ATOM      9  C   UNL     1       1.810   6.897  20.387  0.00  0.00    +0.000 A 
ATOM     10  C   UNL     1       0.952   7.088  21.506  0.00  0.00    +0.000 A 
ATOM     11  C   UNL     1       0.248   8.289  21.722  0.00  0.00    +0.000 A 
ATOM     12  C   UNL     1       0.495   9.304  20.812  0.00  0.00    +0.000 A 
ATOM     13  C   UNL     1       1.324   9.102  19.729  0.00  0.00    +0.000 A 
ENDROOT
BRANCH   9  14
ATOM     14  S   UNL     1       2.631   5.308  20.259  0.00  0.00    +0.000 S 
ATOM     15  O   UNL     1       4.008   5.597  19.921  0.00  0.00    +0.000 OA
ATOM     16  O   UNL     1       2.341   4.516  21.435  0.00  0.00    +0.000 OA
BRANCH  14  17
ATOM     17  N   UNL     1       1.974   4.506  18.928  0.00  0.00    +0.000 NA
ATOM     18  C   UNL     1       0.941   3.478  19.130  0.00  0.00    +0.000 C 
ATOM     19  C   UNL     1       1.633   2.207  18.689  0.00  0.00    +0.000 C 
ATOM     20  C   UNL     1       2.427   2.650  17.470  0.00  0.00    +0.000 C 
ATOM     21  C   UNL     1       2.723   4.151  17.688  0.00  0.00    +0.000 C 
BRANCH  21  22
ATOM     22  C   UNL     1       4.196   4.458  17.567  0.00  0.00    +0.000 C 
ATOM     23  O   UNL     1       4.638   5.420  16.940  0.00  0.00    +0.000 OA
ATOM     24  N   UNL     1       5.032   3.582  18.224  0.00  0.00    +0.000 N 
ATOM     25  H   UNL     1       4.731   2.911  18.924  0.00  0.00    +0.000 HD
BRANCH  24  26
ATOM     26  O   UNL     1       6.412   3.840  18.130  0.00  0.00    +0.000 OA
ATOM     27  H   UNL     1       6.431   4.724  17.701  0.00  0.00    +0.000 HD
ENDBRANCH  24  26
ENDBRANCH  21  22
ENDBRANCH  14  17
ENDBRANCH   9  14
BRANCH   1  29
ATOM     28  C   UNL     1      -0.957  11.669  22.714  0.00  0.00    +0.000 C 
ATOM     29  C   UNL     1      -1.237  11.064  21.342  0.00  0.00    +0.000 C 
ENDBRANCH   1  29
TORSDOF 5
ENDMDL
MODEL 8
REMARK VINA RESULT:      -7.1      2.019      3.662
REMARK  Name = 
REMARK  6 active torsions:
REMARK  status: ('A' for Active; 'I' for Inactive)
REMARK    1  A    between atoms: C_1  and  C_2
REMARK    2  A    between atoms: C_2  and  N_3
REMARK    3  A    between atoms: C_11  and  S_12
REMARK    4  A    between atoms: S_12  and  N_15
REMARK    5  A    between atoms: C_19  and  C_20
REMARK    6  A    between atoms: N_22  and  O_23
REMARK                            x       y       z     vdW  Elec       q    Type
REMARK                         _______ _______ _______ _____ _____    ______ ____
ROOT
ATOM      1  N   UNL     1       0.461  11.533  18.977  0.00  0.00    +0.000 N 
ATOM      2  C   UNL     1      -0.221  11.538  20.216  0.00  0.00    +0.000 C 
ATOM      3  O   UNL     1      -0.859  12.473  20.683  0.00  0.00    +0.000 OA
ATOM      4  C   UNL     1       0.117  10.244  20.768  0.00  0.00    +0.000 A 
ATOM      5  C   UNL     1      -0.160   9.726  22.027  0.00  0.00    +0.000 A 
ATOM      6  C   UNL     1       0.512   8.548  22.376  0.00  0.00    +0.000 A 
ATOM      7  C   UNL     1       1.338   7.868  21.455  0.00  0.00    +0.000 A 
ATOM      8  C   UNL     1       1.488   8.312  20.115  0.00  0.00    +0.000 A 
ATOM      9  C   UNL     1       2.167   7.755  18.990  0.00  0.00    +0.000 A 
ATOM     10  C   UNL     1       2.389   8.551  17.831  0.00  0.00    +0.000 A 
ATOM     11  C   UNL     1       1.890   9.863  17.709  0.00  0.00    +0.000 A 
ATOM     12  C   UNL     1       1.108  10.311  18.762  0.00  0.00    +0.000 A 
ATOM     13  C   UNL     1       0.907   9.531  19.881  0.00  0.00    +0.000 A 
ENDROOT
BRANCH   9  14
ATOM     14  S   UNL     1       2.871   6.106  18.986  0.00  0.00    +0.000 S 
ATOM     15  O   UNL     1       3.350   5.881  17.639  0.00  0.00    +0.000 OA
ATOM     16  O   UNL     1       3.788   5.967  20.097  0.00  0.00    +0.000 OA
BRANCH  14  17
ATOM     17  N   UNL     1       1.606   5.016  19.227  0.00  0.00    +0.000 NA
ATOM     18  C   UNL     1       1.028   4.853  20.571  0.00  0.00    +0.000 C 
ATOM     19  C   UNL     1       1.409   3.436  20.937  0.00  0.00    +0.000 C 
ATOM     20  C   UNL     1       1.222   2.679  19.632  0.00  0.00    +0.000 C 
ATOM     21  C   UNL     1       1.445   3.719  18.511  0.00  0.00    +0.000 C 
BRANCH  21  22
ATOM     22  C   UNL     1       2.483   3.259  17.515  0.00  0.00    +0.000 C 
ATOM     23  O   UNL     1       2.259   3.138  16.311  0.00  0.00    +0.000 OA
ATOM     24  N   UNL     1       3.724   2.987  18.047  0.00  0.00    +0.000 N 
ATOM     25  H   UNL     1       4.030   3.269  18.973  0.00  0.00    +0.000 HD
BRANCH  24  26
ATOM     26  O   UNL     1       4.714   2.555  17.145  0.00  0.00    +0.000 OA
ATOM     27  H   UNL     1       4.296   1.763  16.740  0.00  0.00    +0.000 HD
ENDBRANCH  24  26
ENDBRANCH  21  22
ENDBRANCH  14  17
ENDBRANCH   9  14
BRANCH   1  29
ATOM     28  C   UNL     1       2.100  13.351  18.829  0.00  0.00    +0.000 C 
ATOM     29  C   UNL     1       0.787  12.775  18.307  0.00  0.00    +0.000 C 
ENDBRANCH   1  29
TORSDOF 5
ENDMDL
MODEL 9
REMARK VINA RESULT:      -7.1      1.189      2.665
REMARK  Name = 
REMARK  6 active torsions:
REMARK  status: ('A' for Active; 'I' for Inactive)
REMARK    1  A    between atoms: C_1  and  C_2
REMARK    2  A    between atoms: C_2  and  N_3
REMARK    3  A    between atoms: C_11  and  S_12
REMARK    4  A    between atoms: S_12  and  N_15
REMARK    5  A    between atoms: C_19  and  C_20
REMARK    6  A    between atoms: N_22  and  O_23
REMARK                            x       y       z     vdW  Elec       q    Type
REMARK                         _______ _______ _______ _____ _____    ______ ____
ROOT
ATOM      1  N   UNL     1       2.001   9.468  18.193  0.00  0.00    +0.000 N 
ATOM      2  C   UNL     1       1.088   9.285  19.258  0.00  0.00    +0.000 C 
ATOM      3  O   UNL     1       0.288  10.115  19.671  0.00  0.00    +0.000 OA
ATOM      4  C   UNL     1       1.424   7.962  19.738  0.00  0.00    +0.000 A 
ATOM      5  C   UNL     1       0.950   7.287  20.856  0.00  0.00    +0.000 A 
ATOM      6  C   UNL     1       1.642   6.125  21.220  0.00  0.00    +0.000 A 
ATOM      7  C   UNL     1       2.692   5.612  20.428  0.00  0.00    +0.000 A 
ATOM      8  C   UNL     1       3.066   6.215  19.198  0.00  0.00    +0.000 A 
ATOM      9  C   UNL     1       4.002   5.838  18.190  0.00  0.00    +0.000 A 
ATOM     10  C   UNL     1       4.378   6.774  17.186  0.00  0.00    +0.000 A 
ATOM     11  C   UNL     1       3.798   8.054  17.091  0.00  0.00    +0.000 A 
ATOM     12  C   UNL     1       2.785   8.325  17.998  0.00  0.00    +0.000 A 
ATOM     13  C   UNL     1       2.436   7.410  18.969  0.00  0.00    +0.000 A 
ENDROOT
BRANCH   9  14
ATOM     14  S   UNL     1       4.839   4.252  18.171  0.00  0.00    +0.000 S 
ATOM     15  O   UNL     1       5.665   4.252  16.983  0.00  0.00    +0.000 OA
ATOM     16  O   UNL     1       5.451   4.011  19.460  0.00  0.00    +0.000 OA
BRANCH  14  17
ATOM     17  N   UNL     1       3.664   3.065  17.932  0.00  0.00    +0.000 NA
ATOM     18  C   UNL     1       2.467   3.372  17.133  0.00  0.00    +0.000 C 
ATOM     19  C   UNL     1       1.350   3.303  18.150  0.00  0.00    +0.000 C 
ATOM     20  C   UNL     1       1.740   2.113  19.014  0.00  0.00    +0.000 C 
ATOM     21  C   UNL     1       3.281   2.026  18.931  0.00  0.00    +0.000 C 
BRANCH  21  22
ATOM     22  C   UNL     1       3.918   2.007  20.299  0.00  0.00    +0.000 C 
ATOM     23  O   UNL     1       3.405   2.523  21.292  0.00  0.00    +0.000 OA
ATOM     24  N   UNL     1       5.129   1.357  20.372  0.00  0.00    +0.000 N 
ATOM     25  H   UNL     1       5.495   0.736  19.657  0.00  0.00    +0.000 HD
BRANCH  24  26
ATOM     26  O   UNL     1       5.751   1.322  21.635  0.00  0.00    +0.000 OA
ATOM     27  H   UNL     1       5.046   0.939  22.203  0.00  0.00    +0.000 HD
ENDBRANCH  24  26
ENDBRANCH  21  22
ENDBRANCH  14  17
ENDBRANCH   9  14
BRANCH   1  29
ATOM     28  C   UNL     1       2.058  11.841  18.806  0.00  0.00    +0.000 C 
ATOM     29  C   UNL     1       2.341  10.797  17.730  0.00  0.00    +0.000 C 
ENDBRANCH   1  29
TORSDOF 5
ENDMDL
