MODEL 1
REMARK VINA RESULT:      -6.8      0.000      0.000
REMARK  Name = 
REMARK  6 active torsions:
REMARK  status: ('A' for Active; 'I' for Inactive)
REMARK    1  A    between atoms: C_1  and  O_2
REMARK    2  A    between atoms: O_2  and  C_3
REMARK    3  A    between atoms: C_3  and  C_5
REMARK    4  A    between atoms: C_5  and  C_7
REMARK    5  A    between atoms: C_7  and  C_8
REMARK    6  A    between atoms: C_7  and  C_10
REMARK                            x       y       z     vdW  Elec       q    Type
REMARK                         _______ _______ _______ _____ _____    ______ ____
ROOT
ATOM      1  C   UNL     1       5.759   5.452  16.082  0.00  0.00    +0.000 C 
ENDROOT
BRANCH   1   2
ATOM      2  C   UNL     1       4.617   5.067  17.026  0.00  0.00    +0.000 A 
ATOM      3  C   UNL     1       3.718   6.013  17.547  0.00  0.00    +0.000 A 
ATOM      4  C   UNL     1       2.644   5.609  18.348  0.00  0.00    +0.000 A 
ATOM      5  C   UNL     1       2.439   4.258  18.633  0.00  0.00    +0.000 A 
ATOM      6 CL   UNL     1       1.077   3.833  19.605  0.00  0.00    +0.000 Cl
ATOM      7  C   UNL     1       3.321   3.304  18.120  0.00  0.00    +0.000 A 
ATOM      8 CL   UNL     1       3.134   1.612  18.413  0.00  0.00    +0.000 Cl
ATOM      9  C   UNL     1       4.402   3.708  17.323  0.00  0.00    +0.000 A 
ENDBRANCH   1   2
BRANCH   1  10
ATOM     10  C   UNL     1       7.101   5.345  16.775  0.00  0.00    +0.000 C 
ATOM     11  O   UNL     1       7.895   4.424  16.619  0.00  0.00    +0.000 OA
BRANCH  10  12
ATOM     12  C   UNL     1       7.434   6.501  17.718  0.00  0.00    +0.000 C 
ATOM     13  O   UNL     1       7.773   6.309  18.872  0.00  0.00    +0.000 OA
BRANCH  12  15
ATOM     14  C   UNL     1       7.949   8.780  17.751  0.00  0.00    +0.000 C 
ATOM     15  O   UNL     1       7.337   7.681  17.077  0.00  0.00    +0.000 OA
ENDBRANCH  12  15
ENDBRANCH  10  12
ENDBRANCH   1  10
BRANCH   1  16
ATOM     16  C   UNL     1       5.814   4.658  14.844  0.00  0.00    +0.000 C 
ATOM     17  N   UNL     1       5.862   4.036  13.866  0.00  0.00    +0.000 NA
ENDBRANCH   1  16
TORSDOF 5
ENDMDL
MODEL 2
REMARK VINA RESULT:      -6.8      0.575      1.212
REMARK  Name = 
REMARK  6 active torsions:
REMARK  status: ('A' for Active; 'I' for Inactive)
REMARK    1  A    between atoms: C_1  and  O_2
REMARK    2  A    between atoms: O_2  and  C_3
REMARK    3  A    between atoms: C_3  and  C_5
REMARK    4  A    between atoms: C_5  and  C_7
REMARK    5  A    between atoms: C_7  and  C_8
REMARK    6  A    between atoms: C_7  and  C_10
REMARK                            x       y       z     vdW  Elec       q    Type
REMARK                         _______ _______ _______ _____ _____    ______ ____
ROOT
ATOM      1  C   UNL     1       5.698   5.469  15.885  0.00  0.00    +0.000 C 
ENDROOT
BRANCH   1   2
ATOM      2  C   UNL     1       4.589   5.090  16.871  0.00  0.00    +0.000 A 
ATOM      3  C   UNL     1       3.738   6.045  17.451  0.00  0.00    +0.000 A 
ATOM      4  C   UNL     1       2.690   5.651  18.290  0.00  0.00    +0.000 A 
ATOM      5  C   UNL     1       2.464   4.298  18.554  0.00  0.00    +0.000 A 
ATOM      6 CL   UNL     1       1.136   3.885  19.577  0.00  0.00    +0.000 Cl
ATOM      7  C   UNL     1       3.299   3.335  17.983  0.00  0.00    +0.000 A 
ATOM      8 CL   UNL     1       3.083   1.642  18.249  0.00  0.00    +0.000 Cl
ATOM      9  C   UNL     1       4.353   3.730  17.149  0.00  0.00    +0.000 A 
ENDBRANCH   1   2
BRANCH   1  10
ATOM     10  C   UNL     1       7.058   5.427  16.550  0.00  0.00    +0.000 C 
ATOM     11  O   UNL     1       7.865   4.512  16.431  0.00  0.00    +0.000 OA
BRANCH  10  12
ATOM     12  C   UNL     1       7.391   6.645  17.412  0.00  0.00    +0.000 C 
ATOM     13  O   UNL     1       7.138   7.778  17.046  0.00  0.00    +0.000 OA
BRANCH  12  15
ATOM     14  C   UNL     1       7.038   5.583  19.464  0.00  0.00    +0.000 C 
ATOM     15  O   UNL     1       7.932   6.264  18.585  0.00  0.00    +0.000 OA
ENDBRANCH  12  15
ENDBRANCH  10  12
ENDBRANCH   1  10
BRANCH   1  16
ATOM     16  C   UNL     1       5.749   4.627  14.679  0.00  0.00    +0.000 C 
ATOM     17  N   UNL     1       5.788   3.958  13.732  0.00  0.00    +0.000 NA
ENDBRANCH   1  16
TORSDOF 5
ENDMDL
MODEL 3
REMARK VINA RESULT:      -6.6      0.912      1.822
REMARK  Name = 
REMARK  6 active torsions:
REMARK  status: ('A' for Active; 'I' for Inactive)
REMARK    1  A    between atoms: C_1  and  O_2
REMARK    2  A    between atoms: O_2  and  C_3
REMARK    3  A    between atoms: C_3  and  C_5
REMARK    4  A    between atoms: C_5  and  C_7
REMARK    5  A    between atoms: C_7  and  C_8
REMARK    6  A    between atoms: C_7  and  C_10
REMARK                            x       y       z     vdW  Elec       q    Type
REMARK                         _______ _______ _______ _____ _____    ______ ____
ROOT
ATOM      1  C   UNL     1       5.912   5.488  16.044  0.00  0.00    +0.000 C 
ENDROOT
BRANCH   1   2
ATOM      2  C   UNL     1       4.688   5.147  16.898  0.00  0.00    +0.000 A 
ATOM      3  C   UNL     1       4.199   3.836  17.027  0.00  0.00    +0.000 A 
ATOM      4  C   UNL     1       3.122   3.557  17.875  0.00  0.00    +0.000 A 
ATOM      5  C   UNL     1       2.523   4.575  18.620  0.00  0.00    +0.000 A 
ATOM      6 CL   UNL     1       1.217   4.150  19.667  0.00  0.00    +0.000 Cl
ATOM      7  C   UNL     1       2.999   5.883  18.507  0.00  0.00    +0.000 A 
ATOM      8 CL   UNL     1       2.324   7.198  19.401  0.00  0.00    +0.000 Cl
ATOM      9  C   UNL     1       4.073   6.165  17.652  0.00  0.00    +0.000 A 
ENDBRANCH   1   2
BRANCH   1  10
ATOM     10  C   UNL     1       7.194   5.313  16.832  0.00  0.00    +0.000 C 
ATOM     11  O   UNL     1       7.916   4.324  16.779  0.00  0.00    +0.000 OA
BRANCH  10  12
ATOM     12  C   UNL     1       7.561   6.492  17.732  0.00  0.00    +0.000 C 
ATOM     13  O   UNL     1       7.823   6.340  18.912  0.00  0.00    +0.000 OA
BRANCH  12  15
ATOM     14  C   UNL     1       7.923   8.800  17.787  0.00  0.00    +0.000 C 
ATOM     15  O   UNL     1       7.589   7.639  17.028  0.00  0.00    +0.000 OA
ENDBRANCH  12  15
ENDBRANCH  10  12
ENDBRANCH   1  10
BRANCH   1  16
ATOM     16  C   UNL     1       6.022   4.702  14.804  0.00  0.00    +0.000 C 
ATOM     17  N   UNL     1       6.102   4.082  13.827  0.00  0.00    +0.000 NA
ENDBRANCH   1  16
TORSDOF 5
ENDMDL
MODEL 4
REMARK VINA RESULT:      -6.6      1.058      1.695
REMARK  Name = 
REMARK  6 active torsions:
REMARK  status: ('A' for Active; 'I' for Inactive)
REMARK    1  A    between atoms: C_1  and  O_2
REMARK    2  A    between atoms: O_2  and  C_3
REMARK    3  A    between atoms: C_3  and  C_5
REMARK    4  A    between atoms: C_5  and  C_7
REMARK    5  A    between atoms: C_7  and  C_8
REMARK    6  A    between atoms: C_7  and  C_10
REMARK                            x       y       z     vdW  Elec       q    Type
REMARK                         _______ _______ _______ _____ _____    ______ ____
ROOT
ATOM      1  C   UNL     1       5.359   5.892  16.122  0.00  0.00    +0.000 C 
ENDROOT
BRANCH   1   2
ATOM      2  C   UNL     1       4.310   5.449  17.145  0.00  0.00    +0.000 A 
ATOM      3  C   UNL     1       3.725   6.341  18.060  0.00  0.00    +0.000 A 
ATOM      4  C   UNL     1       2.716   5.911  18.930  0.00  0.00    +0.000 A 
ATOM      5  C   UNL     1       2.264   4.591  18.894  0.00  0.00    +0.000 A 
ATOM      6 CL   UNL     1       0.997   4.140  19.977  0.00  0.00    +0.000 Cl
ATOM      7  C   UNL     1       2.832   3.691  17.988  0.00  0.00    +0.000 A 
ATOM      8 CL   UNL     1       2.323   2.045  17.870  0.00  0.00    +0.000 Cl
ATOM      9  C   UNL     1       3.847   4.119  17.122  0.00  0.00    +0.000 A 
ENDBRANCH   1   2
BRANCH   1  10
ATOM     10  C   UNL     1       6.694   6.156  16.788  0.00  0.00    +0.000 C 
ATOM     11  O   UNL     1       7.263   7.242  16.801  0.00  0.00    +0.000 OA
BRANCH  10  12
ATOM     12  C   UNL     1       7.319   4.946  17.480  0.00  0.00    +0.000 C 
ATOM     13  O   UNL     1       8.089   4.202  16.900  0.00  0.00    +0.000 OA
BRANCH  12  15
ATOM     14  C   UNL     1       7.740   5.631  19.675  0.00  0.00    +0.000 C 
ATOM     15  O   UNL     1       6.932   4.881  18.768  0.00  0.00    +0.000 OA
ENDBRANCH  12  15
ENDBRANCH  10  12
ENDBRANCH   1  10
BRANCH   1  16
ATOM     16  C   UNL     1       5.573   4.937  15.023  0.00  0.00    +0.000 C 
ATOM     17  N   UNL     1       5.747   4.184  14.158  0.00  0.00    +0.000 NA
ENDBRANCH   1  16
TORSDOF 5
ENDMDL
MODEL 5
REMARK VINA RESULT:      -6.6      1.056      2.195
REMARK  Name = 
REMARK  6 active torsions:
REMARK  status: ('A' for Active; 'I' for Inactive)
REMARK    1  A    between atoms: C_1  and  O_2
REMARK    2  A    between atoms: O_2  and  C_3
REMARK    3  A    between atoms: C_3  and  C_5
REMARK    4  A    between atoms: C_5  and  C_7
REMARK    5  A    between atoms: C_7  and  C_8
REMARK    6  A    between atoms: C_7  and  C_10
REMARK                            x       y       z     vdW  Elec       q    Type
REMARK                         _______ _______ _______ _____ _____    ______ ____
ROOT
ATOM      1  C   UNL     1       5.737   5.461  15.835  0.00  0.00    +0.000 C 
ENDROOT
BRANCH   1   2
ATOM      2  C   UNL     1       4.574   5.136  16.777  0.00  0.00    +0.000 A 
ATOM      3  C   UNL     1       4.128   3.822  16.999  0.00  0.00    +0.000 A 
ATOM      4  C   UNL     1       3.110   3.561  17.923  0.00  0.00    +0.000 A 
ATOM      5  C   UNL     1       2.528   4.602  18.651  0.00  0.00    +0.000 A 
ATOM      6 CL   UNL     1       1.298   4.200  19.793  0.00  0.00    +0.000 Cl
ATOM      7  C   UNL     1       2.962   5.913  18.445  0.00  0.00    +0.000 A 
ATOM      8 CL   UNL     1       2.305   7.256  19.310  0.00  0.00    +0.000 Cl
ATOM      9  C   UNL     1       3.976   6.176  17.514  0.00  0.00    +0.000 A 
ENDBRANCH   1   2
BRANCH   1  10
ATOM     10  C   UNL     1       7.064   5.377  16.558  0.00  0.00    +0.000 C 
ATOM     11  O   UNL     1       7.836   4.427  16.491  0.00  0.00    +0.000 OA
BRANCH  10  12
ATOM     12  C   UNL     1       7.412   6.598  17.410  0.00  0.00    +0.000 C 
ATOM     13  O   UNL     1       7.178   7.731  17.031  0.00  0.00    +0.000 OA
BRANCH  12  15
ATOM     14  C   UNL     1       7.028   5.583  19.480  0.00  0.00    +0.000 C 
ATOM     15  O   UNL     1       7.942   6.221  18.589  0.00  0.00    +0.000 OA
ENDBRANCH  12  15
ENDBRANCH  10  12
ENDBRANCH   1  10
BRANCH   1  16
ATOM     16  C   UNL     1       5.806   4.604  14.641  0.00  0.00    +0.000 C 
ATOM     17  N   UNL     1       5.866   3.932  13.697  0.00  0.00    +0.000 NA
ENDBRANCH   1  16
TORSDOF 5
ENDMDL
MODEL 6
REMARK VINA RESULT:      -6.5      1.323      2.447
REMARK  Name = 
REMARK  6 active torsions:
REMARK  status: ('A' for Active; 'I' for Inactive)
REMARK    1  A    between atoms: C_1  and  O_2
REMARK    2  A    between atoms: O_2  and  C_3
REMARK    3  A    between atoms: C_3  and  C_5
REMARK    4  A    between atoms: C_5  and  C_7
REMARK    5  A    between atoms: C_7  and  C_8
REMARK    6  A    between atoms: C_7  and  C_10
REMARK                            x       y       z     vdW  Elec       q    Type
REMARK                         _______ _______ _______ _____ _____    ______ ____
ROOT
ATOM      1  C   UNL     1       5.565   5.719  15.942  0.00  0.00    +0.000 C 
ENDROOT
BRANCH   1   2
ATOM      2  C   UNL     1       4.410   5.331  16.869  0.00  0.00    +0.000 A 
ATOM      3  C   UNL     1       3.917   4.017  16.951  0.00  0.00    +0.000 A 
ATOM      4  C   UNL     1       2.909   3.690  17.864  0.00  0.00    +0.000 A 
ATOM      5  C   UNL     1       2.384   4.660  18.720  0.00  0.00    +0.000 A 
ATOM      6 CL   UNL     1       1.162   4.176  19.839  0.00  0.00    +0.000 Cl
ATOM      7  C   UNL     1       2.865   5.970  18.654  0.00  0.00    +0.000 A 
ATOM      8 CL   UNL     1       2.279   7.228  19.683  0.00  0.00    +0.000 Cl
ATOM      9  C   UNL     1       3.869   6.301  17.734  0.00  0.00    +0.000 A 
ENDBRANCH   1   2
BRANCH   1  10
ATOM     10  C   UNL     1       6.805   6.076  16.735  0.00  0.00    +0.000 C 
ATOM     11  O   UNL     1       7.323   7.187  16.756  0.00  0.00    +0.000 OA
BRANCH  10  12
ATOM     12  C   UNL     1       7.401   4.928  17.550  0.00  0.00    +0.000 C 
ATOM     13  O   UNL     1       8.213   4.158  17.073  0.00  0.00    +0.000 OA
BRANCH  12  15
ATOM     14  C   UNL     1       7.783   5.612  19.752  0.00  0.00    +0.000 C 
ATOM     15  O   UNL     1       6.935   4.951  18.813  0.00  0.00    +0.000 OA
ENDBRANCH  12  15
ENDBRANCH  10  12
ENDBRANCH   1  10
BRANCH   1  16
ATOM     16  C   UNL     1       5.927   4.684  14.960  0.00  0.00    +0.000 C 
ATOM     17  N   UNL     1       6.214   3.873  14.182  0.00  0.00    +0.000 NA
ENDBRANCH   1  16
TORSDOF 5
ENDMDL
MODEL 7
REMARK VINA RESULT:      -6.5      2.402      3.508
REMARK  Name = 
REMARK  6 active torsions:
REMARK  status: ('A' for Active; 'I' for Inactive)
REMARK    1  A    between atoms: C_1  and  O_2
REMARK    2  A    between atoms: O_2  and  C_3
REMARK    3  A    between atoms: C_3  and  C_5
REMARK    4  A    between atoms: C_5  and  C_7
REMARK    5  A    between atoms: C_7  and  C_8
REMARK    6  A    between atoms: C_7  and  C_10
REMARK                            x       y       z     vdW  Elec       q    Type
REMARK                         _______ _______ _______ _____ _____    ______ ____
ROOT
ATOM      1  C   UNL     1       6.241   4.553  17.468  0.00  0.00    +0.000 C 
ENDROOT
BRANCH   1   2
ATOM      2  C   UNL     1       4.807   4.168  17.839  0.00  0.00    +0.000 A 
ATOM      3  C   UNL     1       4.016   3.333  17.031  0.00  0.00    +0.000 A 
ATOM      4  C   UNL     1       2.736   2.947  17.442  0.00  0.00    +0.000 A 
ATOM      5  C   UNL     1       2.226   3.373  18.670  0.00  0.00    +0.000 A 
ATOM      6 CL   UNL     1       0.650   2.833  19.123  0.00  0.00    +0.000 Cl
ATOM      7  C   UNL     1       3.000   4.200  19.488  0.00  0.00    +0.000 A 
ATOM      8 CL   UNL     1       2.451   4.763  21.026  0.00  0.00    +0.000 Cl
ATOM      9  C   UNL     1       4.279   4.594  19.074  0.00  0.00    +0.000 A 
ENDBRANCH   1   2
BRANCH   1  10
ATOM     10  C   UNL     1       6.264   5.515  16.299  0.00  0.00    +0.000 C 
ATOM     11  O   UNL     1       5.805   6.652  16.323  0.00  0.00    +0.000 OA
BRANCH  10  12
ATOM     12  C   UNL     1       6.925   4.974  15.032  0.00  0.00    +0.000 C 
ATOM     13  O   UNL     1       7.886   5.524  14.526  0.00  0.00    +0.000 OA
BRANCH  12  15
ATOM     14  C   UNL     1       6.192   3.696  13.218  0.00  0.00    +0.000 C 
ATOM     15  O   UNL     1       6.326   3.837  14.631  0.00  0.00    +0.000 OA
ENDBRANCH  12  15
ENDBRANCH  10  12
ENDBRANCH   1  10
BRANCH   1  16
ATOM     16  C   UNL     1       7.012   5.148  18.571  0.00  0.00    +0.000 C 
ATOM     17  N   UNL     1       7.624   5.621  19.437  0.00  0.00    +0.000 NA
ENDBRANCH   1  16
TORSDOF 5
ENDMDL
MODEL 8
REMARK VINA RESULT:      -6.3      3.053      3.893
REMARK  Name = 
REMARK  6 active torsions:
REMARK  status: ('A' for Active; 'I' for Inactive)
REMARK    1  A    between atoms: C_1  and  O_2
REMARK    2  A    between atoms: O_2  and  C_3
REMARK    3  A    between atoms: C_3  and  C_5
REMARK    4  A    between atoms: C_5  and  C_7
REMARK    5  A    between atoms: C_7  and  C_8
REMARK    6  A    between atoms: C_7  and  C_10
REMARK                            x       y       z     vdW  Elec       q    Type
REMARK                         _______ _______ _______ _____ _____    ______ ____
ROOT
ATOM      1  C   UNL     1       4.205   4.123  17.606  0.00  0.00    +0.000 C 
ENDROOT
BRANCH   1   2
ATOM      2  C   UNL     1       3.377   5.135  18.404  0.00  0.00    +0.000 A 
ATOM      3  C   UNL     1       2.846   4.842  19.672  0.00  0.00    +0.000 A 
ATOM      4  C   UNL     1       2.157   5.819  20.399  0.00  0.00    +0.000 A 
ATOM      5  C   UNL     1       1.999   7.108  19.884  0.00  0.00    +0.000 A 
ATOM      6 CL   UNL     1       1.163   8.268  20.851  0.00  0.00    +0.000 Cl
ATOM      7  C   UNL     1       2.524   7.417  18.627  0.00  0.00    +0.000 A 
ATOM      8 CL   UNL     1       2.383   8.987  17.921  0.00  0.00    +0.000 Cl
ATOM      9  C   UNL     1       3.207   6.436  17.894  0.00  0.00    +0.000 A 
ENDBRANCH   1   2
BRANCH   1  10
ATOM     10  C   UNL     1       5.685   4.297  17.873  0.00  0.00    +0.000 C 
ATOM     11  O   UNL     1       6.198   4.294  18.987  0.00  0.00    +0.000 OA
BRANCH  10  12
ATOM     12  C   UNL     1       6.548   4.477  16.624  0.00  0.00    +0.000 C 
ATOM     13  O   UNL     1       7.764   4.434  16.674  0.00  0.00    +0.000 OA
BRANCH  12  15
ATOM     14  C   UNL     1       6.318   4.076  14.334  0.00  0.00    +0.000 C 
ATOM     15  O   UNL     1       5.777   4.632  15.532  0.00  0.00    +0.000 OA
ENDBRANCH  12  15
ENDBRANCH  10  12
ENDBRANCH   1  10
BRANCH   1  16
ATOM     16  C   UNL     1       3.851   2.718  17.861  0.00  0.00    +0.000 C 
ATOM     17  N   UNL     1       3.576   1.608  18.057  0.00  0.00    +0.000 NA
ENDBRANCH   1  16
TORSDOF 5
ENDMDL
MODEL 9
REMARK VINA RESULT:      -6.3      2.206      3.292
REMARK  Name = 
REMARK  6 active torsions:
REMARK  status: ('A' for Active; 'I' for Inactive)
REMARK    1  A    between atoms: C_1  and  O_2
REMARK    2  A    between atoms: O_2  and  C_3
REMARK    3  A    between atoms: C_3  and  C_5
REMARK    4  A    between atoms: C_5  and  C_7
REMARK    5  A    between atoms: C_7  and  C_8
REMARK    6  A    between atoms: C_7  and  C_10
REMARK                            x       y       z     vdW  Elec       q    Type
REMARK                         _______ _______ _______ _____ _____    ______ ____
ROOT
ATOM      1  C   UNL     1       6.324   5.162  17.233  0.00  0.00    +0.000 C 
ENDROOT
BRANCH   1   2
ATOM      2  C   UNL     1       5.068   4.819  18.038  0.00  0.00    +0.000 A 
ATOM      3  C   UNL     1       4.606   5.622  19.094  0.00  0.00    +0.000 A 
ATOM      4  C   UNL     1       3.413   5.313  19.757  0.00  0.00    +0.000 A 
ATOM      5  C   UNL     1       2.653   4.207  19.371  0.00  0.00    +0.000 A 
ATOM      6 CL   UNL     1       1.179   3.903  20.217  0.00  0.00    +0.000 Cl
ATOM      7  C   UNL     1       3.096   3.399  18.321  0.00  0.00    +0.000 A 
ATOM      8 CL   UNL     1       2.212   2.020  17.773  0.00  0.00    +0.000 Cl
ATOM      9  C   UNL     1       4.294   3.704  17.661  0.00  0.00    +0.000 A 
ENDBRANCH   1   2
BRANCH   1  10
ATOM     10  C   UNL     1       5.964   5.740  15.880  0.00  0.00    +0.000 C 
ATOM     11  O   UNL     1       5.219   6.698  15.707  0.00  0.00    +0.000 OA
BRANCH  10  12
ATOM     12  C   UNL     1       6.614   5.040  14.687  0.00  0.00    +0.000 C 
ATOM     13  O   UNL     1       7.762   5.273  14.355  0.00  0.00    +0.000 OA
BRANCH  12  15
ATOM     14  C   UNL     1       6.202   3.593  12.898  0.00  0.00    +0.000 C 
ATOM     15  O   UNL     1       5.767   4.150  14.138  0.00  0.00    +0.000 OA
ENDBRANCH  12  15
ENDBRANCH  10  12
ENDBRANCH   1  10
BRANCH   1  16
ATOM     16  C   UNL     1       7.238   6.098  17.907  0.00  0.00    +0.000 C 
ATOM     17  N   UNL     1       7.963   6.831  18.439  0.00  0.00    +0.000 NA
ENDBRANCH   1  16
TORSDOF 5
ENDMDL
