MODEL 1
REMARK VINA RESULT:      -8.1      0.000      0.000
REMARK  Name = 
REMARK  5 active torsions:
REMARK  status: ('A' for Active; 'I' for Inactive)
REMARK    1  A    between atoms: C_1  and  O_2
REMARK    2  A    between atoms: O_2  and  C_3
REMARK    3  A    between atoms: C_3  and  C_4
REMARK    4  A    between atoms: C_4  and  N_5
REMARK    5  A    between atoms: C_4  and  C_19
REMARK                            x       y       z     vdW  Elec       q    Type
REMARK                         _______ _______ _______ _____ _____    ______ ____
ROOT
ATOM      1  N   UNL     1       3.235   6.170  18.488  0.00  0.00    +0.000 N 
ATOM      2  C   UNL     1       2.898   5.749  19.731  0.00  0.00    +0.000 C 
ATOM      3  O   UNL     1       3.218   4.664  20.206  0.00  0.00    +0.000 OA
ATOM      4  N   UNL     1       2.171   6.639  20.486  0.00  0.00    +0.000 N 
ATOM      5  C   UNL     1       1.720   7.912  20.107  0.00  0.00    +0.000 A 
ATOM      6  C   UNL     1       1.180   8.747  21.081  0.00  0.00    +0.000 A 
ATOM      7  C   UNL     1       0.830  10.025  20.631  0.00  0.00    +0.000 A 
ATOM      8  N   UNL     1       0.331  11.132  21.264  0.00  0.00    +0.000 N 
ATOM      9  N   UNL     1       0.135  12.189  20.455  0.00  0.00    +0.000 NA
ATOM     10  C   UNL     1       0.506  11.750  19.257  0.00  0.00    +0.000 A 
ATOM     11  N   UNL     1       0.461  12.496  18.145  0.00  0.00    +0.000 N 
ATOM     12  C   UNL     1       0.963  10.416  19.303  0.00  0.00    +0.000 A 
ATOM     13  C   UNL     1       1.468   9.500  18.388  0.00  0.00    +0.000 A 
ATOM     14  N   UNL     1       1.857   8.278  18.808  0.00  0.00    +0.000 NA
ATOM     15  H   UNL     1       2.914   7.103  18.261  0.00  0.00    +0.000 HD
ATOM     16  H   UNL     1       2.005   6.320  21.427  0.00  0.00    +0.000 HD
ATOM     17  H   UNL     1       0.112  11.238  22.248  0.00  0.00    +0.000 HD
ATOM     18  H   UNL     1       0.281  13.489  18.250  0.00  0.00    +0.000 HD
ATOM     19  H   UNL     1       0.942  12.241  17.293  0.00  0.00    +0.000 HD
ENDROOT
BRANCH   1  20
ATOM     20  C   UNL     1       4.138   5.520  17.564  0.00  0.00    +0.000 C 
BRANCH  20  21
ATOM     21  C   UNL     1       5.582   5.934  17.821  0.00  0.00    +0.000 A 
ATOM     22  C   UNL     1       6.300   5.292  18.841  0.00  0.00    +0.000 A 
ATOM     23  C   UNL     1       7.561   5.747  19.221  0.00  0.00    +0.000 A 
ATOM     24  C   UNL     1       8.130   6.846  18.580  0.00  0.00    +0.000 A 
ATOM     25  C   UNL     1       7.447   7.478  17.543  0.00  0.00    +0.000 A 
ATOM     26  C   UNL     1       6.180   7.026  17.165  0.00  0.00    +0.000 A 
ENDBRANCH  20  21
BRANCH  20  27
ATOM     27  C   UNL     1       4.082   3.975  17.702  0.00  0.00    +0.000 C 
BRANCH  27  29
ATOM     28  C   UNL     1       2.453   2.282  17.748  0.00  0.00    +0.000 C 
ATOM     29  O   UNL     1       2.951   3.408  17.034  0.00  0.00    +0.000 OA
ENDBRANCH  27  29
ENDBRANCH  20  27
ENDBRANCH   1  20
TORSDOF 4
ENDMDL
MODEL 2
REMARK VINA RESULT:      -8.0      3.050      7.801
REMARK  Name = 
REMARK  5 active torsions:
REMARK  status: ('A' for Active; 'I' for Inactive)
REMARK    1  A    between atoms: C_1  and  O_2
REMARK    2  A    between atoms: O_2  and  C_3
REMARK    3  A    between atoms: C_3  and  C_4
REMARK    4  A    between atoms: C_4  and  N_5
REMARK    5  A    between atoms: C_4  and  C_19
REMARK                            x       y       z     vdW  Elec       q    Type
REMARK                         _______ _______ _______ _____ _____    ______ ____
ROOT
ATOM      1  N   UNL     1       1.445   8.899  19.405  0.00  0.00    +0.000 N 
ATOM      2  C   UNL     1       2.130   8.871  18.236  0.00  0.00    +0.000 C 
ATOM      3  O   UNL     1       2.237   9.825  17.472  0.00  0.00    +0.000 OA
ATOM      4  N   UNL     1       2.751   7.682  17.937  0.00  0.00    +0.000 N 
ATOM      5  C   UNL     1       2.734   6.496  18.687  0.00  0.00    +0.000 A 
ATOM      6  C   UNL     1       3.595   5.465  18.326  0.00  0.00    +0.000 A 
ATOM      7  C   UNL     1       3.569   4.353  19.176  0.00  0.00    +0.000 A 
ATOM      8  N   UNL     1       4.280   3.183  19.202  0.00  0.00    +0.000 N 
ATOM      9  N   UNL     1       3.949   2.358  20.213  0.00  0.00    +0.000 NA
ATOM     10  C   UNL     1       2.984   3.009  20.855  0.00  0.00    +0.000 A 
ATOM     11  N   UNL     1       2.357   2.529  21.938  0.00  0.00    +0.000 N 
ATOM     12  C   UNL     1       2.712   4.263  20.267  0.00  0.00    +0.000 A 
ATOM     13  C   UNL     1       1.852   5.322  20.526  0.00  0.00    +0.000 A 
ATOM     14  N   UNL     1       1.894   6.425  19.750  0.00  0.00    +0.000 NA
ATOM     15  H   UNL     1       1.478   8.034  19.929  0.00  0.00    +0.000 HD
ATOM     16  H   UNL     1       3.310   7.724  17.100  0.00  0.00    +0.000 HD
ATOM     17  H   UNL     1       5.013   2.887  18.567  0.00  0.00    +0.000 HD
ATOM     18  H   UNL     1       2.744   1.701  22.378  0.00  0.00    +0.000 HD
ATOM     19  H   UNL     1       1.792   3.106  22.545  0.00  0.00    +0.000 HD
ENDROOT
BRANCH   1  20
ATOM     20  C   UNL     1       0.861  10.058  20.043  0.00  0.00    +0.000 C 
BRANCH  20  21
ATOM     21  C   UNL     1      -0.282  10.629  19.211  0.00  0.00    +0.000 A 
ATOM     22  C   UNL     1      -1.255   9.754  18.706  0.00  0.00    +0.000 A 
ATOM     23  C   UNL     1      -2.220  10.205  17.807  0.00  0.00    +0.000 A 
ATOM     24  C   UNL     1      -2.235  11.540  17.407  0.00  0.00    +0.000 A 
ATOM     25  C   UNL     1      -1.296  12.431  17.922  0.00  0.00    +0.000 A 
ATOM     26  C   UNL     1      -0.324  11.980  18.819  0.00  0.00    +0.000 A 
ENDBRANCH  20  21
BRANCH  20  27
ATOM     27  C   UNL     1       0.272   9.708  21.436  0.00  0.00    +0.000 C 
BRANCH  27  29
ATOM     28  C   UNL     1      -0.961  10.901  23.042  0.00  0.00    +0.000 C 
ATOM     29  O   UNL     1       0.265  10.830  22.324  0.00  0.00    +0.000 OA
ENDBRANCH  27  29
ENDBRANCH  20  27
ENDBRANCH   1  20
TORSDOF 4
ENDMDL
MODEL 3
REMARK VINA RESULT:      -8.0      1.813      2.163
REMARK  Name = 
REMARK  5 active torsions:
REMARK  status: ('A' for Active; 'I' for Inactive)
REMARK    1  A    between atoms: C_1  and  O_2
REMARK    2  A    between atoms: O_2  and  C_3
REMARK    3  A    between atoms: C_3  and  C_4
REMARK    4  A    between atoms: C_4  and  N_5
REMARK    5  A    between atoms: C_4  and  C_19
REMARK                            x       y       z     vdW  Elec       q    Type
REMARK                         _______ _______ _______ _____ _____    ______ ____
ROOT
ATOM      1  N   UNL     1       2.788   5.655  19.318  0.00  0.00    +0.000 N 
ATOM      2  C   UNL     1       2.021   5.573  20.432  0.00  0.00    +0.000 C 
ATOM      3  O   UNL     1       1.858   4.550  21.088  0.00  0.00    +0.000 OA
ATOM      4  N   UNL     1       1.421   6.745  20.831  0.00  0.00    +0.000 N 
ATOM      5  C   UNL     1       1.495   7.998  20.205  0.00  0.00    +0.000 A 
ATOM      6  C   UNL     1       0.992   9.109  20.875  0.00  0.00    +0.000 A 
ATOM      7  C   UNL     1       1.178  10.329  20.213  0.00  0.00    +0.000 A 
ATOM      8  N   UNL     1       0.886  11.624  20.547  0.00  0.00    +0.000 N 
ATOM      9  N   UNL     1       1.243  12.527  19.615  0.00  0.00    +0.000 NA
ATOM     10  C   UNL     1       1.771  11.793  18.641  0.00  0.00    +0.000 A 
ATOM     11  N   UNL     1       2.252  12.306  17.501  0.00  0.00    +0.000 N 
ATOM     12  C   UNL     1       1.773  10.419  18.960  0.00  0.00    +0.000 A 
ATOM     13  C   UNL     1       2.204   9.251  18.343  0.00  0.00    +0.000 A 
ATOM     14  N   UNL     1       2.079   8.069  18.983  0.00  0.00    +0.000 NA
ATOM     15  H   UNL     1       2.837   6.580  18.911  0.00  0.00    +0.000 HD
ATOM     16  H   UNL     1       0.921   6.660  21.701  0.00  0.00    +0.000 HD
ATOM     17  H   UNL     1       0.455  11.964  21.399  0.00  0.00    +0.000 HD
ATOM     18  H   UNL     1       2.360  13.314  17.445  0.00  0.00    +0.000 HD
ATOM     19  H   UNL     1       2.843  11.782  16.870  0.00  0.00    +0.000 HD
ENDROOT
BRANCH   1  20
ATOM     20  C   UNL     1       3.666   4.634  18.790  0.00  0.00    +0.000 C 
BRANCH  20  21
ATOM     21  C   UNL     1       4.215   5.029  17.424  0.00  0.00    +0.000 A 
ATOM     22  C   UNL     1       4.611   4.019  16.535  0.00  0.00    +0.000 A 
ATOM     23  C   UNL     1       5.269   4.332  15.348  0.00  0.00    +0.000 A 
ATOM     24  C   UNL     1       5.534   5.662  15.025  0.00  0.00    +0.000 A 
ATOM     25  C   UNL     1       5.121   6.681  15.879  0.00  0.00    +0.000 A 
ATOM     26  C   UNL     1       4.466   6.368  17.073  0.00  0.00    +0.000 A 
ENDBRANCH  20  21
BRANCH  20  27
ATOM     27  C   UNL     1       4.890   4.398  19.716  0.00  0.00    +0.000 C 
BRANCH  27  29
ATOM     28  C   UNL     1       4.139   2.177  19.860  0.00  0.00    +0.000 C 
ATOM     29  O   UNL     1       5.279   3.023  19.767  0.00  0.00    +0.000 OA
ENDBRANCH  27  29
ENDBRANCH  20  27
ENDBRANCH   1  20
TORSDOF 4
ENDMDL
MODEL 4
REMARK VINA RESULT:      -8.0      5.177      7.832
REMARK  Name = 
REMARK  5 active torsions:
REMARK  status: ('A' for Active; 'I' for Inactive)
REMARK    1  A    between atoms: C_1  and  O_2
REMARK    2  A    between atoms: O_2  and  C_3
REMARK    3  A    between atoms: C_3  and  C_4
REMARK    4  A    between atoms: C_4  and  N_5
REMARK    5  A    between atoms: C_4  and  C_19
REMARK                            x       y       z     vdW  Elec       q    Type
REMARK                         _______ _______ _______ _____ _____    ______ ____
ROOT
ATOM      1  N   UNL     1       5.358   3.995  18.873  0.00  0.00    +0.000 N 
ATOM      2  C   UNL     1       6.434   4.810  18.993  0.00  0.00    +0.000 C 
ATOM      3  O   UNL     1       6.888   5.207  20.062  0.00  0.00    +0.000 OA
ATOM      4  N   UNL     1       7.042   5.174  17.815  0.00  0.00    +0.000 N 
ATOM      5  C   UNL     1       6.662   4.819  16.512  0.00  0.00    +0.000 A 
ATOM      6  C   UNL     1       7.525   5.113  15.461  0.00  0.00    +0.000 A 
ATOM      7  C   UNL     1       7.103   4.653  14.208  0.00  0.00    +0.000 A 
ATOM      8  N   UNL     1       7.671   4.687  12.963  0.00  0.00    +0.000 N 
ATOM      9  N   UNL     1       6.925   4.114  12.000  0.00  0.00    +0.000 NA
ATOM     10  C   UNL     1       5.834   3.706  12.639  0.00  0.00    +0.000 A 
ATOM     11  N   UNL     1       4.811   3.081  12.040  0.00  0.00    +0.000 N 
ATOM     12  C   UNL     1       5.890   3.998  14.018  0.00  0.00    +0.000 A 
ATOM     13  C   UNL     1       5.069   3.789  15.119  0.00  0.00    +0.000 A 
ATOM     14  N   UNL     1       5.477   4.181  16.344  0.00  0.00    +0.000 NA
ATOM     15  H   UNL     1       5.131   3.741  17.920  0.00  0.00    +0.000 HD
ATOM     16  H   UNL     1       7.880   5.717  17.950  0.00  0.00    +0.000 HD
ATOM     17  H   UNL     1       8.569   5.076  12.700  0.00  0.00    +0.000 HD
ATOM     18  H   UNL     1       4.944   2.768  11.084  0.00  0.00    +0.000 HD
ATOM     19  H   UNL     1       4.096   2.583  12.552  0.00  0.00    +0.000 HD
ENDROOT
BRANCH   1  20
ATOM     20  C   UNL     1       4.653   3.323  19.941  0.00  0.00    +0.000 C 
BRANCH  20  21
ATOM     21  C   UNL     1       3.153   3.288  19.678  0.00  0.00    +0.000 A 
ATOM     22  C   UNL     1       2.299   4.007  20.528  0.00  0.00    +0.000 A 
ATOM     23  C   UNL     1       0.915   3.873  20.428  0.00  0.00    +0.000 A 
ATOM     24  C   UNL     1       0.362   3.026  19.469  0.00  0.00    +0.000 A 
ATOM     25  C   UNL     1       1.192   2.327  18.595  0.00  0.00    +0.000 A 
ATOM     26  C   UNL     1       2.580   2.457  18.698  0.00  0.00    +0.000 A 
ENDBRANCH  20  21
BRANCH  20  27
ATOM     27  C   UNL     1       5.117   1.849  20.094  0.00  0.00    +0.000 C 
BRANCH  27  29
ATOM     28  C   UNL     1       5.878   0.171  21.552  0.00  0.00    +0.000 C 
ATOM     29  O   UNL     1       5.337   1.484  21.459  0.00  0.00    +0.000 OA
ENDBRANCH  27  29
ENDBRANCH  20  27
ENDBRANCH   1  20
TORSDOF 4
ENDMDL
MODEL 5
REMARK VINA RESULT:      -7.9      1.651      4.147
REMARK  Name = 
REMARK  5 active torsions:
REMARK  status: ('A' for Active; 'I' for Inactive)
REMARK    1  A    between atoms: C_1  and  O_2
REMARK    2  A    between atoms: O_2  and  C_3
REMARK    3  A    between atoms: C_3  and  C_4
REMARK    4  A    between atoms: C_4  and  N_5
REMARK    5  A    between atoms: C_4  and  C_19
REMARK                            x       y       z     vdW  Elec       q    Type
REMARK                         _______ _______ _______ _____ _____    ______ ____
ROOT
ATOM      1  N   UNL     1       3.322   6.460  19.244  0.00  0.00    +0.000 N 
ATOM      2  C   UNL     1       3.374   6.950  17.981  0.00  0.00    +0.000 C 
ATOM      3  O   UNL     1       4.022   6.448  17.068  0.00  0.00    +0.000 OA
ATOM      4  N   UNL     1       2.616   8.073  17.745  0.00  0.00    +0.000 N 
ATOM      5  C   UNL     1       1.822   8.776  18.663  0.00  0.00    +0.000 A 
ATOM      6  C   UNL     1       0.965   9.763  18.186  0.00  0.00    +0.000 A 
ATOM      7  C   UNL     1       0.153  10.357  19.160  0.00  0.00    +0.000 A 
ATOM      8  N   UNL     1      -0.834  11.303  19.099  0.00  0.00    +0.000 N 
ATOM      9  N   UNL     1      -1.387  11.601  20.289  0.00  0.00    +0.000 NA
ATOM     10  C   UNL     1      -0.728  10.833  21.151  0.00  0.00    +0.000 A 
ATOM     11  N   UNL     1      -0.964  10.824  22.469  0.00  0.00    +0.000 N 
ATOM     12  C   UNL     1       0.233  10.024  20.508  0.00  0.00    +0.000 A 
ATOM     13  C   UNL     1       1.152   9.060  20.901  0.00  0.00    +0.000 A 
ATOM     14  N   UNL     1       1.910   8.439  19.974  0.00  0.00    +0.000 NA
ATOM     15  H   UNL     1       2.719   6.979  19.869  0.00  0.00    +0.000 HD
ATOM     16  H   UNL     1       2.623   8.361  16.780  0.00  0.00    +0.000 HD
ATOM     17  H   UNL     1      -1.189  11.779  18.277  0.00  0.00    +0.000 HD
ATOM     18  H   UNL     1      -1.787  11.312  22.805  0.00  0.00    +0.000 HD
ATOM     19  H   UNL     1      -0.626  10.095  23.082  0.00  0.00    +0.000 HD
ENDROOT
BRANCH   1  20
ATOM     20  C   UNL     1       3.868   5.205  19.712  0.00  0.00    +0.000 C 
BRANCH  20  21
ATOM     21  C   UNL     1       2.906   4.052  19.451  0.00  0.00    +0.000 A 
ATOM     22  C   UNL     1       3.160   3.189  18.375  0.00  0.00    +0.000 A 
ATOM     23  C   UNL     1       2.226   2.226  17.998  0.00  0.00    +0.000 A 
ATOM     24  C   UNL     1       1.026   2.105  18.697  0.00  0.00    +0.000 A 
ATOM     25  C   UNL     1       0.769   2.932  19.787  0.00  0.00    +0.000 A 
ATOM     26  C   UNL     1       1.702   3.901  20.164  0.00  0.00    +0.000 A 
ENDBRANCH  20  21
BRANCH  20  27
ATOM     27  C   UNL     1       5.197   4.855  18.991  0.00  0.00    +0.000 C 
BRANCH  27  29
ATOM     28  C   UNL     1       7.381   5.718  18.929  0.00  0.00    +0.000 C 
ATOM     29  O   UNL     1       6.348   5.208  19.763  0.00  0.00    +0.000 OA
ENDBRANCH  27  29
ENDBRANCH  20  27
ENDBRANCH   1  20
TORSDOF 4
ENDMDL
MODEL 6
REMARK VINA RESULT:      -7.9      1.619      2.657
REMARK  Name = 
REMARK  5 active torsions:
REMARK  status: ('A' for Active; 'I' for Inactive)
REMARK    1  A    between atoms: C_1  and  O_2
REMARK    2  A    between atoms: O_2  and  C_3
REMARK    3  A    between atoms: C_3  and  C_4
REMARK    4  A    between atoms: C_4  and  N_5
REMARK    5  A    between atoms: C_4  and  C_19
REMARK                            x       y       z     vdW  Elec       q    Type
REMARK                         _______ _______ _______ _____ _____    ______ ____
ROOT
ATOM      1  N   UNL     1       3.524   4.865  19.155  0.00  0.00    +0.000 N 
ATOM      2  C   UNL     1       2.827   4.551  20.273  0.00  0.00    +0.000 C 
ATOM      3  O   UNL     1       2.885   3.467  20.845  0.00  0.00    +0.000 OA
ATOM      4  N   UNL     1       2.031   5.550  20.781  0.00  0.00    +0.000 N 
ATOM      5  C   UNL     1       1.842   6.839  20.261  0.00  0.00    +0.000 A 
ATOM      6  C   UNL     1       1.162   7.777  21.031  0.00  0.00    +0.000 A 
ATOM      7  C   UNL     1       1.089   9.057  20.470  0.00  0.00    +0.000 A 
ATOM      8  N   UNL     1       0.569  10.242  20.916  0.00  0.00    +0.000 N 
ATOM      9  N   UNL     1       0.714  11.267  20.056  0.00  0.00    +0.000 NA
ATOM     10  C   UNL     1       1.336  10.727  19.014  0.00  0.00    +0.000 A 
ATOM     11  N   UNL     1       1.670  11.410  17.911  0.00  0.00    +0.000 N 
ATOM     12  C   UNL     1       1.611   9.358  19.216  0.00  0.00    +0.000 A 
ATOM     13  C   UNL     1       2.233   8.346  18.496  0.00  0.00    +0.000 A 
ATOM     14  N   UNL     1       2.358   7.116  19.038  0.00  0.00    +0.000 NA
ATOM     15  H   UNL     1       3.381   5.811  18.826  0.00  0.00    +0.000 HD
ATOM     16  H   UNL     1       1.588   5.303  21.652  0.00  0.00    +0.000 HD
ATOM     17  H   UNL     1       0.112  10.426  21.803  0.00  0.00    +0.000 HD
ATOM     18  H   UNL     1       1.582  12.420  17.937  0.00  0.00    +0.000 HD
ATOM     19  H   UNL     1       2.326  11.060  17.226  0.00  0.00    +0.000 HD
ENDROOT
BRANCH   1  20
ATOM     20  C   UNL     1       4.560   4.076  18.525  0.00  0.00    +0.000 C 
BRANCH  20  21
ATOM     21  C   UNL     1       4.854   4.573  17.115  0.00  0.00    +0.000 A 
ATOM     22  C   UNL     1       5.403   3.680  16.183  0.00  0.00    +0.000 A 
ATOM     23  C   UNL     1       5.840   4.129  14.938  0.00  0.00    +0.000 A 
ATOM     24  C   UNL     1       5.727   5.477  14.602  0.00  0.00    +0.000 A 
ATOM     25  C   UNL     1       5.157   6.374  15.502  0.00  0.00    +0.000 A 
ATOM     26  C   UNL     1       4.723   5.926  16.752  0.00  0.00    +0.000 A 
ENDBRANCH  20  21
BRANCH  20  27
ATOM     27  C   UNL     1       5.895   4.150  19.316  0.00  0.00    +0.000 C 
BRANCH  27  29
ATOM     28  C   UNL     1       7.576   5.791  19.290  0.00  0.00    +0.000 C 
ATOM     29  O   UNL     1       6.241   5.489  19.679  0.00  0.00    +0.000 OA
ENDBRANCH  27  29
ENDBRANCH  20  27
ENDBRANCH   1  20
TORSDOF 4
ENDMDL
MODEL 7
REMARK VINA RESULT:      -7.9      2.453      3.625
REMARK  Name = 
REMARK  5 active torsions:
REMARK  status: ('A' for Active; 'I' for Inactive)
REMARK    1  A    between atoms: C_1  and  O_2
REMARK    2  A    between atoms: O_2  and  C_3
REMARK    3  A    between atoms: C_3  and  C_4
REMARK    4  A    between atoms: C_4  and  N_5
REMARK    5  A    between atoms: C_4  and  C_19
REMARK                            x       y       z     vdW  Elec       q    Type
REMARK                         _______ _______ _______ _____ _____    ______ ____
ROOT
ATOM      1  N   UNL     1       5.270   5.107  18.225  0.00  0.00    +0.000 N 
ATOM      2  C   UNL     1       4.692   4.384  19.214  0.00  0.00    +0.000 C 
ATOM      3  O   UNL     1       5.102   3.297  19.609  0.00  0.00    +0.000 OA
ATOM      4  N   UNL     1       3.587   4.953  19.802  0.00  0.00    +0.000 N 
ATOM      5  C   UNL     1       2.982   6.177  19.479  0.00  0.00    +0.000 A 
ATOM      6  C   UNL     1       2.000   6.681  20.326  0.00  0.00    +0.000 A 
ATOM      7  C   UNL     1       1.509   7.942  19.971  0.00  0.00    +0.000 A 
ATOM      8  N   UNL     1       0.601   8.786  20.553  0.00  0.00    +0.000 N 
ATOM      9  N   UNL     1       0.410   9.938  19.882  0.00  0.00    +0.000 NA
ATOM     10  C   UNL     1       1.209   9.831  18.826  0.00  0.00    +0.000 A 
ATOM     11  N   UNL     1       1.320  10.773  17.880  0.00  0.00    +0.000 N 
ATOM     12  C   UNL     1       1.931   8.619  18.832  0.00  0.00    +0.000 A 
ATOM     13  C   UNL     1       2.883   8.018  18.017  0.00  0.00    +0.000 A 
ATOM     14  N   UNL     1       3.406   6.825  18.365  0.00  0.00    +0.000 NA
ATOM     15  H   UNL     1       4.821   5.995  18.039  0.00  0.00    +0.000 HD
ATOM     16  H   UNL     1       3.231   4.420  20.580  0.00  0.00    +0.000 HD
ATOM     17  H   UNL     1       0.084   8.645  21.413  0.00  0.00    +0.000 HD
ATOM     18  H   UNL     1       0.889  11.674  18.058  0.00  0.00    +0.000 HD
ATOM     19  H   UNL     1       2.075  10.790  17.209  0.00  0.00    +0.000 HD
ENDROOT
BRANCH   1  20
ATOM     20  C   UNL     1       6.531   4.835  17.572  0.00  0.00    +0.000 C 
BRANCH  20  21
ATOM     21  C   UNL     1       6.353   4.686  16.066  0.00  0.00    +0.000 A 
ATOM     22  C   UNL     1       5.177   4.098  15.577  0.00  0.00    +0.000 A 
ATOM     23  C   UNL     1       5.041   3.792  14.225  0.00  0.00    +0.000 A 
ATOM     24  C   UNL     1       6.077   4.076  13.336  0.00  0.00    +0.000 A 
ATOM     25  C   UNL     1       7.241   4.688  13.796  0.00  0.00    +0.000 A 
ATOM     26  C   UNL     1       7.380   4.992  15.153  0.00  0.00    +0.000 A 
ENDBRANCH  20  21
BRANCH  20  27
ATOM     27  C   UNL     1       7.550   5.985  17.793  0.00  0.00    +0.000 C 
BRANCH  27  29
ATOM     28  C   UNL     1       7.955   8.296  17.677  0.00  0.00    +0.000 C 
ATOM     29  O   UNL     1       6.967   7.276  17.601  0.00  0.00    +0.000 OA
ENDBRANCH  27  29
ENDBRANCH  20  27
ENDBRANCH   1  20
TORSDOF 4
ENDMDL
MODEL 8
REMARK VINA RESULT:      -7.8      0.338      1.040
REMARK  Name = 
REMARK  5 active torsions:
REMARK  status: ('A' for Active; 'I' for Inactive)
REMARK    1  A    between atoms: C_1  and  O_2
REMARK    2  A    between atoms: O_2  and  C_3
REMARK    3  A    between atoms: C_3  and  C_4
REMARK    4  A    between atoms: C_4  and  N_5
REMARK    5  A    between atoms: C_4  and  C_19
REMARK                            x       y       z     vdW  Elec       q    Type
REMARK                         _______ _______ _______ _____ _____    ______ ____
ROOT
ATOM      1  N   UNL     1       3.023   6.361  18.693  0.00  0.00    +0.000 N 
ATOM      2  C   UNL     1       2.605   5.971  19.923  0.00  0.00    +0.000 C 
ATOM      3  O   UNL     1       2.859   4.883  20.429  0.00  0.00    +0.000 OA
ATOM      4  N   UNL     1       1.871   6.898  20.625  0.00  0.00    +0.000 N 
ATOM      5  C   UNL     1       1.488   8.180  20.204  0.00  0.00    +0.000 A 
ATOM      6  C   UNL     1       0.927   9.048  21.136  0.00  0.00    +0.000 A 
ATOM      7  C   UNL     1       0.648  10.331  20.650  0.00  0.00    +0.000 A 
ATOM      8  N   UNL     1       0.157  11.465  21.241  0.00  0.00    +0.000 N 
ATOM      9  N   UNL     1       0.043  12.516  20.407  0.00  0.00    +0.000 NA
ATOM     10  C   UNL     1       0.462  12.045  19.238  0.00  0.00    +0.000 A 
ATOM     11  N   UNL     1       0.505  12.775  18.115  0.00  0.00    +0.000 N 
ATOM     12  C   UNL     1       0.867  10.696  19.326  0.00  0.00    +0.000 A 
ATOM     13  C   UNL     1       1.387   9.749  18.453  0.00  0.00    +0.000 A 
ATOM     14  N   UNL     1       1.708   8.521  18.910  0.00  0.00    +0.000 NA
ATOM     15  H   UNL     1       2.749   7.301  18.438  0.00  0.00    +0.000 HD
ATOM     16  H   UNL     1       1.643   6.600  21.560  0.00  0.00    +0.000 HD
ATOM     17  H   UNL     1      -0.111  11.594  22.210  0.00  0.00    +0.000 HD
ATOM     18  H   UNL     1       0.356  13.776  18.196  0.00  0.00    +0.000 HD
ATOM     19  H   UNL     1       1.021  12.490  17.294  0.00  0.00    +0.000 HD
ENDROOT
BRANCH   1  20
ATOM     20  C   UNL     1       3.951   5.665  17.830  0.00  0.00    +0.000 C 
BRANCH  20  21
ATOM     21  C   UNL     1       5.392   6.044  18.147  0.00  0.00    +0.000 A 
ATOM     22  C   UNL     1       6.041   6.984  17.332  0.00  0.00    +0.000 A 
ATOM     23  C   UNL     1       7.403   7.238  17.481  0.00  0.00    +0.000 A 
ATOM     24  C   UNL     1       8.138   6.563  18.454  0.00  0.00    +0.000 A 
ATOM     25  C   UNL     1       7.506   5.648  19.294  0.00  0.00    +0.000 A 
ATOM     26  C   UNL     1       6.141   5.389  19.143  0.00  0.00    +0.000 A 
ENDBRANCH  20  21
BRANCH  20  27
ATOM     27  C   UNL     1       3.844   4.125  17.998  0.00  0.00    +0.000 C 
BRANCH  27  29
ATOM     28  C   UNL     1       2.294   2.367  17.830  0.00  0.00    +0.000 C 
ATOM     29  O   UNL     1       2.774   3.565  17.231  0.00  0.00    +0.000 OA
ENDBRANCH  27  29
ENDBRANCH  20  27
ENDBRANCH   1  20
TORSDOF 4
ENDMDL
MODEL 9
REMARK VINA RESULT:      -7.8      2.258      4.046
REMARK  Name = 
REMARK  5 active torsions:
REMARK  status: ('A' for Active; 'I' for Inactive)
REMARK    1  A    between atoms: C_1  and  O_2
REMARK    2  A    between atoms: O_2  and  C_3
REMARK    3  A    between atoms: C_3  and  C_4
REMARK    4  A    between atoms: C_4  and  N_5
REMARK    5  A    between atoms: C_4  and  C_19
REMARK                            x       y       z     vdW  Elec       q    Type
REMARK                         _______ _______ _______ _____ _____    ______ ____
ROOT
ATOM      1  N   UNL     1       3.360   6.251  18.654  0.00  0.00    +0.000 N 
ATOM      2  C   UNL     1       3.476   7.169  17.663  0.00  0.00    +0.000 C 
ATOM      3  O   UNL     1       4.119   6.999  16.632  0.00  0.00    +0.000 OA
ATOM      4  N   UNL     1       2.791   8.345  17.856  0.00  0.00    +0.000 N 
ATOM      5  C   UNL     1       2.014   8.709  18.966  0.00  0.00    +0.000 A 
ATOM      6  C   UNL     1       1.229   9.856  18.885  0.00  0.00    +0.000 A 
ATOM      7  C   UNL     1       0.427  10.099  20.005  0.00  0.00    +0.000 A 
ATOM      8  N   UNL     1      -0.502  11.062  20.295  0.00  0.00    +0.000 N 
ATOM      9  N   UNL     1      -1.070  10.934  21.509  0.00  0.00    +0.000 NA
ATOM     10  C   UNL     1      -0.482   9.861  22.027  0.00  0.00    +0.000 A 
ATOM     11  N   UNL     1      -0.754   9.381  23.247  0.00  0.00    +0.000 N 
ATOM     12  C   UNL     1       0.448   9.287  21.134  0.00  0.00    +0.000 A 
ATOM     13  C   UNL     1       1.298   8.188  21.147  0.00  0.00    +0.000 A 
ATOM     14  N   UNL     1       2.045   7.907  20.059  0.00  0.00    +0.000 NA
ATOM     15  H   UNL     1       2.771   6.540  19.424  0.00  0.00    +0.000 HD
ATOM     16  H   UNL     1       2.841   8.969  17.067  0.00  0.00    +0.000 HD
ATOM     17  H   UNL     1      -0.805  11.830  19.706  0.00  0.00    +0.000 HD
ATOM     18  H   UNL     1      -1.557   9.762  23.736  0.00  0.00    +0.000 HD
ATOM     19  H   UNL     1      -0.476   8.457  23.548  0.00  0.00    +0.000 HD
ENDROOT
BRANCH   1  20
ATOM     20  C   UNL     1       3.818   4.880  18.626  0.00  0.00    +0.000 C 
BRANCH  20  21
ATOM     21  C   UNL     1       2.992   4.002  19.559  0.00  0.00    +0.000 A 
ATOM     22  C   UNL     1       1.605   4.204  19.628  0.00  0.00    +0.000 A 
ATOM     23  C   UNL     1       0.835   3.543  20.582  0.00  0.00    +0.000 A 
ATOM     24  C   UNL     1       1.437   2.661  21.478  0.00  0.00    +0.000 A 
ATOM     25  C   UNL     1       2.808   2.423  21.406  0.00  0.00    +0.000 A 
ATOM     26  C   UNL     1       3.582   3.090  20.452  0.00  0.00    +0.000 A 
ENDBRANCH  20  21
BRANCH  20  27
ATOM     27  C   UNL     1       3.698   4.265  17.206  0.00  0.00    +0.000 C 
BRANCH  27  29
ATOM     28  C   UNL     1       5.581   4.021  15.822  0.00  0.00    +0.000 C 
ATOM     29  O   UNL     1       4.816   3.439  16.871  0.00  0.00    +0.000 OA
ENDBRANCH  27  29
ENDBRANCH  20  27
ENDBRANCH   1  20
TORSDOF 4
ENDMDL
