MODEL 1
REMARK VINA RESULT:      -7.6      0.000      0.000
REMARK  Name = 
REMARK  9 active torsions:
REMARK  status: ('A' for Active; 'I' for Inactive)
REMARK    1  A    between atoms: C_1  and  O_2
REMARK    2  A    between atoms: O_2  and  C_3
REMARK    3  A    between atoms: C_4  and  N_5
REMARK    4  A    between atoms: C_7  and  C_8
REMARK    5  A    between atoms: C_8  and  N_9
REMARK    6  A    between atoms: C_10  and  C_11
REMARK    7  A    between atoms: C_22  and  C_23
REMARK    8  A    between atoms: C_23  and  O_25
REMARK    9  A    between atoms: N_27  and  C_28
REMARK                            x       y       z     vdW  Elec       q    Type
REMARK                         _______ _______ _______ _____ _____    ______ ____
ROOT
ATOM      1  C   UNL     1       1.576   8.019  19.809  0.00  0.00    +0.000 A 
ATOM      2  C   UNL     1       1.445   9.339  19.237  0.00  0.00    +0.000 A 
ATOM      3  C   UNL     1       2.186   9.645  18.083  0.00  0.00    +0.000 A 
ATOM      4  F   UNL     1       2.088  10.848  17.458  0.00  0.00    +0.000 F 
ATOM      5  C   UNL     1       3.028   8.721  17.498  0.00  0.00    +0.000 A 
ATOM      6  C   UNL     1       3.200   7.442  18.031  0.00  0.00    +0.000 A 
ATOM      7  C   UNL     1       4.083   6.553  17.378  0.00  0.00    +0.000 A 
ATOM      8  O   UNL     1       4.682   6.915  16.376  0.00  0.00    +0.000 OA
ATOM      9  C   UNL     1       4.283   5.259  17.872  0.00  0.00    +0.000 A 
ATOM     10  C   UNL     1       3.573   4.892  19.009  0.00  0.00    +0.000 A 
ATOM     11  N   UNL     1       2.702   5.733  19.667  0.00  0.00    +0.000 N 
ATOM     12  C   UNL     1       2.488   7.036  19.202  0.00  0.00    +0.000 A 
ENDROOT
BRANCH   2  13
ATOM     13  N   UNL     1       0.587  10.377  19.801  0.00  0.00    +0.000 N 
ATOM     14  C   UNL     1      -0.839  10.475  19.527  0.00  0.00    +0.000 C 
ATOM     15  C   UNL     1      -1.159  11.974  19.675  0.00  0.00    +0.000 C 
ATOM     16  C   UNL     1      -0.251  12.356  20.858  0.00  0.00    +0.000 C 
ATOM     17  C   UNL     1       1.029  11.564  20.510  0.00  0.00    +0.000 C 
BRANCH  16  18
ATOM     18  C   UNL     1      -0.900  11.983  22.234  0.00  0.00    +0.000 C 
ATOM     19  F   UNL     1      -2.254  11.704  22.137  0.00  0.00    +0.000 F 
ATOM     20  F   UNL     1      -0.277  10.906  22.835  0.00  0.00    +0.000 F 
ATOM     21  F   UNL     1      -0.773  13.070  23.086  0.00  0.00    +0.000 F 
ENDBRANCH  16  18
BRANCH  15  22
ATOM     22  C   UNL     1      -0.800  12.747  18.372  0.00  0.00    +0.000 C 
BRANCH  22  23
ATOM     23  N   UNL     1      -1.560  12.260  17.220  0.00  0.00    +0.000 NA
ATOM     24  H   UNL     1      -1.381  11.244  17.056  0.00  0.00    +0.000 HD
ATOM     25  H   UNL     1      -1.295  12.799  16.364  0.00  0.00    +0.000 HD
ENDBRANCH  22  23
ENDBRANCH  15  22
ENDBRANCH   2  13
BRANCH  11  26
ATOM     26  C   UNL     1       2.003   5.209  20.860  0.00  0.00    +0.000 C 
ATOM     27  C   UNL     1       0.970   4.063  20.680  0.00  0.00    +0.000 C 
ATOM     28  C   UNL     1       2.358   3.768  21.206  0.00  0.00    +0.000 C 
ENDBRANCH  11  26
BRANCH   1  30
ATOM     29  C   UNL     1       0.879   8.307  22.169  0.00  0.00    +0.000 C 
ATOM     30  O   UNL     1       0.803   7.746  20.901  0.00  0.00    +0.000 OA
ENDBRANCH   1  30
BRANCH   9  31
ATOM     31  C   UNL     1       5.225   4.286  17.201  0.00  0.00    +0.000 C 
ATOM     32  O   UNL     1       4.843   3.644  16.236  0.00  0.00    +0.000 OA
BRANCH  31  33
ATOM     33  O   UNL     1       6.501   4.082  17.613  0.00  0.00    +0.000 OA
ATOM     34  H   UNL     1       6.881   4.366  18.451  0.00  0.00    +0.000 HD
ENDBRANCH  31  33
ENDBRANCH   9  31
TORSDOF 8
ENDMDL
MODEL 2
REMARK VINA RESULT:      -7.3      1.567      2.115
REMARK  Name = 
REMARK  9 active torsions:
REMARK  status: ('A' for Active; 'I' for Inactive)
REMARK    1  A    between atoms: C_1  and  O_2
REMARK    2  A    between atoms: O_2  and  C_3
REMARK    3  A    between atoms: C_4  and  N_5
REMARK    4  A    between atoms: C_7  and  C_8
REMARK    5  A    between atoms: C_8  and  N_9
REMARK    6  A    between atoms: C_10  and  C_11
REMARK    7  A    between atoms: C_22  and  C_23
REMARK    8  A    between atoms: C_23  and  O_25
REMARK    9  A    between atoms: N_27  and  C_28
REMARK                            x       y       z     vdW  Elec       q    Type
REMARK                         _______ _______ _______ _____ _____    ______ ____
ROOT
ATOM      1  C   UNL     1       2.601   6.727  19.452  0.00  0.00    +0.000 A 
ATOM      2  C   UNL     1       2.172   8.073  19.147  0.00  0.00    +0.000 A 
ATOM      3  C   UNL     1       2.682   8.692  17.994  0.00  0.00    +0.000 A 
ATOM      4  F   UNL     1       2.297   9.938  17.613  0.00  0.00    +0.000 F 
ATOM      5  C   UNL     1       3.576   8.049  17.163  0.00  0.00    +0.000 A 
ATOM      6  C   UNL     1       4.033   6.757  17.433  0.00  0.00    +0.000 A 
ATOM      7  C   UNL     1       4.952   6.167  16.537  0.00  0.00    +0.000 A 
ATOM      8  O   UNL     1       5.335   6.790  15.558  0.00  0.00    +0.000 OA
ATOM      9  C   UNL     1       5.433   4.872  16.762  0.00  0.00    +0.000 A 
ATOM     10  C   UNL     1       4.961   4.201  17.885  0.00  0.00    +0.000 A 
ATOM     11  N   UNL     1       4.063   4.748  18.776  0.00  0.00    +0.000 N 
ATOM     12  C   UNL     1       3.570   6.044  18.581  0.00  0.00    +0.000 A 
ENDROOT
BRANCH   2  13
ATOM     13  N   UNL     1       1.240   8.826  19.981  0.00  0.00    +0.000 N 
ATOM     14  C   UNL     1      -0.171   8.985  19.664  0.00  0.00    +0.000 C 
ATOM     15  C   UNL     1      -0.564  10.329  20.307  0.00  0.00    +0.000 C 
ATOM     16  C   UNL     1       0.260  10.287  21.606  0.00  0.00    +0.000 C 
ATOM     17  C   UNL     1       1.590   9.695  21.089  0.00  0.00    +0.000 C 
BRANCH  16  18
ATOM     18  C   UNL     1      -0.448   9.438  22.718  0.00  0.00    +0.000 C 
ATOM     19  F   UNL     1      -1.496  10.110  23.326  0.00  0.00    +0.000 F 
ATOM     20  F   UNL     1      -0.925   8.234  22.236  0.00  0.00    +0.000 F 
ATOM     21  F   UNL     1       0.479   9.157  23.709  0.00  0.00    +0.000 F 
ENDBRANCH  16  18
BRANCH  15  22
ATOM     22  C   UNL     1      -0.165  11.519  19.385  0.00  0.00    +0.000 C 
BRANCH  22  23
ATOM     23  N   UNL     1      -0.578  11.298  17.999  0.00  0.00    +0.000 NA
ATOM     24  H   UNL     1      -1.439  10.710  17.954  0.00  0.00    +0.000 HD
ATOM     25  H   UNL     1       0.190  10.826  17.468  0.00  0.00    +0.000 HD
ENDBRANCH  22  23
ENDBRANCH  15  22
ENDBRANCH   2  13
BRANCH  11  26
ATOM     26  C   UNL     1       3.637   3.918  19.923  0.00  0.00    +0.000 C 
ATOM     27  C   UNL     1       2.804   2.635  19.651  0.00  0.00    +0.000 C 
ATOM     28  C   UNL     1       4.281   2.537  19.966  0.00  0.00    +0.000 C 
ENDBRANCH  11  26
BRANCH   1  30
ATOM     29  C   UNL     1       0.878   5.396  20.636  0.00  0.00    +0.000 C 
ATOM     30  O   UNL     1       2.046   6.143  20.555  0.00  0.00    +0.000 OA
ENDBRANCH   1  30
BRANCH   9  31
ATOM     31  C   UNL     1       6.421   4.214  15.826  0.00  0.00    +0.000 C 
ATOM     32  O   UNL     1       7.616   4.407  15.975  0.00  0.00    +0.000 OA
BRANCH  31  33
ATOM     33  O   UNL     1       6.049   3.396  14.810  0.00  0.00    +0.000 OA
ATOM     34  H   UNL     1       5.231   2.890  14.755  0.00  0.00    +0.000 HD
ENDBRANCH  31  33
ENDBRANCH   9  31
TORSDOF 8
ENDMDL
MODEL 3
REMARK VINA RESULT:      -7.1      3.770      7.716
REMARK  Name = 
REMARK  9 active torsions:
REMARK  status: ('A' for Active; 'I' for Inactive)
REMARK    1  A    between atoms: C_1  and  O_2
REMARK    2  A    between atoms: O_2  and  C_3
REMARK    3  A    between atoms: C_4  and  N_5
REMARK    4  A    between atoms: C_7  and  C_8
REMARK    5  A    between atoms: C_8  and  N_9
REMARK    6  A    between atoms: C_10  and  C_11
REMARK    7  A    between atoms: C_22  and  C_23
REMARK    8  A    between atoms: C_23  and  O_25
REMARK    9  A    between atoms: N_27  and  C_28
REMARK                            x       y       z     vdW  Elec       q    Type
REMARK                         _______ _______ _______ _____ _____    ______ ____
ROOT
ATOM      1  C   UNL     1       1.983   7.462  19.764  0.00  0.00    +0.000 A 
ATOM      2  C   UNL     1       2.840   6.967  18.712  0.00  0.00    +0.000 A 
ATOM      3  C   UNL     1       3.170   7.831  17.655  0.00  0.00    +0.000 A 
ATOM      4  F   UNL     1       4.004   7.458  16.649  0.00  0.00    +0.000 F 
ATOM      5  C   UNL     1       2.691   9.124  17.602  0.00  0.00    +0.000 A 
ATOM      6  C   UNL     1       1.843   9.635  18.586  0.00  0.00    +0.000 A 
ATOM      7  C   UNL     1       1.390  10.968  18.460  0.00  0.00    +0.000 A 
ATOM      8  O   UNL     1       1.735  11.641  17.500  0.00  0.00    +0.000 OA
ATOM      9  C   UNL     1       0.543  11.525  19.425  0.00  0.00    +0.000 A 
ATOM     10  C   UNL     1       0.186  10.722  20.502  0.00  0.00    +0.000 A 
ATOM     11  N   UNL     1       0.612   9.421  20.655  0.00  0.00    +0.000 N 
ATOM     12  C   UNL     1       1.453   8.833  19.703  0.00  0.00    +0.000 A 
ENDROOT
BRANCH   2  13
ATOM     13  N   UNL     1       3.378   5.609  18.686  0.00  0.00    +0.000 N 
ATOM     14  C   UNL     1       4.488   5.171  19.518  0.00  0.00    +0.000 C 
ATOM     15  C   UNL     1       5.152   4.038  18.712  0.00  0.00    +0.000 C 
ATOM     16  C   UNL     1       3.919   3.352  18.096  0.00  0.00    +0.000 C 
ATOM     17  C   UNL     1       3.064   4.581  17.712  0.00  0.00    +0.000 C 
BRANCH  16  18
ATOM     18  C   UNL     1       3.236   2.366  19.104  0.00  0.00    +0.000 C 
ATOM     19  F   UNL     1       3.793   2.416  20.371  0.00  0.00    +0.000 F 
ATOM     20  F   UNL     1       1.877   2.588  19.218  0.00  0.00    +0.000 F 
ATOM     21  F   UNL     1       3.413   1.073  18.637  0.00  0.00    +0.000 F 
ENDBRANCH  16  18
BRANCH  15  22
ATOM     22  C   UNL     1       6.114   4.618  17.634  0.00  0.00    +0.000 C 
BRANCH  22  23
ATOM     23  N   UNL     1       7.515   4.326  17.939  0.00  0.00    +0.000 NA
ATOM     24  H   UNL     1       7.823   4.826  18.802  0.00  0.00    +0.000 HD
ATOM     25  H   UNL     1       8.123   4.615  17.137  0.00  0.00    +0.000 HD
ENDBRANCH  22  23
ENDBRANCH  15  22
ENDBRANCH   2  13
BRANCH  11  26
ATOM     26  C   UNL     1       0.163   8.684  21.856  0.00  0.00    +0.000 C 
ATOM     27  C   UNL     1       0.713   9.108  23.246  0.00  0.00    +0.000 C 
ATOM     28  C   UNL     1      -0.680   9.514  22.817  0.00  0.00    +0.000 C 
ENDBRANCH  11  26
BRANCH   1  30
ATOM     29  C   UNL     1       1.159   5.340  20.743  0.00  0.00    +0.000 C 
ATOM     30  O   UNL     1       1.726   6.606  20.798  0.00  0.00    +0.000 OA
ENDBRANCH   1  30
BRANCH   9  31
ATOM     31  C   UNL     1       0.037  12.946  19.317  0.00  0.00    +0.000 C 
ATOM     32  O   UNL     1       0.280  13.742  20.208  0.00  0.00    +0.000 OA
BRANCH  31  33
ATOM     33  O   UNL     1      -0.683  13.399  18.262  0.00  0.00    +0.000 OA
ATOM     34  H   UNL     1      -0.352  13.557  17.371  0.00  0.00    +0.000 HD
ENDBRANCH  31  33
ENDBRANCH   9  31
TORSDOF 8
ENDMDL
MODEL 4
REMARK VINA RESULT:      -6.9      2.166      3.992
REMARK  Name = 
REMARK  9 active torsions:
REMARK  status: ('A' for Active; 'I' for Inactive)
REMARK    1  A    between atoms: C_1  and  O_2
REMARK    2  A    between atoms: O_2  and  C_3
REMARK    3  A    between atoms: C_4  and  N_5
REMARK    4  A    between atoms: C_7  and  C_8
REMARK    5  A    between atoms: C_8  and  N_9
REMARK    6  A    between atoms: C_10  and  C_11
REMARK    7  A    between atoms: C_22  and  C_23
REMARK    8  A    between atoms: C_23  and  O_25
REMARK    9  A    between atoms: N_27  and  C_28
REMARK                            x       y       z     vdW  Elec       q    Type
REMARK                         _______ _______ _______ _____ _____    ______ ____
ROOT
ATOM      1  C   UNL     1       2.324   7.795  19.129  0.00  0.00    +0.000 A 
ATOM      2  C   UNL     1       1.354   8.217  20.113  0.00  0.00    +0.000 A 
ATOM      3  C   UNL     1       0.909   7.279  21.059  0.00  0.00    +0.000 A 
ATOM      4  F   UNL     1       0.031   7.607  22.043  0.00  0.00    +0.000 F 
ATOM      5  C   UNL     1       1.372   5.980  21.063  0.00  0.00    +0.000 A 
ATOM      6  C   UNL     1       2.293   5.525  20.117  0.00  0.00    +0.000 A 
ATOM      7  C   UNL     1       2.717   4.179  20.182  0.00  0.00    +0.000 A 
ATOM      8  O   UNL     1       2.270   3.440  21.048  0.00  0.00    +0.000 OA
ATOM      9  C   UNL     1       3.643   3.679  19.260  0.00  0.00    +0.000 A 
ATOM     10  C   UNL     1       4.128   4.560  18.301  0.00  0.00    +0.000 A 
ATOM     11  N   UNL     1       3.738   5.879  18.212  0.00  0.00    +0.000 N 
ATOM     12  C   UNL     1       2.807   6.405  19.115  0.00  0.00    +0.000 A 
ENDROOT
BRANCH   2  13
ATOM     13  N   UNL     1       0.804   9.569  20.169  0.00  0.00    +0.000 N 
ATOM     14  C   UNL     1       1.267  10.584  21.104  0.00  0.00    +0.000 C 
ATOM     15  C   UNL     1       0.043  11.494  21.323  0.00  0.00    +0.000 C 
ATOM     16  C   UNL     1      -0.567  11.516  19.910  0.00  0.00    +0.000 C 
ATOM     17  C   UNL     1      -0.392  10.038  19.495  0.00  0.00    +0.000 C 
BRANCH  16  18
ATOM     18  C   UNL     1       0.156  12.549  18.979  0.00  0.00    +0.000 C 
ATOM     19  F   UNL     1       1.275  12.023  18.354  0.00  0.00    +0.000 F 
ATOM     20  F   UNL     1      -0.684  13.059  18.008  0.00  0.00    +0.000 F 
ATOM     21  F   UNL     1       0.591  13.610  19.758  0.00  0.00    +0.000 F 
ENDBRANCH  16  18
BRANCH  15  22
ATOM     22  C   UNL     1      -0.920  10.879  22.381  0.00  0.00    +0.000 C 
BRANCH  22  23
ATOM     23  N   UNL     1      -0.192  10.273  23.496  0.00  0.00    +0.000 NA
ATOM     24  H   UNL     1       0.617   9.709  23.153  0.00  0.00    +0.000 HD
ATOM     25  H   UNL     1      -0.833   9.657  24.048  0.00  0.00    +0.000 HD
ENDBRANCH  22  23
ENDBRANCH  15  22
ENDBRANCH   2  13
BRANCH  11  26
ATOM     26  C   UNL     1       4.342   6.708  17.147  0.00  0.00    +0.000 C 
ATOM     27  C   UNL     1       5.874   6.967  17.177  0.00  0.00    +0.000 C 
ATOM     28  C   UNL     1       5.288   5.946  16.226  0.00  0.00    +0.000 C 
ENDBRANCH  11  26
BRANCH   1  30
ATOM     29  C   UNL     1       2.070   9.355  17.221  0.00  0.00    +0.000 C 
ATOM     30  O   UNL     1       2.767   8.749  18.257  0.00  0.00    +0.000 OA
ENDBRANCH   1  30
BRANCH   9  31
ATOM     31  C   UNL     1       4.113   2.243  19.299  0.00  0.00    +0.000 C 
ATOM     32  O   UNL     1       3.658   1.436  18.506  0.00  0.00    +0.000 OA
BRANCH  31  33
ATOM     33  O   UNL     1       5.037   1.788  20.182  0.00  0.00    +0.000 OA
ATOM     34  H   UNL     1       5.848   1.315  19.966  0.00  0.00    +0.000 HD
ENDBRANCH  31  33
ENDBRANCH   9  31
TORSDOF 8
ENDMDL
MODEL 5
REMARK VINA RESULT:      -6.8      1.346      2.196
REMARK  Name = 
REMARK  9 active torsions:
REMARK  status: ('A' for Active; 'I' for Inactive)
REMARK    1  A    between atoms: C_1  and  O_2
REMARK    2  A    between atoms: O_2  and  C_3
REMARK    3  A    between atoms: C_4  and  N_5
REMARK    4  A    between atoms: C_7  and  C_8
REMARK    5  A    between atoms: C_8  and  N_9
REMARK    6  A    between atoms: C_10  and  C_11
REMARK    7  A    between atoms: C_22  and  C_23
REMARK    8  A    between atoms: C_23  and  O_25
REMARK    9  A    between atoms: N_27  and  C_28
REMARK                            x       y       z     vdW  Elec       q    Type
REMARK                         _______ _______ _______ _____ _____    ______ ____
ROOT
ATOM      1  C   UNL     1       1.686   7.896  19.897  0.00  0.00    +0.000 A 
ATOM      2  C   UNL     1       1.510   9.216  19.336  0.00  0.00    +0.000 A 
ATOM      3  C   UNL     1       2.202   9.539  18.157  0.00  0.00    +0.000 A 
ATOM      4  F   UNL     1       2.059  10.743  17.542  0.00  0.00    +0.000 F 
ATOM      5  C   UNL     1       3.037   8.633  17.536  0.00  0.00    +0.000 A 
ATOM      6  C   UNL     1       3.251   7.355  18.057  0.00  0.00    +0.000 A 
ATOM      7  C   UNL     1       4.125   6.484  17.367  0.00  0.00    +0.000 A 
ATOM      8  O   UNL     1       4.679   6.861  16.345  0.00  0.00    +0.000 OA
ATOM      9  C   UNL     1       4.366   5.192  17.847  0.00  0.00    +0.000 A 
ATOM     10  C   UNL     1       3.705   4.808  19.008  0.00  0.00    +0.000 A 
ATOM     11  N   UNL     1       2.845   5.631  19.702  0.00  0.00    +0.000 N 
ATOM     12  C   UNL     1       2.591   6.932  19.251  0.00  0.00    +0.000 A 
ENDROOT
BRANCH   2  13
ATOM     13  N   UNL     1       0.656  10.237  19.937  0.00  0.00    +0.000 N 
ATOM     14  C   UNL     1       1.080  11.093  21.034  0.00  0.00    +0.000 C 
ATOM     15  C   UNL     1      -0.223  11.440  21.780  0.00  0.00    +0.000 C 
ATOM     16  C   UNL     1      -1.206  11.587  20.605  0.00  0.00    +0.000 C 
ATOM     17  C   UNL     1      -0.767  10.408  19.708  0.00  0.00    +0.000 C 
BRANCH  16  18
ATOM     18  C   UNL     1      -1.102  12.998  19.931  0.00  0.00    +0.000 C 
ATOM     19  F   UNL     1      -0.444  13.927  20.721  0.00  0.00    +0.000 F 
ATOM     20  F   UNL     1      -0.472  12.949  18.702  0.00  0.00    +0.000 F 
ATOM     21  F   UNL     1      -2.385  13.480  19.726  0.00  0.00    +0.000 F 
ENDBRANCH  16  18
BRANCH  15  22
ATOM     22  C   UNL     1      -0.624  10.293  22.754  0.00  0.00    +0.000 C 
BRANCH  22  23
ATOM     23  N   UNL     1       0.538   9.730  23.442  0.00  0.00    +0.000 NA
ATOM     24  H   UNL     1       1.221   9.332  22.760  0.00  0.00    +0.000 HD
ATOM     25  H   UNL     1       0.232   8.977  24.102  0.00  0.00    +0.000 HD
ENDBRANCH  22  23
ENDBRANCH  15  22
ENDBRANCH   2  13
BRANCH  11  26
ATOM     26  C   UNL     1       2.201   5.090  20.918  0.00  0.00    +0.000 C 
ATOM     27  C   UNL     1       1.084   4.022  20.762  0.00  0.00    +0.000 C 
ATOM     28  C   UNL     1       2.483   3.613  21.167  0.00  0.00    +0.000 C 
ENDBRANCH  11  26
BRANCH   1  30
ATOM     29  C   UNL     1      -0.411   7.405  21.123  0.00  0.00    +0.000 C 
ATOM     30  O   UNL     1       0.959   7.606  21.016  0.00  0.00    +0.000 OA
ENDBRANCH   1  30
BRANCH   9  31
ATOM     31  C   UNL     1       5.298   4.238  17.136  0.00  0.00    +0.000 C 
ATOM     32  O   UNL     1       4.866   3.518  16.251  0.00  0.00    +0.000 OA
BRANCH  31  33
ATOM     33  O   UNL     1       6.619   4.135  17.427  0.00  0.00    +0.000 OA
ATOM     34  H   UNL     1       7.033   4.333  18.273  0.00  0.00    +0.000 HD
ENDBRANCH  31  33
ENDBRANCH   9  31
TORSDOF 8
ENDMDL
MODEL 6
REMARK VINA RESULT:      -6.3      3.328      8.301
REMARK  Name = 
REMARK  9 active torsions:
REMARK  status: ('A' for Active; 'I' for Inactive)
REMARK    1  A    between atoms: C_1  and  O_2
REMARK    2  A    between atoms: O_2  and  C_3
REMARK    3  A    between atoms: C_4  and  N_5
REMARK    4  A    between atoms: C_7  and  C_8
REMARK    5  A    between atoms: C_8  and  N_9
REMARK    6  A    between atoms: C_10  and  C_11
REMARK    7  A    between atoms: C_22  and  C_23
REMARK    8  A    between atoms: C_23  and  O_25
REMARK    9  A    between atoms: N_27  and  C_28
REMARK                            x       y       z     vdW  Elec       q    Type
REMARK                         _______ _______ _______ _____ _____    ______ ____
ROOT
ATOM      1  C   UNL     1       1.816   8.295  19.138  0.00  0.00    +0.000 A 
ATOM      2  C   UNL     1       2.076   6.944  19.581  0.00  0.00    +0.000 A 
ATOM      3  C   UNL     1       1.624   6.559  20.854  0.00  0.00    +0.000 A 
ATOM      4  F   UNL     1       1.789   5.296  21.328  0.00  0.00    +0.000 F 
ATOM      5  C   UNL     1       0.950   7.436  21.679  0.00  0.00    +0.000 A 
ATOM      6  C   UNL     1       0.699   8.756  21.298  0.00  0.00    +0.000 A 
ATOM      7  C   UNL     1       0.007   9.597  22.200  0.00  0.00    +0.000 A 
ATOM      8  O   UNL     1      -0.347   9.165  23.287  0.00  0.00    +0.000 OA
ATOM      9  C   UNL     1      -0.274  10.925  21.861  0.00  0.00    +0.000 A 
ATOM     10  C   UNL     1       0.141  11.366  20.610  0.00  0.00    +0.000 A 
ATOM     11  N   UNL     1       0.814  10.572  19.707  0.00  0.00    +0.000 N 
ATOM     12  C   UNL     1       1.117   9.241  20.021  0.00  0.00    +0.000 A 
ENDROOT
BRANCH   2  13
ATOM     13  N   UNL     1       2.792   5.959  18.776  0.00  0.00    +0.000 N 
ATOM     14  C   UNL     1       2.143   5.095  17.802  0.00  0.00    +0.000 C 
ATOM     15  C   UNL     1       3.027   3.834  17.752  0.00  0.00    +0.000 C 
ATOM     16  C   UNL     1       4.430   4.452  17.892  0.00  0.00    +0.000 C 
ATOM     17  C   UNL     1       4.167   5.534  18.962  0.00  0.00    +0.000 C 
BRANCH  16  18
ATOM     18  C   UNL     1       4.965   4.998  16.524  0.00  0.00    +0.000 C 
ATOM     19  F   UNL     1       4.571   4.227  15.442  0.00  0.00    +0.000 F 
ATOM     20  F   UNL     1       4.576   6.304  16.291  0.00  0.00    +0.000 F 
ATOM     21  F   UNL     1       6.350   4.972  16.554  0.00  0.00    +0.000 F 
ENDBRANCH  16  18
BRANCH  15  22
ATOM     22  C   UNL     1       2.680   2.870  18.924  0.00  0.00    +0.000 C 
BRANCH  22  23
ATOM     23  N   UNL     1       1.898   1.719  18.471  0.00  0.00    +0.000 NA
ATOM     24  H   UNL     1       1.189   1.442  19.186  0.00  0.00    +0.000 HD
ATOM     25  H   UNL     1       2.532   0.908  18.283  0.00  0.00    +0.000 HD
ENDBRANCH  22  23
ENDBRANCH  15  22
ENDBRANCH   2  13
BRANCH  11  26
ATOM     26  C   UNL     1       1.189  11.167  18.407  0.00  0.00    +0.000 C 
ATOM     27  C   UNL     1       0.886  12.671  18.157  0.00  0.00    +0.000 C 
ATOM     28  C   UNL     1       2.289  12.218  18.498  0.00  0.00    +0.000 C 
ENDBRANCH  11  26
BRANCH   1  30
ATOM     29  C   UNL     1       3.528   8.787  17.416  0.00  0.00    +0.000 C 
ATOM     30  O   UNL     1       2.230   8.615  17.876  0.00  0.00    +0.000 OA
ENDBRANCH   1  30
BRANCH   9  31
ATOM     31  C   UNL     1      -1.007  11.851  22.804  0.00  0.00    +0.000 C 
ATOM     32  O   UNL     1      -0.477  12.888  23.165  0.00  0.00    +0.000 OA
BRANCH  31  33
ATOM     33  O   UNL     1      -2.251  11.594  23.279  0.00  0.00    +0.000 OA
ATOM     34  H   UNL     1      -2.632  10.724  23.439  0.00  0.00    +0.000 HD
ENDBRANCH  31  33
ENDBRANCH   9  31
TORSDOF 8
ENDMDL
MODEL 7
REMARK VINA RESULT:      -6.2      5.144      7.773
REMARK  Name = 
REMARK  9 active torsions:
REMARK  status: ('A' for Active; 'I' for Inactive)
REMARK    1  A    between atoms: C_1  and  O_2
REMARK    2  A    between atoms: O_2  and  C_3
REMARK    3  A    between atoms: C_4  and  N_5
REMARK    4  A    between atoms: C_7  and  C_8
REMARK    5  A    between atoms: C_8  and  N_9
REMARK    6  A    between atoms: C_10  and  C_11
REMARK    7  A    between atoms: C_22  and  C_23
REMARK    8  A    between atoms: C_23  and  O_25
REMARK    9  A    between atoms: N_27  and  C_28
REMARK                            x       y       z     vdW  Elec       q    Type
REMARK                         _______ _______ _______ _____ _____    ______ ____
ROOT
ATOM      1  C   UNL     1      -2.843  12.446  20.303  0.00  0.00    +0.000 A 
ATOM      2  C   UNL     1      -4.019  13.041  20.895  0.00  0.00    +0.000 A 
ATOM      3  C   UNL     1      -5.218  13.024  20.163  0.00  0.00    +0.000 A 
ATOM      4  F   UNL     1      -6.378  13.524  20.665  0.00  0.00    +0.000 F 
ATOM      5  C   UNL     1      -5.290  12.462  18.906  0.00  0.00    +0.000 A 
ATOM      6  C   UNL     1      -4.172  11.896  18.289  0.00  0.00    +0.000 A 
ATOM      7  C   UNL     1      -4.324  11.344  16.997  0.00  0.00    +0.000 A 
ATOM      8  O   UNL     1      -5.413  11.378  16.443  0.00  0.00    +0.000 OA
ATOM      9  C   UNL     1      -3.234  10.760  16.341  0.00  0.00    +0.000 A 
ATOM     10  C   UNL     1      -2.019  10.739  17.016  0.00  0.00    +0.000 A 
ATOM     11  N   UNL     1      -1.839  11.265  18.276  0.00  0.00    +0.000 N 
ATOM     12  C   UNL     1      -2.908  11.863  18.954  0.00  0.00    +0.000 A 
ENDROOT
BRANCH   2  13
ATOM     13  N   UNL     1      -4.024  13.667  22.214  0.00  0.00    +0.000 N 
ATOM     14  C   UNL     1      -4.549  13.020  23.407  0.00  0.00    +0.000 C 
ATOM     15  C   UNL     1      -5.014  14.182  24.305  0.00  0.00    +0.000 C 
ATOM     16  C   UNL     1      -3.918  15.227  24.029  0.00  0.00    +0.000 C 
ATOM     17  C   UNL     1      -3.733  15.059  22.505  0.00  0.00    +0.000 C 
BRANCH  16  18
ATOM     18  C   UNL     1      -2.629  14.957  24.880  0.00  0.00    +0.000 C 
ATOM     19  F   UNL     1      -1.874  16.099  25.094  0.00  0.00    +0.000 F 
ATOM     20  F   UNL     1      -2.918  14.392  26.107  0.00  0.00    +0.000 F 
ATOM     21  F   UNL     1      -1.826  14.066  24.186  0.00  0.00    +0.000 F 
ENDBRANCH  16  18
BRANCH  15  22
ATOM     22  C   UNL     1      -6.429  14.675  23.882  0.00  0.00    +0.000 C 
BRANCH  22  23
ATOM     23  N   UNL     1      -7.492  13.903  24.525  0.00  0.00    +0.000 NA
ATOM     24  H   UNL     1      -7.179  12.927  24.722  0.00  0.00    +0.000 HD
ATOM     25  H   UNL     1      -8.337  13.875  23.908  0.00  0.00    +0.000 HD
ENDBRANCH  22  23
ENDBRANCH  15  22
ENDBRANCH   2  13
BRANCH  11  26
ATOM     26  C   UNL     1      -0.494  11.165  18.882  0.00  0.00    +0.000 C 
ATOM     27  C   UNL     1      -0.142   9.907  19.722  0.00  0.00    +0.000 C 
ATOM     28  C   UNL     1       0.367  10.047  18.304  0.00  0.00    +0.000 C 
ENDBRANCH  11  26
BRANCH   1  30
ATOM     29  C   UNL     1      -0.753  13.439  21.192  0.00  0.00    +0.000 C 
ATOM     30  O   UNL     1      -1.710  12.440  21.067  0.00  0.00    +0.000 OA
ENDBRANCH   1  30
BRANCH   9  31
ATOM     31  C   UNL     1      -3.361  10.165  14.957  0.00  0.00    +0.000 C 
ATOM     32  O   UNL     1      -2.357   9.950  14.298  0.00  0.00    +0.000 OA
BRANCH  31  33
ATOM     33  O   UNL     1      -4.552   9.844  14.393  0.00  0.00    +0.000 OA
ATOM     34  H   UNL     1      -4.903  10.192  13.566  0.00  0.00    +0.000 HD
ENDBRANCH  31  33
ENDBRANCH   9  31
TORSDOF 8
ENDMDL
