MODEL 1
REMARK VINA RESULT:      -7.6      0.000      0.000
REMARK  Name = 
REMARK  9 active torsions:
REMARK  status: ('A' for Active; 'I' for Inactive)
REMARK    1  A    between atoms: C_1  and  C_2
REMARK    2  A    between atoms: C_2  and  C_3
REMARK    3  A    between atoms: C_2  and  C_4
REMARK    4  A    between atoms: C_2  and  C_5
REMARK    5  A    between atoms: C_8  and  S_9
REMARK    6  A    between atoms: S_9  and  N_12
REMARK    7  A    between atoms: C_15  and  O_16
REMARK    8  A    between atoms: O_16  and  C_17
REMARK    9  A    between atoms: C_20  and  N_21
REMARK                            x       y       z     vdW  Elec       q    Type
REMARK                         _______ _______ _______ _____ _____    ______ ____
ROOT
ATOM      1  N   UNL     1      -0.303  11.801  20.411  0.00  0.00    +0.000 NA
ATOM      2  C   UNL     1       1.126  12.016  20.064  0.00  0.00    +0.000 C 
ATOM      3  C   UNL     1       1.447  11.401  18.713  0.00  0.00    +0.000 C 
ATOM      4  C   UNL     1       1.162   9.896  18.705  0.00  0.00    +0.000 C 
ATOM      5  C   UNL     1      -0.331   9.729  18.981  0.00  0.00    +0.000 C 
ATOM      6  C   UNL     1      -0.753  10.379  20.298  0.00  0.00    +0.000 C 
ENDROOT
BRANCH   1   7
ATOM      7  S   UNL     1      -0.730  12.502  21.934  0.00  0.00    +0.000 S 
ATOM      8  O   UNL     1      -0.190  13.840  21.974  0.00  0.00    +0.000 OA
ATOM      9  O   UNL     1      -0.430  11.535  22.974  0.00  0.00    +0.000 OA
BRANCH   7  13
ATOM     10  C   UNL     1      -5.309  12.897  21.775  0.00  0.00    +0.000 A 
ATOM     11  C   UNL     1      -4.626  12.702  22.989  0.00  0.00    +0.000 A 
ATOM     12  C   UNL     1      -3.233  12.563  23.024  0.00  0.00    +0.000 A 
ATOM     13  C   UNL     1      -2.501  12.607  21.841  0.00  0.00    +0.000 A 
ATOM     14  C   UNL     1      -3.144  12.794  20.620  0.00  0.00    +0.000 A 
ATOM     15  C   UNL     1      -4.538  12.939  20.593  0.00  0.00    +0.000 A 
BRANCH  10  17
ATOM     16  C   UNL     1      -7.565  11.868  21.037  0.00  0.00    +0.000 C 
ATOM     17  C   UNL     1      -6.842  13.058  21.708  0.00  0.00    +0.000 C 
ATOM     18  C   UNL     1      -7.183  14.323  20.893  0.00  0.00    +0.000 C 
ATOM     19  C   UNL     1      -7.429  13.196  23.130  0.00  0.00    +0.000 C 
ENDBRANCH  10  17
ENDBRANCH   7  13
ENDBRANCH   1   7
BRANCH   4  20
ATOM     20  O   UNL     1       1.897   9.164  19.708  0.00  0.00    +0.000 OA
BRANCH  20  21
ATOM     21  C   UNL     1       2.086   7.831  19.461  0.00  0.00    +0.000 A 
ATOM     22  C   UNL     1       1.791   6.833  20.386  0.00  0.00    +0.000 A 
ATOM     23  C   UNL     1       1.978   5.487  20.087  0.00  0.00    +0.000 A 
ATOM     24  C   UNL     1       2.487   5.116  18.842  0.00  0.00    +0.000 A 
ATOM     25  C   UNL     1       2.776   6.107  17.891  0.00  0.00    +0.000 A 
ATOM     26  C   UNL     1       2.556   7.463  18.199  0.00  0.00    +0.000 A 
BRANCH  24  27
ATOM     27  N   UNL     1       2.729   3.754  18.565  0.00  0.00    +0.000 N 
ATOM     28  C   UNL     1       3.698   2.927  19.076  0.00  0.00    +0.000 A 
ATOM     29  N   UNL     1       3.625   1.754  18.490  0.00  0.00    +0.000 NA
ATOM     30  N   UNL     1       2.576   1.847  17.612  0.00  0.00    +0.000 NA
ATOM     31  N   UNL     1       2.013   3.046  17.664  0.00  0.00    +0.000 NA
ENDBRANCH  24  27
ENDBRANCH  20  21
ENDBRANCH   4  20
TORSDOF 6
ENDMDL
MODEL 2
REMARK VINA RESULT:      -7.6      4.479     11.631
REMARK  Name = 
REMARK  9 active torsions:
REMARK  status: ('A' for Active; 'I' for Inactive)
REMARK    1  A    between atoms: C_1  and  C_2
REMARK    2  A    between atoms: C_2  and  C_3
REMARK    3  A    between atoms: C_2  and  C_4
REMARK    4  A    between atoms: C_2  and  C_5
REMARK    5  A    between atoms: C_8  and  S_9
REMARK    6  A    between atoms: S_9  and  N_12
REMARK    7  A    between atoms: C_15  and  O_16
REMARK    8  A    between atoms: O_16  and  C_17
REMARK    9  A    between atoms: C_20  and  N_21
REMARK                            x       y       z     vdW  Elec       q    Type
REMARK                         _______ _______ _______ _____ _____    ______ ____
ROOT
ATOM      1  N   UNL     1       4.221   5.424  18.351  0.00  0.00    +0.000 NA
ATOM      2  C   UNL     1       3.881   5.237  19.785  0.00  0.00    +0.000 C 
ATOM      3  C   UNL     1       2.376   5.264  19.985  0.00  0.00    +0.000 C 
ATOM      4  C   UNL     1       1.774   6.590  19.509  0.00  0.00    +0.000 C 
ATOM      5  C   UNL     1       2.075   6.697  18.015  0.00  0.00    +0.000 C 
ATOM      6  C   UNL     1       3.572   6.614  17.718  0.00  0.00    +0.000 C 
ENDROOT
BRANCH   1   7
ATOM      7  S   UNL     1       5.927   5.381  18.061  0.00  0.00    +0.000 S 
ATOM      8  O   UNL     1       6.498   4.377  18.927  0.00  0.00    +0.000 OA
ATOM      9  O   UNL     1       6.418   6.746  18.061  0.00  0.00    +0.000 OA
BRANCH   7  13
ATOM     10  C   UNL     1       6.069   3.968  13.687  0.00  0.00    +0.000 A 
ATOM     11  C   UNL     1       5.022   3.597  14.550  0.00  0.00    +0.000 A 
ATOM     12  C   UNL     1       4.998   4.016  15.885  0.00  0.00    +0.000 A 
ATOM     13  C   UNL     1       6.030   4.807  16.383  0.00  0.00    +0.000 A 
ATOM     14  C   UNL     1       7.085   5.191  15.559  0.00  0.00    +0.000 A 
ATOM     15  C   UNL     1       7.099   4.772  14.221  0.00  0.00    +0.000 A 
BRANCH  10  17
ATOM     16  C   UNL     1       6.598   2.069  12.011  0.00  0.00    +0.000 C 
ATOM     17  C   UNL     1       6.117   3.525  12.210  0.00  0.00    +0.000 C 
ATOM     18  C   UNL     1       7.089   4.440  11.437  0.00  0.00    +0.000 C 
ATOM     19  C   UNL     1       4.712   3.623  11.575  0.00  0.00    +0.000 C 
ENDBRANCH  10  17
ENDBRANCH   7  13
ENDBRANCH   1   7
BRANCH   4  20
ATOM     20  O   UNL     1       2.328   7.745  20.172  0.00  0.00    +0.000 OA
BRANCH  20  21
ATOM     21  C   UNL     1       1.423   8.647  20.663  0.00  0.00    +0.000 A 
ATOM     22  C   UNL     1       1.105   8.751  22.015  0.00  0.00    +0.000 A 
ATOM     23  C   UNL     1       0.194   9.696  22.476  0.00  0.00    +0.000 A 
ATOM     24  C   UNL     1      -0.433  10.556  21.573  0.00  0.00    +0.000 A 
ATOM     25  C   UNL     1      -0.114  10.476  20.209  0.00  0.00    +0.000 A 
ATOM     26  C   UNL     1       0.829   9.532  19.761  0.00  0.00    +0.000 A 
BRANCH  24  27
ATOM     27  N   UNL     1      -1.398  11.473  22.039  0.00  0.00    +0.000 N 
ATOM     28  C   UNL     1      -1.890  12.597  21.424  0.00  0.00    +0.000 A 
ATOM     29  N   UNL     1      -2.714  13.216  22.239  0.00  0.00    +0.000 NA
ATOM     30  N   UNL     1      -2.751  12.449  23.375  0.00  0.00    +0.000 NA
ATOM     31  N   UNL     1      -1.974  11.381  23.258  0.00  0.00    +0.000 NA
ENDBRANCH  24  27
ENDBRANCH  20  21
ENDBRANCH   4  20
TORSDOF 6
ENDMDL
MODEL 3
REMARK VINA RESULT:      -7.5      0.795      1.713
REMARK  Name = 
REMARK  9 active torsions:
REMARK  status: ('A' for Active; 'I' for Inactive)
REMARK    1  A    between atoms: C_1  and  C_2
REMARK    2  A    between atoms: C_2  and  C_3
REMARK    3  A    between atoms: C_2  and  C_4
REMARK    4  A    between atoms: C_2  and  C_5
REMARK    5  A    between atoms: C_8  and  S_9
REMARK    6  A    between atoms: S_9  and  N_12
REMARK    7  A    between atoms: C_15  and  O_16
REMARK    8  A    between atoms: O_16  and  C_17
REMARK    9  A    between atoms: C_20  and  N_21
REMARK                            x       y       z     vdW  Elec       q    Type
REMARK                         _______ _______ _______ _____ _____    ______ ____
ROOT
ATOM      1  N   UNL     1      -0.628  11.733  20.817  0.00  0.00    +0.000 NA
ATOM      2  C   UNL     1       0.605  12.257  20.173  0.00  0.00    +0.000 C 
ATOM      3  C   UNL     1       0.712  11.764  18.742  0.00  0.00    +0.000 C 
ATOM      4  C   UNL     1       0.741  10.233  18.681  0.00  0.00    +0.000 C 
ATOM      5  C   UNL     1      -0.579   9.745  19.274  0.00  0.00    +0.000 C 
ATOM      6  C   UNL     1      -0.797  10.252  20.700  0.00  0.00    +0.000 C 
ENDROOT
BRANCH   1   7
ATOM      7  S   UNL     1      -0.811  12.283  22.448  0.00  0.00    +0.000 S 
ATOM      8  O   UNL     1      -0.088  13.525  22.581  0.00  0.00    +0.000 OA
ATOM      9  O   UNL     1      -0.557  11.162  23.332  0.00  0.00    +0.000 OA
BRANCH   7  13
ATOM     10  C   UNL     1      -5.341  13.054  22.647  0.00  0.00    +0.000 A 
ATOM     11  C   UNL     1      -4.636  13.101  21.430  0.00  0.00    +0.000 A 
ATOM     12  C   UNL     1      -3.254  12.884  21.383  0.00  0.00    +0.000 A 
ATOM     13  C   UNL     1      -2.551  12.626  22.557  0.00  0.00    +0.000 A 
ATOM     14  C   UNL     1      -3.215  12.577  23.781  0.00  0.00    +0.000 A 
ATOM     15  C   UNL     1      -4.600  12.789  23.819  0.00  0.00    +0.000 A 
BRANCH  10  17
ATOM     16  C   UNL     1      -7.437  13.178  24.159  0.00  0.00    +0.000 C 
ATOM     17  C   UNL     1      -6.865  13.283  22.726  0.00  0.00    +0.000 C 
ATOM     18  C   UNL     1      -7.583  12.224  21.864  0.00  0.00    +0.000 C 
ATOM     19  C   UNL     1      -7.223  14.693  22.204  0.00  0.00    +0.000 C 
ENDBRANCH  10  17
ENDBRANCH   7  13
ENDBRANCH   1   7
BRANCH   4  20
ATOM     20  O   UNL     1       1.825   9.647  19.432  0.00  0.00    +0.000 OA
BRANCH  20  21
ATOM     21  C   UNL     1       2.078   8.324  19.187  0.00  0.00    +0.000 A 
ATOM     22  C   UNL     1       2.579   7.853  17.976  0.00  0.00    +0.000 A 
ATOM     23  C   UNL     1       2.843   6.502  17.775  0.00  0.00    +0.000 A 
ATOM     24  C   UNL     1       2.591   5.586  18.797  0.00  0.00    +0.000 A 
ATOM     25  C   UNL     1       2.100   6.044  20.029  0.00  0.00    +0.000 A 
ATOM     26  C   UNL     1       1.863   7.417  20.226  0.00  0.00    +0.000 A 
BRANCH  24  27
ATOM     27  N   UNL     1       2.806   4.210  18.568  0.00  0.00    +0.000 N 
ATOM     28  C   UNL     1       2.057   3.330  17.828  0.00  0.00    +0.000 A 
ATOM     29  N   UNL     1       2.561   2.122  17.945  0.00  0.00    +0.000 NA
ATOM     30  N   UNL     1       3.657   2.259  18.757  0.00  0.00    +0.000 NA
ATOM     31  N   UNL     1       3.828   3.522  19.123  0.00  0.00    +0.000 NA
ENDBRANCH  24  27
ENDBRANCH  20  21
ENDBRANCH   4  20
TORSDOF 6
ENDMDL
MODEL 4
REMARK VINA RESULT:      -7.5      0.666      1.154
REMARK  Name = 
REMARK  9 active torsions:
REMARK  status: ('A' for Active; 'I' for Inactive)
REMARK    1  A    between atoms: C_1  and  C_2
REMARK    2  A    between atoms: C_2  and  C_3
REMARK    3  A    between atoms: C_2  and  C_4
REMARK    4  A    between atoms: C_2  and  C_5
REMARK    5  A    between atoms: C_8  and  S_9
REMARK    6  A    between atoms: S_9  and  N_12
REMARK    7  A    between atoms: C_15  and  O_16
REMARK    8  A    between atoms: O_16  and  C_17
REMARK    9  A    between atoms: C_20  and  N_21
REMARK                            x       y       z     vdW  Elec       q    Type
REMARK                         _______ _______ _______ _____ _____    ______ ____
ROOT
ATOM      1  N   UNL     1      -0.443  11.707  20.723  0.00  0.00    +0.000 NA
ATOM      2  C   UNL     1       0.885  12.104  20.183  0.00  0.00    +0.000 C 
ATOM      3  C   UNL     1       1.075  11.560  18.779  0.00  0.00    +0.000 C 
ATOM      4  C   UNL     1       0.974  10.031  18.755  0.00  0.00    +0.000 C 
ATOM      5  C   UNL     1      -0.432   9.676  19.236  0.00  0.00    +0.000 C 
ATOM      6  C   UNL     1      -0.731  10.243  20.624  0.00  0.00    +0.000 C 
ENDROOT
BRANCH   1   7
ATOM      7  S   UNL     1      -0.722  12.321  22.317  0.00  0.00    +0.000 S 
ATOM      8  O   UNL     1      -0.051  13.594  22.427  0.00  0.00    +0.000 OA
ATOM      9  O   UNL     1      -0.468  11.249  23.262  0.00  0.00    +0.000 OA
BRANCH   7  13
ATOM     10  C   UNL     1      -5.281  12.927  22.275  0.00  0.00    +0.000 A 
ATOM     11  C   UNL     1      -4.518  12.970  21.093  0.00  0.00    +0.000 A 
ATOM     12  C   UNL     1      -3.128  12.804  21.119  0.00  0.00    +0.000 A 
ATOM     13  C   UNL     1      -2.476  12.601  22.333  0.00  0.00    +0.000 A 
ATOM     14  C   UNL     1      -3.198  12.557  23.523  0.00  0.00    +0.000 A 
ATOM     15  C   UNL     1      -4.590  12.718  23.488  0.00  0.00    +0.000 A 
BRANCH  10  17
ATOM     16  C   UNL     1      -7.574  11.922  21.625  0.00  0.00    +0.000 C 
ATOM     17  C   UNL     1      -6.814  13.101  22.274  0.00  0.00    +0.000 C 
ATOM     18  C   UNL     1      -7.179  14.375  21.483  0.00  0.00    +0.000 C 
ATOM     19  C   UNL     1      -7.339  13.232  23.721  0.00  0.00    +0.000 C 
ENDBRANCH  10  17
ENDBRANCH   7  13
ENDBRANCH   1   7
BRANCH   4  20
ATOM     20  O   UNL     1       1.930   9.377  19.615  0.00  0.00    +0.000 OA
BRANCH  20  21
ATOM     21  C   UNL     1       2.043   8.021  19.466  0.00  0.00    +0.000 A 
ATOM     22  C   UNL     1       1.787   7.115  20.493  0.00  0.00    +0.000 A 
ATOM     23  C   UNL     1       1.893   5.743  20.293  0.00  0.00    +0.000 A 
ATOM     24  C   UNL     1       2.277   5.250  19.046  0.00  0.00    +0.000 A 
ATOM     25  C   UNL     1       2.524   6.146  17.995  0.00  0.00    +0.000 A 
ATOM     26  C   UNL     1       2.387   7.531  18.205  0.00  0.00    +0.000 A 
BRANCH  24  27
ATOM     27  N   UNL     1       2.439   3.860  18.866  0.00  0.00    +0.000 N 
ATOM     28  C   UNL     1       1.483   2.875  18.838  0.00  0.00    +0.000 A 
ATOM     29  N   UNL     1       2.067   1.703  18.731  0.00  0.00    +0.000 NA
ATOM     30  N   UNL     1       3.411   1.966  18.670  0.00  0.00    +0.000 NA
ATOM     31  N   UNL     1       3.647   3.270  18.730  0.00  0.00    +0.000 NA
ENDBRANCH  24  27
ENDBRANCH  20  21
ENDBRANCH   4  20
TORSDOF 6
ENDMDL
MODEL 5
REMARK VINA RESULT:      -7.5      0.318      1.202
REMARK  Name = 
REMARK  9 active torsions:
REMARK  status: ('A' for Active; 'I' for Inactive)
REMARK    1  A    between atoms: C_1  and  C_2
REMARK    2  A    between atoms: C_2  and  C_3
REMARK    3  A    between atoms: C_2  and  C_4
REMARK    4  A    between atoms: C_2  and  C_5
REMARK    5  A    between atoms: C_8  and  S_9
REMARK    6  A    between atoms: S_9  and  N_12
REMARK    7  A    between atoms: C_15  and  O_16
REMARK    8  A    between atoms: O_16  and  C_17
REMARK    9  A    between atoms: C_20  and  N_21
REMARK                            x       y       z     vdW  Elec       q    Type
REMARK                         _______ _______ _______ _____ _____    ______ ____
ROOT
ATOM      1  N   UNL     1      -0.384  12.115  20.493  0.00  0.00    +0.000 NA
ATOM      2  C   UNL     1       1.082  12.181  20.254  0.00  0.00    +0.000 C 
ATOM      3  C   UNL     1       1.435  11.544  18.922  0.00  0.00    +0.000 C 
ATOM      4  C   UNL     1       0.997  10.077  18.873  0.00  0.00    +0.000 C 
ATOM      5  C   UNL     1      -0.522  10.066  19.038  0.00  0.00    +0.000 C 
ATOM      6  C   UNL     1      -0.970  10.748  20.330  0.00  0.00    +0.000 C 
ENDROOT
BRANCH   1   7
ATOM      7  S   UNL     1      -0.846  12.848  21.991  0.00  0.00    +0.000 S 
ATOM      8  O   UNL     1      -0.389  14.217  21.975  0.00  0.00    +0.000 OA
ATOM      9  O   UNL     1      -0.483  11.943  23.066  0.00  0.00    +0.000 OA
BRANCH   7  13
ATOM     10  C   UNL     1      -5.443  12.943  21.863  0.00  0.00    +0.000 A 
ATOM     11  C   UNL     1      -4.742  12.672  23.052  0.00  0.00    +0.000 A 
ATOM     12  C   UNL     1      -3.343  12.625  23.076  0.00  0.00    +0.000 A 
ATOM     13  C   UNL     1      -2.621  12.841  21.905  0.00  0.00    +0.000 A 
ATOM     14  C   UNL     1      -3.281  13.109  20.709  0.00  0.00    +0.000 A 
ATOM     15  C   UNL     1      -4.682  13.160  20.694  0.00  0.00    +0.000 A 
BRANCH  10  17
ATOM     16  C   UNL     1      -7.652  13.093  23.201  0.00  0.00    +0.000 C 
ATOM     17  C   UNL     1      -6.984  13.006  21.810  0.00  0.00    +0.000 C 
ATOM     18  C   UNL     1      -7.519  11.734  21.121  0.00  0.00    +0.000 C 
ATOM     19  C   UNL     1      -7.442  14.248  21.014  0.00  0.00    +0.000 C 
ENDBRANCH  10  17
ENDBRANCH   7  13
ENDBRANCH   1   7
BRANCH   4  20
ATOM     20  O   UNL     1       1.576   9.267  19.917  0.00  0.00    +0.000 OA
BRANCH  20  21
ATOM     21  C   UNL     1       1.879   7.976  19.577  0.00  0.00    +0.000 A 
ATOM     22  C   UNL     1       2.448   7.620  18.357  0.00  0.00    +0.000 A 
ATOM     23  C   UNL     1       2.760   6.297  18.060  0.00  0.00    +0.000 A 
ATOM     24  C   UNL     1       2.488   5.293  18.990  0.00  0.00    +0.000 A 
ATOM     25  C   UNL     1       1.929   5.634  20.230  0.00  0.00    +0.000 A 
ATOM     26  C   UNL     1       1.644   6.980  20.527  0.00  0.00    +0.000 A 
BRANCH  24  27
ATOM     27  N   UNL     1       2.753   3.947  18.660  0.00  0.00    +0.000 N 
ATOM     28  C   UNL     1       3.937   3.256  18.732  0.00  0.00    +0.000 A 
ATOM     29  N   UNL     1       3.767   2.046  18.250  0.00  0.00    +0.000 NA
ATOM     30  N   UNL     1       2.446   1.977  17.890  0.00  0.00    +0.000 NA
ATOM     31  N   UNL     1       1.817   3.115  18.153  0.00  0.00    +0.000 NA
ENDBRANCH  24  27
ENDBRANCH  20  21
ENDBRANCH   4  20
TORSDOF 6
ENDMDL
MODEL 6
REMARK VINA RESULT:      -7.5      0.580      1.248
REMARK  Name = 
REMARK  9 active torsions:
REMARK  status: ('A' for Active; 'I' for Inactive)
REMARK    1  A    between atoms: C_1  and  C_2
REMARK    2  A    between atoms: C_2  and  C_3
REMARK    3  A    between atoms: C_2  and  C_4
REMARK    4  A    between atoms: C_2  and  C_5
REMARK    5  A    between atoms: C_8  and  S_9
REMARK    6  A    between atoms: S_9  and  N_12
REMARK    7  A    between atoms: C_15  and  O_16
REMARK    8  A    between atoms: O_16  and  C_17
REMARK    9  A    between atoms: C_20  and  N_21
REMARK                            x       y       z     vdW  Elec       q    Type
REMARK                         _______ _______ _______ _____ _____    ______ ____
ROOT
ATOM      1  N   UNL     1      -0.352  12.099  20.371  0.00  0.00    +0.000 NA
ATOM      2  C   UNL     1       1.114  12.171  20.133  0.00  0.00    +0.000 C 
ATOM      3  C   UNL     1       1.481  11.469  18.838  0.00  0.00    +0.000 C 
ATOM      4  C   UNL     1       1.062   9.996  18.865  0.00  0.00    +0.000 C 
ATOM      5  C   UNL     1      -0.458   9.975  19.024  0.00  0.00    +0.000 C 
ATOM      6  C   UNL     1      -0.919  10.718  20.277  0.00  0.00    +0.000 C 
ENDROOT
BRANCH   1   7
ATOM      7  S   UNL     1      -0.829  12.904  21.826  0.00  0.00    +0.000 S 
ATOM      8  O   UNL     1      -0.367  14.269  21.751  0.00  0.00    +0.000 OA
ATOM      9  O   UNL     1      -0.482  12.050  22.947  0.00  0.00    +0.000 OA
BRANCH   7  13
ATOM     10  C   UNL     1      -5.412  12.769  21.466  0.00  0.00    +0.000 A 
ATOM     11  C   UNL     1      -4.587  12.942  20.340  0.00  0.00    +0.000 A 
ATOM     12  C   UNL     1      -3.194  13.002  20.463  0.00  0.00    +0.000 A 
ATOM     13  C   UNL     1      -2.603  12.898  21.719  0.00  0.00    +0.000 A 
ATOM     14  C   UNL     1      -3.388  12.731  22.857  0.00  0.00    +0.000 A 
ATOM     15  C   UNL     1      -4.783  12.667  22.725  0.00  0.00    +0.000 A 
BRANCH  10  17
ATOM     16  C   UNL     1      -7.647  12.274  22.672  0.00  0.00    +0.000 C 
ATOM     17  C   UNL     1      -6.950  12.695  21.358  0.00  0.00    +0.000 C 
ATOM     18  C   UNL     1      -7.333  11.658  20.281  0.00  0.00    +0.000 C 
ATOM     19  C   UNL     1      -7.527  14.073  20.967  0.00  0.00    +0.000 C 
ENDBRANCH  10  17
ENDBRANCH   7  13
ENDBRANCH   1   7
BRANCH   4  20
ATOM     20  O   UNL     1       1.647   9.250  19.952  0.00  0.00    +0.000 OA
BRANCH  20  21
ATOM     21  C   UNL     1       1.909   7.930  19.702  0.00  0.00    +0.000 A 
ATOM     22  C   UNL     1       1.673   6.915  20.626  0.00  0.00    +0.000 A 
ATOM     23  C   UNL     1       1.934   5.582  20.323  0.00  0.00    +0.000 A 
ATOM     24  C   UNL     1       2.458   5.243  19.075  0.00  0.00    +0.000 A 
ATOM     25  C   UNL     1       2.688   6.250  18.126  0.00  0.00    +0.000 A 
ATOM     26  C   UNL     1       2.394   7.591  18.437  0.00  0.00    +0.000 A 
BRANCH  24  27
ATOM     27  N   UNL     1       2.775   3.897  18.795  0.00  0.00    +0.000 N 
ATOM     28  C   UNL     1       3.684   3.391  17.900  0.00  0.00    +0.000 A 
ATOM     29  N   UNL     1       3.606   2.080  17.892  0.00  0.00    +0.000 NA
ATOM     30  N   UNL     1       2.644   1.763  18.816  0.00  0.00    +0.000 NA
ATOM     31  N   UNL     1       2.148   2.854  19.384  0.00  0.00    +0.000 NA
ENDBRANCH  24  27
ENDBRANCH  20  21
ENDBRANCH   4  20
TORSDOF 6
ENDMDL
MODEL 7
REMARK VINA RESULT:      -7.4      4.484     11.680
REMARK  Name = 
REMARK  9 active torsions:
REMARK  status: ('A' for Active; 'I' for Inactive)
REMARK    1  A    between atoms: C_1  and  C_2
REMARK    2  A    between atoms: C_2  and  C_3
REMARK    3  A    between atoms: C_2  and  C_4
REMARK    4  A    between atoms: C_2  and  C_5
REMARK    5  A    between atoms: C_8  and  S_9
REMARK    6  A    between atoms: S_9  and  N_12
REMARK    7  A    between atoms: C_15  and  O_16
REMARK    8  A    between atoms: O_16  and  C_17
REMARK    9  A    between atoms: C_20  and  N_21
REMARK                            x       y       z     vdW  Elec       q    Type
REMARK                         _______ _______ _______ _____ _____    ______ ____
ROOT
ATOM      1  N   UNL     1       4.327   5.349  18.350  0.00  0.00    +0.000 NA
ATOM      2  C   UNL     1       4.036   5.170  19.797  0.00  0.00    +0.000 C 
ATOM      3  C   UNL     1       2.538   5.154  20.042  0.00  0.00    +0.000 C 
ATOM      4  C   UNL     1       1.882   6.454  19.568  0.00  0.00    +0.000 C 
ATOM      5  C   UNL     1       2.134   6.550  18.064  0.00  0.00    +0.000 C 
ATOM      6  C   UNL     1       3.623   6.509  17.723  0.00  0.00    +0.000 C 
ENDROOT
BRANCH   1   7
ATOM      7  S   UNL     1       6.024   5.353  18.010  0.00  0.00    +0.000 S 
ATOM      8  O   UNL     1       6.649   4.366  18.857  0.00  0.00    +0.000 OA
ATOM      9  O   UNL     1       6.476   6.731  17.995  0.00  0.00    +0.000 OA
BRANCH   7  13
ATOM     10  C   UNL     1       6.079   3.948  13.631  0.00  0.00    +0.000 A 
ATOM     11  C   UNL     1       5.040   3.589  14.510  0.00  0.00    +0.000 A 
ATOM     12  C   UNL     1       5.043   4.005  15.846  0.00  0.00    +0.000 A 
ATOM     13  C   UNL     1       6.093   4.782  16.329  0.00  0.00    +0.000 A 
ATOM     14  C   UNL     1       7.141   5.153  15.489  0.00  0.00    +0.000 A 
ATOM     15  C   UNL     1       7.127   4.737  14.150  0.00  0.00    +0.000 A 
BRANCH  10  17
ATOM     16  C   UNL     1       4.723   3.615  11.453  0.00  0.00    +0.000 C 
ATOM     17  C   UNL     1       6.097   3.507  12.152  0.00  0.00    +0.000 C 
ATOM     18  C   UNL     1       6.542   2.032  12.068  0.00  0.00    +0.000 C 
ATOM     19  C   UNL     1       7.081   4.382  11.345  0.00  0.00    +0.000 C 
ENDBRANCH  10  17
ENDBRANCH   7  13
ENDBRANCH   1   7
BRANCH   4  20
ATOM     20  O   UNL     1       2.419   7.635  20.199  0.00  0.00    +0.000 OA
BRANCH  20  21
ATOM     21  C   UNL     1       1.505   8.574  20.594  0.00  0.00    +0.000 A 
ATOM     22  C   UNL     1       0.870   9.443  19.709  0.00  0.00    +0.000 A 
ATOM     23  C   UNL     1      -0.069  10.369  20.149  0.00  0.00    +0.000 A 
ATOM     24  C   UNL     1      -0.382  10.450  21.507  0.00  0.00    +0.000 A 
ATOM     25  C   UNL     1       0.235   9.572  22.411  0.00  0.00    +0.000 A 
ATOM     26  C   UNL     1       1.164   8.623  21.946  0.00  0.00    +0.000 A 
BRANCH  24  27
ATOM     27  N   UNL     1      -1.293  11.430  21.955  0.00  0.00    +0.000 N 
ATOM     28  C   UNL     1      -1.874  11.569  23.191  0.00  0.00    +0.000 A 
ATOM     29  N   UNL     1      -2.728  12.567  23.162  0.00  0.00    +0.000 NA
ATOM     30  N   UNL     1      -2.660  13.071  21.889  0.00  0.00    +0.000 NA
ATOM     31  N   UNL     1      -1.780  12.404  21.155  0.00  0.00    +0.000 NA
ENDBRANCH  24  27
ENDBRANCH  20  21
ENDBRANCH   4  20
TORSDOF 6
ENDMDL
MODEL 8
REMARK VINA RESULT:      -7.4      4.534     11.708
REMARK  Name = 
REMARK  9 active torsions:
REMARK  status: ('A' for Active; 'I' for Inactive)
REMARK    1  A    between atoms: C_1  and  C_2
REMARK    2  A    between atoms: C_2  and  C_3
REMARK    3  A    between atoms: C_2  and  C_4
REMARK    4  A    between atoms: C_2  and  C_5
REMARK    5  A    between atoms: C_8  and  S_9
REMARK    6  A    between atoms: S_9  and  N_12
REMARK    7  A    between atoms: C_15  and  O_16
REMARK    8  A    between atoms: O_16  and  C_17
REMARK    9  A    between atoms: C_20  and  N_21
REMARK                            x       y       z     vdW  Elec       q    Type
REMARK                         _______ _______ _______ _____ _____    ______ ____
ROOT
ATOM      1  N   UNL     1       4.417   5.199  18.394  0.00  0.00    +0.000 NA
ATOM      2  C   UNL     1       4.219   5.265  19.866  0.00  0.00    +0.000 C 
ATOM      3  C   UNL     1       2.741   5.220  20.209  0.00  0.00    +0.000 C 
ATOM      4  C   UNL     1       1.983   6.383  19.561  0.00  0.00    +0.000 C 
ATOM      5  C   UNL     1       2.144   6.225  18.050  0.00  0.00    +0.000 C 
ATOM      6  C   UNL     1       3.612   6.196  17.623  0.00  0.00    +0.000 C 
ENDROOT
BRANCH   1   7
ATOM      7  S   UNL     1       6.089   5.225  17.947  0.00  0.00    +0.000 S 
ATOM      8  O   UNL     1       6.767   4.203  18.706  0.00  0.00    +0.000 OA
ATOM      9  O   UNL     1       6.538   6.605  17.967  0.00  0.00    +0.000 OA
BRANCH   7  13
ATOM     10  C   UNL     1       6.126   3.896  13.544  0.00  0.00    +0.000 A 
ATOM     11  C   UNL     1       7.038   4.847  14.037  0.00  0.00    +0.000 A 
ATOM     12  C   UNL     1       7.006   5.260  15.374  0.00  0.00    +0.000 A 
ATOM     13  C   UNL     1       6.051   4.733  16.240  0.00  0.00    +0.000 A 
ATOM     14  C   UNL     1       5.129   3.793  15.786  0.00  0.00    +0.000 A 
ATOM     15  C   UNL     1       5.172   3.380  14.447  0.00  0.00    +0.000 A 
BRANCH  10  17
ATOM     16  C   UNL     1       6.593   1.951  11.904  0.00  0.00    +0.000 C 
ATOM     17  C   UNL     1       6.144   3.420  12.077  0.00  0.00    +0.000 C 
ATOM     18  C   UNL     1       7.123   4.299  11.270  0.00  0.00    +0.000 C 
ATOM     19  C   UNL     1       4.732   3.533  11.460  0.00  0.00    +0.000 C 
ENDBRANCH  10  17
ENDBRANCH   7  13
ENDBRANCH   1   7
BRANCH   4  20
ATOM     20  O   UNL     1       2.485   7.681  19.942  0.00  0.00    +0.000 OA
BRANCH  20  21
ATOM     21  C   UNL     1       1.552   8.579  20.385  0.00  0.00    +0.000 A 
ATOM     22  C   UNL     1       1.068   9.627  19.604  0.00  0.00    +0.000 A 
ATOM     23  C   UNL     1       0.104  10.505  20.086  0.00  0.00    +0.000 A 
ATOM     24  C   UNL     1      -0.388  10.355  21.383  0.00  0.00    +0.000 A 
ATOM     25  C   UNL     1       0.077   9.297  22.179  0.00  0.00    +0.000 A 
ATOM     26  C   UNL     1       1.033   8.400  21.668  0.00  0.00    +0.000 A 
BRANCH  24  27
ATOM     27  N   UNL     1      -1.323  11.284  21.886  0.00  0.00    +0.000 N 
ATOM     28  C   UNL     1      -1.734  11.483  23.181  0.00  0.00    +0.000 A 
ATOM     29  N   UNL     1      -2.683  12.391  23.204  0.00  0.00    +0.000 NA
ATOM     30  N   UNL     1      -2.850  12.779  21.900  0.00  0.00    +0.000 NA
ATOM     31  N   UNL     1      -2.019  12.131  21.096  0.00  0.00    +0.000 NA
ENDBRANCH  24  27
ENDBRANCH  20  21
ENDBRANCH   4  20
TORSDOF 6
ENDMDL
MODEL 9
REMARK VINA RESULT:      -7.4      4.521     11.660
REMARK  Name = 
REMARK  9 active torsions:
REMARK  status: ('A' for Active; 'I' for Inactive)
REMARK    1  A    between atoms: C_1  and  C_2
REMARK    2  A    between atoms: C_2  and  C_3
REMARK    3  A    between atoms: C_2  and  C_4
REMARK    4  A    between atoms: C_2  and  C_5
REMARK    5  A    between atoms: C_8  and  S_9
REMARK    6  A    between atoms: S_9  and  N_12
REMARK    7  A    between atoms: C_15  and  O_16
REMARK    8  A    between atoms: O_16  and  C_17
REMARK    9  A    between atoms: C_20  and  N_21
REMARK                            x       y       z     vdW  Elec       q    Type
REMARK                         _______ _______ _______ _____ _____    ______ ____
ROOT
ATOM      1  N   UNL     1       4.482   5.170  18.362  0.00  0.00    +0.000 NA
ATOM      2  C   UNL     1       4.298   5.065  19.834  0.00  0.00    +0.000 C 
ATOM      3  C   UNL     1       2.825   4.939  20.180  0.00  0.00    +0.000 C 
ATOM      4  C   UNL     1       2.028   6.144  19.671  0.00  0.00    +0.000 C 
ATOM      5  C   UNL     1       2.177   6.160  18.151  0.00  0.00    +0.000 C 
ATOM      6  C   UNL     1       3.640   6.222  17.713  0.00  0.00    +0.000 C 
ENDROOT
BRANCH   1   7
ATOM      7  S   UNL     1       6.147   5.294  17.908  0.00  0.00    +0.000 S 
ATOM      8  O   UNL     1       6.887   4.308  18.658  0.00  0.00    +0.000 OA
ATOM      9  O   UNL     1       6.517   6.697  17.936  0.00  0.00    +0.000 OA
BRANCH   7  13
ATOM     10  C   UNL     1       6.227   3.968  13.505  0.00  0.00    +0.000 A 
ATOM     11  C   UNL     1       7.252   4.758  14.059  0.00  0.00    +0.000 A 
ATOM     12  C   UNL     1       7.209   5.173  15.395  0.00  0.00    +0.000 A 
ATOM     13  C   UNL     1       6.130   4.811  16.199  0.00  0.00    +0.000 A 
ATOM     14  C   UNL     1       5.095   4.035  15.684  0.00  0.00    +0.000 A 
ATOM     15  C   UNL     1       5.150   3.618  14.347  0.00  0.00    +0.000 A 
BRANCH  10  17
ATOM     16  C   UNL     1       6.896   2.100  11.846  0.00  0.00    +0.000 C 
ATOM     17  C   UNL     1       6.254   3.493  12.038  0.00  0.00    +0.000 C 
ATOM     18  C   UNL     1       7.068   4.496  11.194  0.00  0.00    +0.000 C 
ATOM     19  C   UNL     1       4.816   3.405  11.477  0.00  0.00    +0.000 C 
ENDBRANCH  10  17
ENDBRANCH   7  13
ENDBRANCH   1   7
BRANCH   4  20
ATOM     20  O   UNL     1       2.496   7.406  20.190  0.00  0.00    +0.000 OA
BRANCH  20  21
ATOM     21  C   UNL     1       1.551   8.386  20.331  0.00  0.00    +0.000 A 
ATOM     22  C   UNL     1       0.884   8.639  21.528  0.00  0.00    +0.000 A 
ATOM     23  C   UNL     1      -0.055   9.659  21.633  0.00  0.00    +0.000 A 
ATOM     24  C   UNL     1      -0.357  10.444  20.520  0.00  0.00    +0.000 A 
ATOM     25  C   UNL     1       0.315  10.214  19.310  0.00  0.00    +0.000 A 
ATOM     26  C   UNL     1       1.283   9.195  19.226  0.00  0.00    +0.000 A 
BRANCH  24  27
ATOM     27  N   UNL     1      -1.352  11.439  20.618  0.00  0.00    +0.000 N 
ATOM     28  C   UNL     1      -1.807  12.101  21.732  0.00  0.00    +0.000 A 
ATOM     29  N   UNL     1      -2.802  12.890  21.396  0.00  0.00    +0.000 NA
ATOM     30  N   UNL     1      -2.955  12.731  20.042  0.00  0.00    +0.000 NA
ATOM     31  N   UNL     1      -2.070  11.871  19.557  0.00  0.00    +0.000 NA
ENDBRANCH  24  27
ENDBRANCH  20  21
ENDBRANCH   4  20
TORSDOF 6
ENDMDL
