MODEL 1
REMARK VINA RESULT:      -8.9      0.000      0.000
REMARK  Name = 
REMARK  10 active torsions:
REMARK  status: ('A' for Active; 'I' for Inactive)
REMARK    1  A    between atoms: C_2  and  O_26
REMARK    2  A    between atoms: N_3  and  C_4
REMARK    3  A    between atoms: C_4  and  C_5
REMARK    4  A    between atoms: C_4  and  C_15
REMARK    5  A    between atoms: C_5  and  C_6
REMARK    6  A    between atoms: N_17  and  C_18
REMARK    7  A    between atoms: C_18  and  C_19
REMARK    8  A    between atoms: C_19  and  C_20
REMARK    9  A    between atoms: O_26  and  C_27
REMARK   10  A    between atoms: C_27  and  C_28
REMARK                            x       y       z     vdW  Elec       q    Type
REMARK                         _______ _______ _______ _____ _____    ______ ____
ROOT
ATOM      1  C   UNL     1       6.551   5.809  17.149  0.00  0.00    +0.000 C 
ENDROOT
BRANCH   1   4
ATOM      2  O   UNL     1       5.424   5.262  14.525  0.00  0.00    +0.000 OA
ATOM      3  C   UNL     1       6.627   5.182  14.730  0.00  0.00    +0.000 C 
ATOM      4  N   UNL     1       7.241   5.529  15.886  0.00  0.00    +0.000 N 
ATOM      5  H   UNL     1       8.243   5.373  15.933  0.00  0.00    +0.000 HD
BRANCH   3   6
ATOM      6  O   UNL     1       7.551   4.701  13.869  0.00  0.00    +0.000 OA
BRANCH   6   7
ATOM      7  C   UNL     1       7.182   4.737  12.479  0.00  0.00    +0.000 C 
BRANCH   7   8
ATOM      8  C   UNL     1       6.762   3.398  11.964  0.00  0.00    +0.000 A 
ATOM      9  C   UNL     1       5.514   2.812  12.009  0.00  0.00    +0.000 A 
ATOM     10  N   UNL     1       5.670   1.576  11.451  0.00  0.00    +0.000 N 
ATOM     11  C   UNL     1       6.974   1.461  11.066  0.00  0.00    +0.000 A 
ATOM     12  N   UNL     1       7.659   2.543  11.354  0.00  0.00    +0.000 NA
ATOM     13  H   UNL     1       4.955   0.867  11.350  0.00  0.00    +0.000 HD
ENDBRANCH   7   8
ENDBRANCH   6   7
ENDBRANCH   3   6
ENDBRANCH   1   4
BRANCH   1  14
ATOM     14  C   UNL     1       7.520   6.658  18.014  0.00  0.00    +0.000 C 
ATOM     15  O   UNL     1       8.122   6.174  18.975  0.00  0.00    +0.000 OA
ATOM     16  N   UNL     1       7.680   7.980  17.642  0.00  0.00    +0.000 N 
ATOM     17  H   UNL     1       7.132   8.365  16.886  0.00  0.00    +0.000 HD
BRANCH  16  18
ATOM     18  C   UNL     1       8.471   8.876  18.474  0.00  0.00    +0.000 C 
BRANCH  18  19
ATOM     19  C   UNL     1       8.688  10.251  17.842  0.00  0.00    +0.000 C 
BRANCH  19  20
ATOM     20  C   UNL     1       9.810  11.007  18.518  0.00  0.00    +0.000 A 
ATOM     21  C   UNL     1       9.819  11.168  19.911  0.00  0.00    +0.000 A 
ATOM     22  C   UNL     1      10.836  11.895  20.534  0.00  0.00    +0.000 A 
ATOM     23  C   UNL     1      11.851  12.471  19.774  0.00  0.00    +0.000 A 
ATOM     24  C   UNL     1      11.851  12.319  18.388  0.00  0.00    +0.000 A 
ATOM     25  C   UNL     1      10.834  11.593  17.763  0.00  0.00    +0.000 A 
ENDBRANCH  19  20
ENDBRANCH  18  19
ENDBRANCH  16  18
ENDBRANCH   1  14
BRANCH   1  26
ATOM     26  C   UNL     1       6.073   4.540  17.892  0.00  0.00    +0.000 C 
BRANCH  26  27
ATOM     27  C   UNL     1       4.781   4.680  18.651  0.00  0.00    +0.000 A 
ATOM     28  C   UNL     1       4.460   5.653  19.579  0.00  0.00    +0.000 A 
ATOM     29  N   UNL     1       3.145   5.524  19.916  0.00  0.00    +0.000 N 
ATOM     30  C   UNL     1       2.617   4.403  19.327  0.00  0.00    +0.000 A 
ATOM     31  C   UNL     1       1.329   3.872  19.420  0.00  0.00    +0.000 A 
ATOM     32  C   UNL     1       1.078   2.672  18.754  0.00  0.00    +0.000 A 
ATOM     33  C   UNL     1       2.075   2.043  18.012  0.00  0.00    +0.000 A 
ATOM     34  C   UNL     1       3.349   2.615  17.893  0.00  0.00    +0.000 A 
ATOM     35  C   UNL     1       3.632   3.824  18.562  0.00  0.00    +0.000 A 
ATOM     36  H   UNL     1       2.639   6.154  20.525  0.00  0.00    +0.000 HD
ENDBRANCH  26  27
ENDBRANCH   1  26
TORSDOF 10
ENDMDL
MODEL 2
REMARK VINA RESULT:      -8.4      3.021      5.310
REMARK  Name = 
REMARK  10 active torsions:
REMARK  status: ('A' for Active; 'I' for Inactive)
REMARK    1  A    between atoms: C_2  and  O_26
REMARK    2  A    between atoms: N_3  and  C_4
REMARK    3  A    between atoms: C_4  and  C_5
REMARK    4  A    between atoms: C_4  and  C_15
REMARK    5  A    between atoms: C_5  and  C_6
REMARK    6  A    between atoms: N_17  and  C_18
REMARK    7  A    between atoms: C_18  and  C_19
REMARK    8  A    between atoms: C_19  and  C_20
REMARK    9  A    between atoms: O_26  and  C_27
REMARK   10  A    between atoms: C_27  and  C_28
REMARK                            x       y       z     vdW  Elec       q    Type
REMARK                         _______ _______ _______ _____ _____    ______ ____
ROOT
ATOM      1  C   UNL     1       5.060   6.223  16.906  0.00  0.00    +0.000 C 
ENDROOT
BRANCH   1   4
ATOM      2  O   UNL     1       5.635   3.512  16.026  0.00  0.00    +0.000 OA
ATOM      3  C   UNL     1       4.905   3.729  16.983  0.00  0.00    +0.000 C 
ATOM      4  N   UNL     1       4.679   4.950  17.525  0.00  0.00    +0.000 N 
ATOM      5  H   UNL     1       4.017   4.991  18.294  0.00  0.00    +0.000 HD
BRANCH   3   6
ATOM      6  O   UNL     1       4.166   2.812  17.645  0.00  0.00    +0.000 OA
BRANCH   6   7
ATOM      7  C   UNL     1       4.193   2.911  19.080  0.00  0.00    +0.000 C 
BRANCH   7   8
ATOM      8  C   UNL     1       2.824   2.973  19.676  0.00  0.00    +0.000 A 
ATOM      9  C   UNL     1       2.466   3.031  21.007  0.00  0.00    +0.000 A 
ATOM     10  N   UNL     1       1.101   3.023  21.019  0.00  0.00    +0.000 N 
ATOM     11  C   UNL     1       0.679   2.988  19.722  0.00  0.00    +0.000 A 
ATOM     12  N   UNL     1       1.690   2.964  18.886  0.00  0.00    +0.000 NA
ATOM     13  H   UNL     1       0.507   3.029  21.838  0.00  0.00    +0.000 HD
ENDBRANCH   7   8
ENDBRANCH   6   7
ENDBRANCH   3   6
ENDBRANCH   1   4
BRANCH   1  14
ATOM     14  C   UNL     1       6.350   6.705  17.621  0.00  0.00    +0.000 C 
ATOM     15  O   UNL     1       6.894   6.030  18.498  0.00  0.00    +0.000 OA
ATOM     16  N   UNL     1       6.862   7.923  17.214  0.00  0.00    +0.000 N 
ATOM     17  H   UNL     1       6.364   8.481  16.535  0.00  0.00    +0.000 HD
BRANCH  16  18
ATOM     18  C   UNL     1       7.994   8.505  17.920  0.00  0.00    +0.000 C 
BRANCH  18  19
ATOM     19  C   UNL     1       8.352   9.910  17.432  0.00  0.00    +0.000 C 
BRANCH  19  20
ATOM     20  C   UNL     1       9.299  10.608  18.381  0.00  0.00    +0.000 A 
ATOM     21  C   UNL     1      10.397  11.327  17.889  0.00  0.00    +0.000 A 
ATOM     22  C   UNL     1      11.292  11.944  18.765  0.00  0.00    +0.000 A 
ATOM     23  C   UNL     1      11.102  11.847  20.142  0.00  0.00    +0.000 A 
ATOM     24  C   UNL     1      10.016  11.132  20.643  0.00  0.00    +0.000 A 
ATOM     25  C   UNL     1       9.120  10.513  19.767  0.00  0.00    +0.000 A 
ENDBRANCH  19  20
ENDBRANCH  18  19
ENDBRANCH  16  18
ENDBRANCH   1  14
BRANCH   1  26
ATOM     26  C   UNL     1       3.944   7.293  16.943  0.00  0.00    +0.000 C 
BRANCH  26  27
ATOM     27  C   UNL     1       3.118   7.328  18.201  0.00  0.00    +0.000 A 
ATOM     28  C   UNL     1       3.103   6.389  19.214  0.00  0.00    +0.000 A 
ATOM     29  N   UNL     1       2.347   6.865  20.245  0.00  0.00    +0.000 N 
ATOM     30  C   UNL     1       1.754   8.048  19.885  0.00  0.00    +0.000 A 
ATOM     31  C   UNL     1       0.880   8.861  20.610  0.00  0.00    +0.000 A 
ATOM     32  C   UNL     1       0.375   9.994  19.969  0.00  0.00    +0.000 A 
ATOM     33  C   UNL     1       0.747  10.303  18.663  0.00  0.00    +0.000 A 
ATOM     34  C   UNL     1       1.661   9.499  17.968  0.00  0.00    +0.000 A 
ATOM     35  C   UNL     1       2.181   8.344  18.589  0.00  0.00    +0.000 A 
ATOM     36  H   UNL     1       2.229   6.403  21.138  0.00  0.00    +0.000 HD
ENDBRANCH  26  27
ENDBRANCH   1  26
TORSDOF 10
ENDMDL
MODEL 3
REMARK VINA RESULT:      -8.4      1.943      8.215
REMARK  Name = 
REMARK  10 active torsions:
REMARK  status: ('A' for Active; 'I' for Inactive)
REMARK    1  A    between atoms: C_2  and  O_26
REMARK    2  A    between atoms: N_3  and  C_4
REMARK    3  A    between atoms: C_4  and  C_5
REMARK    4  A    between atoms: C_4  and  C_15
REMARK    5  A    between atoms: C_5  and  C_6
REMARK    6  A    between atoms: N_17  and  C_18
REMARK    7  A    between atoms: C_18  and  C_19
REMARK    8  A    between atoms: C_19  and  C_20
REMARK    9  A    between atoms: O_26  and  C_27
REMARK   10  A    between atoms: C_27  and  C_28
REMARK                            x       y       z     vdW  Elec       q    Type
REMARK                         _______ _______ _______ _____ _____    ______ ____
ROOT
ATOM      1  C   UNL     1       6.086   6.349  17.369  0.00  0.00    +0.000 C 
ENDROOT
BRANCH   1   4
ATOM      2  O   UNL     1       8.435   7.464  18.670  0.00  0.00    +0.000 OA
ATOM      3  C   UNL     1       7.714   8.152  17.961  0.00  0.00    +0.000 C 
ATOM      4  N   UNL     1       6.672   7.686  17.231  0.00  0.00    +0.000 N 
ATOM      5  H   UNL     1       6.132   8.375  16.717  0.00  0.00    +0.000 HD
BRANCH   3   6
ATOM      6  O   UNL     1       7.793   9.491  17.806  0.00  0.00    +0.000 OA
BRANCH   6   7
ATOM      7  C   UNL     1       9.115  10.051  17.907  0.00  0.00    +0.000 C 
BRANCH   7   8
ATOM      8  C   UNL     1       9.242  11.019  19.039  0.00  0.00    +0.000 A 
ATOM      9  C   UNL     1       9.386  12.390  18.986  0.00  0.00    +0.000 A 
ATOM     10  N   UNL     1       9.506  12.795  20.285  0.00  0.00    +0.000 N 
ATOM     11  C   UNL     1       9.406  11.684  21.071  0.00  0.00    +0.000 A 
ATOM     12  N   UNL     1       9.239  10.599  20.354  0.00  0.00    +0.000 NA
ATOM     13  H   UNL     1       9.655  13.742  20.608  0.00  0.00    +0.000 HD
ENDBRANCH   7   8
ENDBRANCH   6   7
ENDBRANCH   3   6
ENDBRANCH   1   4
BRANCH   1  14
ATOM     14  C   UNL     1       6.918   5.396  16.471  0.00  0.00    +0.000 C 
ATOM     15  O   UNL     1       7.696   4.569  16.952  0.00  0.00    +0.000 OA
ATOM     16  N   UNL     1       6.730   5.514  15.106  0.00  0.00    +0.000 N 
ATOM     17  H   UNL     1       6.129   6.237  14.738  0.00  0.00    +0.000 HD
BRANCH  16  18
ATOM     18  C   UNL     1       7.563   4.747  14.191  0.00  0.00    +0.000 C 
BRANCH  18  19
ATOM     19  C   UNL     1       7.194   4.954  12.722  0.00  0.00    +0.000 C 
BRANCH  19  20
ATOM     20  C   UNL     1       6.703   3.676  12.082  0.00  0.00    +0.000 A 
ATOM     21  C   UNL     1       5.331   3.396  12.014  0.00  0.00    +0.000 A 
ATOM     22  C   UNL     1       4.877   2.200  11.455  0.00  0.00    +0.000 A 
ATOM     23  C   UNL     1       5.788   1.269  10.960  0.00  0.00    +0.000 A 
ATOM     24  C   UNL     1       7.155   1.535  11.024  0.00  0.00    +0.000 A 
ATOM     25  C   UNL     1       7.611   2.732  11.584  0.00  0.00    +0.000 A 
ENDBRANCH  19  20
ENDBRANCH  18  19
ENDBRANCH  16  18
ENDBRANCH   1  14
BRANCH   1  26
ATOM     26  C   UNL     1       4.578   6.292  17.031  0.00  0.00    +0.000 C 
BRANCH  26  27
ATOM     27  C   UNL     1       3.666   5.965  18.183  0.00  0.00    +0.000 A 
ATOM     28  C   UNL     1       3.412   6.748  19.293  0.00  0.00    +0.000 A 
ATOM     29  N   UNL     1       2.412   6.171  20.019  0.00  0.00    +0.000 N 
ATOM     30  C   UNL     1       2.084   4.953  19.482  0.00  0.00    +0.000 A 
ATOM     31  C   UNL     1       1.146   4.013  19.915  0.00  0.00    +0.000 A 
ATOM     32  C   UNL     1       1.059   2.815  19.204  0.00  0.00    +0.000 A 
ATOM     33  C   UNL     1       1.868   2.582  18.094  0.00  0.00    +0.000 A 
ATOM     34  C   UNL     1       2.772   3.555  17.648  0.00  0.00    +0.000 A 
ATOM     35  C   UNL     1       2.886   4.772  18.353  0.00  0.00    +0.000 A 
ATOM     36  H   UNL     1       1.988   6.576  20.844  0.00  0.00    +0.000 HD
ENDBRANCH  26  27
ENDBRANCH   1  26
TORSDOF 10
ENDMDL
MODEL 4
REMARK VINA RESULT:      -8.4      3.148      8.445
REMARK  Name = 
REMARK  10 active torsions:
REMARK  status: ('A' for Active; 'I' for Inactive)
REMARK    1  A    between atoms: C_2  and  O_26
REMARK    2  A    between atoms: N_3  and  C_4
REMARK    3  A    between atoms: C_4  and  C_5
REMARK    4  A    between atoms: C_4  and  C_15
REMARK    5  A    between atoms: C_5  and  C_6
REMARK    6  A    between atoms: N_17  and  C_18
REMARK    7  A    between atoms: C_18  and  C_19
REMARK    8  A    between atoms: C_19  and  C_20
REMARK    9  A    between atoms: O_26  and  C_27
REMARK   10  A    between atoms: C_27  and  C_28
REMARK                            x       y       z     vdW  Elec       q    Type
REMARK                         _______ _______ _______ _____ _____    ______ ____
ROOT
ATOM      1  C   UNL     1       5.125   6.260  17.910  0.00  0.00    +0.000 C 
ENDROOT
BRANCH   1   4
ATOM      2  O   UNL     1       7.831   6.480  18.953  0.00  0.00    +0.000 OA
ATOM      3  C   UNL     1       7.482   7.094  17.955  0.00  0.00    +0.000 C 
ATOM      4  N   UNL     1       6.281   6.960  17.342  0.00  0.00    +0.000 N 
ATOM      5  H   UNL     1       6.109   7.562  16.543  0.00  0.00    +0.000 HD
BRANCH   3   6
ATOM      6  O   UNL     1       8.201   8.038  17.309  0.00  0.00    +0.000 OA
BRANCH   6   7
ATOM      7  C   UNL     1       7.757   9.394  17.496  0.00  0.00    +0.000 C 
BRANCH   7   8
ATOM      8  C   UNL     1       8.735  10.215  18.273  0.00  0.00    +0.000 A 
ATOM      9  C   UNL     1       9.324   9.931  19.487  0.00  0.00    +0.000 A 
ATOM     10  N   UNL     1      10.095  11.018  19.783  0.00  0.00    +0.000 N 
ATOM     11  C   UNL     1       9.975  11.900  18.748  0.00  0.00    +0.000 A 
ATOM     12  N   UNL     1       9.168  11.445  17.818  0.00  0.00    +0.000 NA
ATOM     13  H   UNL     1      10.646  11.155  20.619  0.00  0.00    +0.000 HD
ENDBRANCH   7   8
ENDBRANCH   6   7
ENDBRANCH   3   6
ENDBRANCH   1   4
BRANCH   1  14
ATOM     14  C   UNL     1       5.208   4.787  17.432  0.00  0.00    +0.000 C 
ATOM     15  O   UNL     1       6.249   4.314  16.971  0.00  0.00    +0.000 OA
ATOM     16  N   UNL     1       4.058   4.031  17.563  0.00  0.00    +0.000 N 
ATOM     17  H   UNL     1       3.204   4.459  17.891  0.00  0.00    +0.000 HD
BRANCH  16  18
ATOM     18  C   UNL     1       4.014   2.679  17.023  0.00  0.00    +0.000 C 
BRANCH  18  19
ATOM     19  C   UNL     1       3.653   1.623  18.069  0.00  0.00    +0.000 C 
BRANCH  19  20
ATOM     20  C   UNL     1       2.815   2.204  19.184  0.00  0.00    +0.000 A 
ATOM     21  C   UNL     1       3.361   2.387  20.462  0.00  0.00    +0.000 A 
ATOM     22  C   UNL     1       2.579   2.891  21.503  0.00  0.00    +0.000 A 
ATOM     23  C   UNL     1       1.242   3.216  21.280  0.00  0.00    +0.000 A 
ATOM     24  C   UNL     1       0.688   3.037  20.014  0.00  0.00    +0.000 A 
ATOM     25  C   UNL     1       1.469   2.531  18.972  0.00  0.00    +0.000 A 
ENDBRANCH  19  20
ENDBRANCH  18  19
ENDBRANCH  16  18
ENDBRANCH   1  14
BRANCH   1  26
ATOM     26  C   UNL     1       3.767   6.909  17.554  0.00  0.00    +0.000 C 
BRANCH  26  27
ATOM     27  C   UNL     1       2.851   7.181  18.717  0.00  0.00    +0.000 A 
ATOM     28  C   UNL     1       2.653   6.381  19.826  0.00  0.00    +0.000 A 
ATOM     29  N   UNL     1       1.872   7.054  20.720  0.00  0.00    +0.000 N 
ATOM     30  C   UNL     1       1.442   8.236  20.172  0.00  0.00    +0.000 A 
ATOM     31  C   UNL     1       0.606   9.214  20.712  0.00  0.00    +0.000 A 
ATOM     32  C   UNL     1       0.280  10.302  19.901  0.00  0.00    +0.000 A 
ATOM     33  C   UNL     1       0.788  10.409  18.608  0.00  0.00    +0.000 A 
ATOM     34  C   UNL     1       1.662   9.438  18.099  0.00  0.00    +0.000 A 
ATOM     35  C   UNL     1       2.001   8.324  18.895  0.00  0.00    +0.000 A 
ATOM     36  H   UNL     1       1.632   6.721  21.645  0.00  0.00    +0.000 HD
ENDBRANCH  26  27
ENDBRANCH   1  26
TORSDOF 10
ENDMDL
MODEL 5
REMARK VINA RESULT:      -8.4      3.424      5.899
REMARK  Name = 
REMARK  10 active torsions:
REMARK  status: ('A' for Active; 'I' for Inactive)
REMARK    1  A    between atoms: C_2  and  O_26
REMARK    2  A    between atoms: N_3  and  C_4
REMARK    3  A    between atoms: C_4  and  C_5
REMARK    4  A    between atoms: C_4  and  C_15
REMARK    5  A    between atoms: C_5  and  C_6
REMARK    6  A    between atoms: N_17  and  C_18
REMARK    7  A    between atoms: C_18  and  C_19
REMARK    8  A    between atoms: C_19  and  C_20
REMARK    9  A    between atoms: O_26  and  C_27
REMARK   10  A    between atoms: C_27  and  C_28
REMARK                            x       y       z     vdW  Elec       q    Type
REMARK                         _______ _______ _______ _____ _____    ______ ____
ROOT
ATOM      1  C   UNL     1       3.848   6.126  17.289  0.00  0.00    +0.000 C 
ENDROOT
BRANCH   1   4
ATOM      2  O   UNL     1       1.851   4.022  17.074  0.00  0.00    +0.000 OA
ATOM      3  C   UNL     1       3.023   3.765  17.312  0.00  0.00    +0.000 C 
ATOM      4  N   UNL     1       4.030   4.671  17.315  0.00  0.00    +0.000 N 
ATOM      5  H   UNL     1       4.951   4.327  17.568  0.00  0.00    +0.000 HD
BRANCH   3   6
ATOM      6  O   UNL     1       3.520   2.556  17.650  0.00  0.00    +0.000 OA
BRANCH   6   7
ATOM      7  C   UNL     1       2.645   1.719  18.427  0.00  0.00    +0.000 C 
BRANCH   7   8
ATOM      8  C   UNL     1       2.384   2.273  19.790  0.00  0.00    +0.000 A 
ATOM      9  C   UNL     1       3.288   2.550  20.795  0.00  0.00    +0.000 A 
ATOM     10  N   UNL     1       2.541   2.991  21.849  0.00  0.00    +0.000 N 
ATOM     11  C   UNL     1       1.235   2.994  21.452  0.00  0.00    +0.000 A 
ATOM     12  N   UNL     1       1.105   2.575  20.216  0.00  0.00    +0.000 NA
ATOM     13  H   UNL     1       2.886   3.255  22.761  0.00  0.00    +0.000 HD
ENDBRANCH   7   8
ENDBRANCH   6   7
ENDBRANCH   3   6
ENDBRANCH   1   4
BRANCH   1  14
ATOM     14  C   UNL     1       5.165   6.737  16.743  0.00  0.00    +0.000 C 
ATOM     15  O   UNL     1       5.421   6.749  15.537  0.00  0.00    +0.000 OA
ATOM     16  N   UNL     1       6.027   7.279  17.678  0.00  0.00    +0.000 N 
ATOM     17  H   UNL     1       5.819   7.205  18.664  0.00  0.00    +0.000 HD
BRANCH  16  18
ATOM     18  C   UNL     1       7.338   7.757  17.263  0.00  0.00    +0.000 C 
BRANCH  18  19
ATOM     19  C   UNL     1       8.275   8.045  18.437  0.00  0.00    +0.000 C 
BRANCH  19  20
ATOM     20  C   UNL     1       8.649   9.508  18.509  0.00  0.00    +0.000 A 
ATOM     21  C   UNL     1       9.489   9.976  19.529  0.00  0.00    +0.000 A 
ATOM     22  C   UNL     1       9.808  11.333  19.618  0.00  0.00    +0.000 A 
ATOM     23  C   UNL     1       9.290  12.236  18.692  0.00  0.00    +0.000 A 
ATOM     24  C   UNL     1       8.452  11.781  17.675  0.00  0.00    +0.000 A 
ATOM     25  C   UNL     1       8.131  10.424  17.585  0.00  0.00    +0.000 A 
ENDBRANCH  19  20
ENDBRANCH  18  19
ENDBRANCH  16  18
ENDBRANCH   1  14
BRANCH   1  26
ATOM     26  C   UNL     1       3.454   6.729  18.658  0.00  0.00    +0.000 C 
BRANCH  26  27
ATOM     27  C   UNL     1       2.538   7.921  18.604  0.00  0.00    +0.000 A 
ATOM     28  C   UNL     1       2.361   8.789  17.542  0.00  0.00    +0.000 A 
ATOM     29  N   UNL     1       1.332   9.636  17.833  0.00  0.00    +0.000 N 
ATOM     30  C   UNL     1       0.905   9.432  19.120  0.00  0.00    +0.000 A 
ATOM     31  C   UNL     1      -0.094  10.090  19.841  0.00  0.00    +0.000 A 
ATOM     32  C   UNL     1      -0.282   9.714  21.172  0.00  0.00    +0.000 A 
ATOM     33  C   UNL     1       0.491   8.707  21.746  0.00  0.00    +0.000 A 
ATOM     34  C   UNL     1       1.458   8.027  20.994  0.00  0.00    +0.000 A 
ATOM     35  C   UNL     1       1.674   8.393  19.649  0.00  0.00    +0.000 A 
ATOM     36  H   UNL     1       0.952  10.325  17.197  0.00  0.00    +0.000 HD
ENDBRANCH  26  27
ENDBRANCH   1  26
TORSDOF 10
ENDMDL
MODEL 6
REMARK VINA RESULT:      -8.3      5.206      7.274
REMARK  Name = 
REMARK  10 active torsions:
REMARK  status: ('A' for Active; 'I' for Inactive)
REMARK    1  A    between atoms: C_2  and  O_26
REMARK    2  A    between atoms: N_3  and  C_4
REMARK    3  A    between atoms: C_4  and  C_5
REMARK    4  A    between atoms: C_4  and  C_15
REMARK    5  A    between atoms: C_5  and  C_6
REMARK    6  A    between atoms: N_17  and  C_18
REMARK    7  A    between atoms: C_18  and  C_19
REMARK    8  A    between atoms: C_19  and  C_20
REMARK    9  A    between atoms: O_26  and  C_27
REMARK   10  A    between atoms: C_27  and  C_28
REMARK                            x       y       z     vdW  Elec       q    Type
REMARK                         _______ _______ _______ _____ _____    ______ ____
ROOT
ATOM      1  C   UNL     1       2.496   6.471  19.934  0.00  0.00    +0.000 C 
ENDROOT
BRANCH   1   4
ATOM      2  O   UNL     1       2.356   4.207  21.753  0.00  0.00    +0.000 OA
ATOM      3  C   UNL     1       1.587   4.312  20.809  0.00  0.00    +0.000 C 
ATOM      4  N   UNL     1       1.511   5.387  19.987  0.00  0.00    +0.000 N 
ATOM      5  H   UNL     1       0.852   5.324  19.216  0.00  0.00    +0.000 HD
BRANCH   3   6
ATOM      6  O   UNL     1       0.708   3.376  20.388  0.00  0.00    +0.000 OA
BRANCH   6   7
ATOM      7  C   UNL     1       1.283   2.120  19.987  0.00  0.00    +0.000 C 
BRANCH   7   8
ATOM      8  C   UNL     1       2.243   2.267  18.850  0.00  0.00    +0.000 A 
ATOM      9  C   UNL     1       3.533   1.790  18.746  0.00  0.00    +0.000 A 
ATOM     10  N   UNL     1       3.990   2.233  17.538  0.00  0.00    +0.000 N 
ATOM     11  C   UNL     1       2.976   2.929  16.946  0.00  0.00    +0.000 A 
ATOM     12  N   UNL     1       1.907   2.963  17.705  0.00  0.00    +0.000 NA
ATOM     13  H   UNL     1       4.914   2.087  17.154  0.00  0.00    +0.000 HD
ENDBRANCH   7   8
ENDBRANCH   6   7
ENDBRANCH   3   6
ENDBRANCH   1   4
BRANCH   1  14
ATOM     14  C   UNL     1       1.762   7.770  20.359  0.00  0.00    +0.000 C 
ATOM     15  O   UNL     1       1.385   7.950  21.519  0.00  0.00    +0.000 OA
ATOM     16  N   UNL     1       1.566   8.718  19.372  0.00  0.00    +0.000 N 
ATOM     17  H   UNL     1       1.835   8.521  18.418  0.00  0.00    +0.000 HD
BRANCH  16  18
ATOM     18  C   UNL     1       0.776   9.907  19.656  0.00  0.00    +0.000 C 
BRANCH  18  19
ATOM     19  C   UNL     1       0.468  10.739  18.410  0.00  0.00    +0.000 C 
BRANCH  19  20
ATOM     20  C   UNL     1       1.016  12.143  18.525  0.00  0.00    +0.000 A 
ATOM     21  C   UNL     1       0.159  13.221  18.788  0.00  0.00    +0.000 A 
ATOM     22  C   UNL     1       0.658  14.523  18.860  0.00  0.00    +0.000 A 
ATOM     23  C   UNL     1       2.018  14.763  18.668  0.00  0.00    +0.000 A 
ATOM     24  C   UNL     1       2.878  13.699  18.404  0.00  0.00    +0.000 A 
ATOM     25  C   UNL     1       2.380  12.396  18.330  0.00  0.00    +0.000 A 
ENDBRANCH  19  20
ENDBRANCH  18  19
ENDBRANCH  16  18
ENDBRANCH   1  14
BRANCH   1  26
ATOM     26  C   UNL     1       3.186   6.620  18.558  0.00  0.00    +0.000 C 
BRANCH  26  27
ATOM     27  C   UNL     1       4.492   5.888  18.403  0.00  0.00    +0.000 A 
ATOM     28  C   UNL     1       5.245   5.306  19.404  0.00  0.00    +0.000 A 
ATOM     29  N   UNL     1       6.270   4.609  18.836  0.00  0.00    +0.000 N 
ATOM     30  C   UNL     1       6.288   4.821  17.481  0.00  0.00    +0.000 A 
ATOM     31  C   UNL     1       7.174   4.336  16.516  0.00  0.00    +0.000 A 
ATOM     32  C   UNL     1       6.991   4.765  15.201  0.00  0.00    +0.000 A 
ATOM     33  C   UNL     1       5.951   5.630  14.868  0.00  0.00    +0.000 A 
ATOM     34  C   UNL     1       5.045   6.070  15.843  0.00  0.00    +0.000 A 
ATOM     35  C   UNL     1       5.212   5.659  17.182  0.00  0.00    +0.000 A 
ATOM     36  H   UNL     1       6.930   4.033  19.343  0.00  0.00    +0.000 HD
ENDBRANCH  26  27
ENDBRANCH   1  26
TORSDOF 10
ENDMDL
MODEL 7
REMARK VINA RESULT:      -8.3      1.200      1.863
REMARK  Name = 
REMARK  10 active torsions:
REMARK  status: ('A' for Active; 'I' for Inactive)
REMARK    1  A    between atoms: C_2  and  O_26
REMARK    2  A    between atoms: N_3  and  C_4
REMARK    3  A    between atoms: C_4  and  C_5
REMARK    4  A    between atoms: C_4  and  C_15
REMARK    5  A    between atoms: C_5  and  C_6
REMARK    6  A    between atoms: N_17  and  C_18
REMARK    7  A    between atoms: C_18  and  C_19
REMARK    8  A    between atoms: C_19  and  C_20
REMARK    9  A    between atoms: O_26  and  C_27
REMARK   10  A    between atoms: C_27  and  C_28
REMARK                            x       y       z     vdW  Elec       q    Type
REMARK                         _______ _______ _______ _____ _____    ______ ____
ROOT
ATOM      1  C   UNL     1       5.922   6.145  17.640  0.00  0.00    +0.000 C 
ENDROOT
BRANCH   1   4
ATOM      2  O   UNL     1       7.656   4.479  16.005  0.00  0.00    +0.000 OA
ATOM      3  C   UNL     1       6.775   5.164  15.505  0.00  0.00    +0.000 C 
ATOM      4  N   UNL     1       5.856   5.875  16.201  0.00  0.00    +0.000 N 
ATOM      5  H   UNL     1       5.205   6.432  15.657  0.00  0.00    +0.000 HD
BRANCH   3   6
ATOM      6  O   UNL     1       6.580   5.369  14.184  0.00  0.00    +0.000 OA
BRANCH   6   7
ATOM      7  C   UNL     1       7.263   4.457  13.306  0.00  0.00    +0.000 C 
BRANCH   7   8
ATOM      8  C   UNL     1       6.320   3.620  12.503  0.00  0.00    +0.000 A 
ATOM      9  C   UNL     1       4.969   3.804  12.296  0.00  0.00    +0.000 A 
ATOM     10  N   UNL     1       4.568   2.744  11.535  0.00  0.00    +0.000 N 
ATOM     11  C   UNL     1       5.670   1.978  11.285  0.00  0.00    +0.000 A 
ATOM     12  N   UNL     1       6.744   2.480  11.847  0.00  0.00    +0.000 NA
ATOM     13  H   UNL     1       3.626   2.550  11.222  0.00  0.00    +0.000 HD
ENDBRANCH   7   8
ENDBRANCH   6   7
ENDBRANCH   3   6
ENDBRANCH   1   4
BRANCH   1  14
ATOM     14  C   UNL     1       7.240   6.924  17.894  0.00  0.00    +0.000 C 
ATOM     15  O   UNL     1       8.133   6.467  18.612  0.00  0.00    +0.000 OA
ATOM     16  N   UNL     1       7.365   8.147  17.262  0.00  0.00    +0.000 N 
ATOM     17  H   UNL     1       6.595   8.522  16.726  0.00  0.00    +0.000 HD
BRANCH  16  18
ATOM     18  C   UNL     1       8.513   8.995  17.547  0.00  0.00    +0.000 C 
BRANCH  18  19
ATOM     19  C   UNL     1       8.618   9.394  19.020  0.00  0.00    +0.000 C 
BRANCH  19  20
ATOM     20  C   UNL     1       9.537  10.578  19.215  0.00  0.00    +0.000 A 
ATOM     21  C   UNL     1      10.247  11.112  18.131  0.00  0.00    +0.000 A 
ATOM     22  C   UNL     1      11.123  12.184  18.315  0.00  0.00    +0.000 A 
ATOM     23  C   UNL     1      11.302  12.731  19.584  0.00  0.00    +0.000 A 
ATOM     24  C   UNL     1      10.603  12.206  20.670  0.00  0.00    +0.000 A 
ATOM     25  C   UNL     1       9.727  11.133  20.487  0.00  0.00    +0.000 A 
ENDBRANCH  19  20
ENDBRANCH  18  19
ENDBRANCH  16  18
ENDBRANCH   1  14
BRANCH   1  26
ATOM     26  C   UNL     1       5.821   4.877  18.519  0.00  0.00    +0.000 C 
BRANCH  26  27
ATOM     27  C   UNL     1       4.547   4.088  18.378  0.00  0.00    +0.000 A 
ATOM     28  C   UNL     1       4.294   3.065  17.484  0.00  0.00    +0.000 A 
ATOM     29  N   UNL     1       3.086   2.507  17.784  0.00  0.00    +0.000 N 
ATOM     30  C   UNL     1       2.472   3.223  18.780  0.00  0.00    +0.000 A 
ATOM     31  C   UNL     1       1.222   3.031  19.372  0.00  0.00    +0.000 A 
ATOM     32  C   UNL     1       0.818   3.957  20.335  0.00  0.00    +0.000 A 
ATOM     33  C   UNL     1       1.643   5.018  20.699  0.00  0.00    +0.000 A 
ATOM     34  C   UNL     1       2.913   5.169  20.126  0.00  0.00    +0.000 A 
ATOM     35  C   UNL     1       3.344   4.252  19.144  0.00  0.00    +0.000 A 
ATOM     36  H   UNL     1       2.694   1.695  17.326  0.00  0.00    +0.000 HD
ENDBRANCH  26  27
ENDBRANCH   1  26
TORSDOF 10
ENDMDL
MODEL 8
REMARK VINA RESULT:      -8.2      5.293      8.001
REMARK  Name = 
REMARK  10 active torsions:
REMARK  status: ('A' for Active; 'I' for Inactive)
REMARK    1  A    between atoms: C_2  and  O_26
REMARK    2  A    between atoms: N_3  and  C_4
REMARK    3  A    between atoms: C_4  and  C_5
REMARK    4  A    between atoms: C_4  and  C_15
REMARK    5  A    between atoms: C_5  and  C_6
REMARK    6  A    between atoms: N_17  and  C_18
REMARK    7  A    between atoms: C_18  and  C_19
REMARK    8  A    between atoms: C_19  and  C_20
REMARK    9  A    between atoms: O_26  and  C_27
REMARK   10  A    between atoms: C_27  and  C_28
REMARK                            x       y       z     vdW  Elec       q    Type
REMARK                         _______ _______ _______ _____ _____    ______ ____
ROOT
ATOM      1  C   UNL     1       2.593   6.420  19.825  0.00  0.00    +0.000 C 
ENDROOT
BRANCH   1   4
ATOM      2  O   UNL     1       2.580   4.223  21.729  0.00  0.00    +0.000 OA
ATOM      3  C   UNL     1       1.709   4.332  20.878  0.00  0.00    +0.000 C 
ATOM      4  N   UNL     1       1.578   5.382  20.032  0.00  0.00    +0.000 N 
ATOM      5  H   UNL     1       0.831   5.324  19.348  0.00  0.00    +0.000 HD
BRANCH   3   6
ATOM      6  O   UNL     1       0.751   3.421  20.599  0.00  0.00    +0.000 OA
BRANCH   6   7
ATOM      7  C   UNL     1       0.626   3.057  19.213  0.00  0.00    +0.000 C 
BRANCH   7   8
ATOM      8  C   UNL     1       1.903   2.531  18.642  0.00  0.00    +0.000 A 
ATOM      9  C   UNL     1       2.838   1.709  19.237  0.00  0.00    +0.000 A 
ATOM     10  N   UNL     1       3.836   1.564  18.317  0.00  0.00    +0.000 N 
ATOM     11  C   UNL     1       3.472   2.265  17.203  0.00  0.00    +0.000 A 
ATOM     12  N   UNL     1       2.311   2.853  17.362  0.00  0.00    +0.000 NA
ATOM     13  H   UNL     1       4.695   1.044  18.438  0.00  0.00    +0.000 HD
ENDBRANCH   7   8
ENDBRANCH   6   7
ENDBRANCH   3   6
ENDBRANCH   1   4
BRANCH   1  14
ATOM     14  C   UNL     1       1.931   7.776  20.185  0.00  0.00    +0.000 C 
ATOM     15  O   UNL     1       1.650   8.609  19.320  0.00  0.00    +0.000 OA
ATOM     16  N   UNL     1       1.662   7.994  21.523  0.00  0.00    +0.000 N 
ATOM     17  H   UNL     1       1.954   7.320  22.216  0.00  0.00    +0.000 HD
BRANCH  16  18
ATOM     18  C   UNL     1       1.159   9.289  21.960  0.00  0.00    +0.000 C 
BRANCH  18  19
ATOM     19  C   UNL     1      -0.339   9.469  21.712  0.00  0.00    +0.000 C 
BRANCH  19  20
ATOM     20  C   UNL     1      -0.644  10.806  21.074  0.00  0.00    +0.000 A 
ATOM     21  C   UNL     1      -1.069  10.876  19.740  0.00  0.00    +0.000 A 
ATOM     22  C   UNL     1      -1.318  12.111  19.139  0.00  0.00    +0.000 A 
ATOM     23  C   UNL     1      -1.143  13.289  19.862  0.00  0.00    +0.000 A 
ATOM     24  C   UNL     1      -0.720  13.231  21.189  0.00  0.00    +0.000 A 
ATOM     25  C   UNL     1      -0.469  11.996  21.791  0.00  0.00    +0.000 A 
ENDBRANCH  19  20
ENDBRANCH  18  19
ENDBRANCH  16  18
ENDBRANCH   1  14
BRANCH   1  26
ATOM     26  C   UNL     1       3.192   6.430  18.399  0.00  0.00    +0.000 C 
BRANCH  26  27
ATOM     27  C   UNL     1       4.484   5.676  18.232  0.00  0.00    +0.000 A 
ATOM     28  C   UNL     1       5.194   5.012  19.215  0.00  0.00    +0.000 A 
ATOM     29  N   UNL     1       6.219   4.327  18.630  0.00  0.00    +0.000 N 
ATOM     30  C   UNL     1       6.281   4.625  17.293  0.00  0.00    +0.000 A 
ATOM     31  C   UNL     1       7.182   4.181  16.323  0.00  0.00    +0.000 A 
ATOM     32  C   UNL     1       7.047   4.698  15.034  0.00  0.00    +0.000 A 
ATOM     33  C   UNL     1       6.038   5.609  14.730  0.00  0.00    +0.000 A 
ATOM     34  C   UNL     1       5.115   6.009  15.706  0.00  0.00    +0.000 A 
ATOM     35  C   UNL     1       5.233   5.507  17.019  0.00  0.00    +0.000 A 
ATOM     36  H   UNL     1       6.850   3.703  19.116  0.00  0.00    +0.000 HD
ENDBRANCH  26  27
ENDBRANCH   1  26
TORSDOF 10
ENDMDL
MODEL 9
REMARK VINA RESULT:      -8.2      4.767      7.797
REMARK  Name = 
REMARK  10 active torsions:
REMARK  status: ('A' for Active; 'I' for Inactive)
REMARK    1  A    between atoms: C_2  and  O_26
REMARK    2  A    between atoms: N_3  and  C_4
REMARK    3  A    between atoms: C_4  and  C_5
REMARK    4  A    between atoms: C_4  and  C_15
REMARK    5  A    between atoms: C_5  and  C_6
REMARK    6  A    between atoms: N_17  and  C_18
REMARK    7  A    between atoms: C_18  and  C_19
REMARK    8  A    between atoms: C_19  and  C_20
REMARK    9  A    between atoms: O_26  and  C_27
REMARK   10  A    between atoms: C_27  and  C_28
REMARK                            x       y       z     vdW  Elec       q    Type
REMARK                         _______ _______ _______ _____ _____    ______ ____
ROOT
ATOM      1  C   UNL     1       2.502   6.159  18.678  0.00  0.00    +0.000 C 
ENDROOT
BRANCH   1   4
ATOM      2  O   UNL     1       1.093   4.039  17.271  0.00  0.00    +0.000 OA
ATOM      3  C   UNL     1       1.218   4.022  18.487  0.00  0.00    +0.000 C 
ATOM      4  N   UNL     1       1.954   4.905  19.204  0.00  0.00    +0.000 N 
ATOM      5  H   UNL     1       1.939   4.797  20.213  0.00  0.00    +0.000 HD
BRANCH   3   6
ATOM      6  O   UNL     1       0.624   3.156  19.337  0.00  0.00    +0.000 OA
BRANCH   6   7
ATOM      7  C   UNL     1       1.446   2.685  20.420  0.00  0.00    +0.000 C 
BRANCH   7   8
ATOM      8  C   UNL     1       2.785   2.210  19.958  0.00  0.00    +0.000 A 
ATOM      9  C   UNL     1       4.012   2.364  20.571  0.00  0.00    +0.000 A 
ATOM     10  N   UNL     1       4.918   1.796  19.723  0.00  0.00    +0.000 N 
ATOM     11  C   UNL     1       4.227   1.300  18.655  0.00  0.00    +0.000 A 
ATOM     12  N   UNL     1       2.939   1.526  18.768  0.00  0.00    +0.000 NA
ATOM     13  H   UNL     1       5.920   1.758  19.852  0.00  0.00    +0.000 HD
ENDBRANCH   7   8
ENDBRANCH   6   7
ENDBRANCH   3   6
ENDBRANCH   1   4
BRANCH   1  14
ATOM     14  C   UNL     1       3.972   5.875  18.269  0.00  0.00    +0.000 C 
ATOM     15  O   UNL     1       4.837   5.611  19.107  0.00  0.00    +0.000 OA
ATOM     16  N   UNL     1       4.254   5.918  16.916  0.00  0.00    +0.000 N 
ATOM     17  H   UNL     1       3.540   6.192  16.257  0.00  0.00    +0.000 HD
BRANCH  16  18
ATOM     18  C   UNL     1       5.631   5.788  16.460  0.00  0.00    +0.000 C 
BRANCH  18  19
ATOM     19  C   UNL     1       5.982   4.372  16.001  0.00  0.00    +0.000 C 
BRANCH  19  20
ATOM     20  C   UNL     1       6.422   4.345  14.555  0.00  0.00    +0.000 A 
ATOM     21  C   UNL     1       7.450   5.187  14.110  0.00  0.00    +0.000 A 
ATOM     22  C   UNL     1       7.835   5.189  12.767  0.00  0.00    +0.000 A 
ATOM     23  C   UNL     1       7.195   4.352  11.855  0.00  0.00    +0.000 A 
ATOM     24  C   UNL     1       6.169   3.513  12.287  0.00  0.00    +0.000 A 
ATOM     25  C   UNL     1       5.783   3.510  13.629  0.00  0.00    +0.000 A 
ENDBRANCH  19  20
ENDBRANCH  18  19
ENDBRANCH  16  18
ENDBRANCH   1  14
BRANCH   1  26
ATOM     26  C   UNL     1       2.395   7.348  19.661  0.00  0.00    +0.000 C 
BRANCH  26  27
ATOM     27  C   UNL     1       1.743   8.589  19.114  0.00  0.00    +0.000 A 
ATOM     28  C   UNL     1       1.855   9.092  17.831  0.00  0.00    +0.000 A 
ATOM     29  N   UNL     1       0.989  10.136  17.691  0.00  0.00    +0.000 N 
ATOM     30  C   UNL     1       0.395  10.419  18.895  0.00  0.00    +0.000 A 
ATOM     31  C   UNL     1      -0.526  11.417  19.220  0.00  0.00    +0.000 A 
ATOM     32  C   UNL     1      -0.925  11.515  20.554  0.00  0.00    +0.000 A 
ATOM     33  C   UNL     1      -0.432  10.635  21.515  0.00  0.00    +0.000 A 
ATOM     34  C   UNL     1       0.457   9.611  21.161  0.00  0.00    +0.000 A 
ATOM     35  C   UNL     1       0.883   9.494  19.821  0.00  0.00    +0.000 A 
ATOM     36  H   UNL     1       0.822  10.638  16.829  0.00  0.00    +0.000 HD
ENDBRANCH  26  27
ENDBRANCH   1  26
TORSDOF 10
ENDMDL
