MODEL 1
REMARK VINA RESULT:      -7.0      0.000      0.000
REMARK  Name = 
REMARK  4 active torsions:
REMARK  status: ('A' for Active; 'I' for Inactive)
REMARK    1  A    between atoms: C_5  and  C_6
REMARK    2  A    between atoms: N_7  and  C_8
REMARK    3  A    between atoms: N_11  and  C_12
REMARK    4  A    between atoms: C_12  and  C_13
REMARK                            x       y       z     vdW  Elec       q    Type
REMARK                         _______ _______ _______ _____ _____    ______ ____
ROOT
ATOM      1  C   UNL     1       3.068   3.482  19.136  0.00  0.00    +0.000 C 
ATOM      2  C   UNL     1       1.656   3.923  18.759  0.00  0.00    +0.000 C 
ATOM      3  C   UNL     1       1.915   5.348  18.282  0.00  0.00    +0.000 C 
ATOM      4  N   UNL     1       2.783   5.931  19.328  0.00  0.00    +0.000 NA
ATOM      5  C   UNL     1       3.633   4.784  19.760  0.00  0.00    +0.000 C 
ENDROOT
BRANCH   1   7
ATOM      6  C   UNL     1       4.591   3.495  17.126  0.00  0.00    +0.000 C 
ATOM      7  N   UNL     1       3.634   3.086  17.859  0.00  0.00    +0.000 NA
BRANCH   6  12
ATOM      8 BR   UNL     1       8.047   8.520  17.825  0.00  0.00    +0.000 Br
ATOM      9  C   UNL     1       7.058   6.934  17.530  0.00  0.00    +0.000 A 
ATOM     10  C   UNL     1       7.503   5.729  18.077  0.00  0.00    +0.000 A 
ATOM     11  C   UNL     1       6.742   4.564  17.926  0.00  0.00    +0.000 A 
ATOM     12  C   UNL     1       5.535   4.617  17.236  0.00  0.00    +0.000 A 
ATOM     13  C   UNL     1       5.127   5.820  16.634  0.00  0.00    +0.000 A 
ATOM     14  C   UNL     1       5.884   6.976  16.785  0.00  0.00    +0.000 A 
ENDBRANCH   6  12
ENDBRANCH   1   7
BRANCH   4  15
ATOM     15  C   UNL     1       1.905   6.481  20.383  0.00  0.00    +0.000 C 
BRANCH  15  16
ATOM     16  C   UNL     1       1.610   7.962  20.347  0.00  0.00    +0.000 A 
ATOM     17  C   UNL     1       1.597   8.677  19.143  0.00  0.00    +0.000 A 
ATOM     18  C   UNL     1       1.161  10.006  19.113  0.00  0.00    +0.000 A 
ATOM     19  C   UNL     1       0.735  10.632  20.284  0.00  0.00    +0.000 A 
ATOM     20  C   UNL     1       0.748   9.934  21.489  0.00  0.00    +0.000 A 
ATOM     21  C   UNL     1       1.181   8.608  21.520  0.00  0.00    +0.000 A 
ENDBRANCH  15  16
ENDBRANCH   4  15
TORSDOF 4
ENDMDL
MODEL 2
REMARK VINA RESULT:      -6.9      0.299      1.088
REMARK  Name = 
REMARK  4 active torsions:
REMARK  status: ('A' for Active; 'I' for Inactive)
REMARK    1  A    between atoms: C_5  and  C_6
REMARK    2  A    between atoms: N_7  and  C_8
REMARK    3  A    between atoms: N_11  and  C_12
REMARK    4  A    between atoms: C_12  and  C_13
REMARK                            x       y       z     vdW  Elec       q    Type
REMARK                         _______ _______ _______ _____ _____    ______ ____
ROOT
ATOM      1  C   UNL     1       3.289   3.463  18.886  0.00  0.00    +0.000 C 
ATOM      2  C   UNL     1       1.878   3.903  18.501  0.00  0.00    +0.000 C 
ATOM      3  C   UNL     1       2.124   5.357  18.112  0.00  0.00    +0.000 C 
ATOM      4  N   UNL     1       2.957   5.894  19.210  0.00  0.00    +0.000 NA
ATOM      5  C   UNL     1       3.817   4.737  19.597  0.00  0.00    +0.000 C 
ENDROOT
BRANCH   1   7
ATOM      6  C   UNL     1       4.851   3.621  16.913  0.00  0.00    +0.000 C 
ATOM      7  N   UNL     1       3.890   3.150  17.603  0.00  0.00    +0.000 NA
BRANCH   6  12
ATOM      8 BR   UNL     1       8.154   8.693  17.936  0.00  0.00    +0.000 Br
ATOM      9  C   UNL     1       7.216   7.098  17.542  0.00  0.00    +0.000 A 
ATOM     10  C   UNL     1       7.672   5.882  18.055  0.00  0.00    +0.000 A 
ATOM     11  C   UNL     1       6.946   4.707  17.830  0.00  0.00    +0.000 A 
ATOM     12  C   UNL     1       5.763   4.760  17.102  0.00  0.00    +0.000 A 
ATOM     13  C   UNL     1       5.344   5.977  16.535  0.00  0.00    +0.000 A 
ATOM     14  C   UNL     1       6.067   7.144  16.759  0.00  0.00    +0.000 A 
ENDBRANCH   6  12
ENDBRANCH   1   7
BRANCH   4  15
ATOM     15  C   UNL     1       2.047   6.368  20.273  0.00  0.00    +0.000 C 
BRANCH  15  16
ATOM     16  C   UNL     1       1.511   7.776  20.159  0.00  0.00    +0.000 A 
ATOM     17  C   UNL     1       0.937   8.432  21.256  0.00  0.00    +0.000 A 
ATOM     18  C   UNL     1       0.599   9.787  21.173  0.00  0.00    +0.000 A 
ATOM     19  C   UNL     1       0.831  10.498  19.996  0.00  0.00    +0.000 A 
ATOM     20  C   UNL     1       1.395   9.857  18.896  0.00  0.00    +0.000 A 
ATOM     21  C   UNL     1       1.735   8.506  18.979  0.00  0.00    +0.000 A 
ENDBRANCH  15  16
ENDBRANCH   4  15
TORSDOF 4
ENDMDL
MODEL 3
REMARK VINA RESULT:      -6.8      3.138      7.158
REMARK  Name = 
REMARK  4 active torsions:
REMARK  status: ('A' for Active; 'I' for Inactive)
REMARK    1  A    between atoms: C_5  and  C_6
REMARK    2  A    between atoms: N_7  and  C_8
REMARK    3  A    between atoms: N_11  and  C_12
REMARK    4  A    between atoms: C_12  and  C_13
REMARK                            x       y       z     vdW  Elec       q    Type
REMARK                         _______ _______ _______ _____ _____    ______ ____
ROOT
ATOM      1  C   UNL     1       5.044   5.650  18.844  0.00  0.00    +0.000 C 
ATOM      2  C   UNL     1       4.683   6.273  17.498  0.00  0.00    +0.000 C 
ATOM      3  C   UNL     1       4.679   5.040  16.600  0.00  0.00    +0.000 C 
ATOM      4  N   UNL     1       5.927   4.329  16.948  0.00  0.00    +0.000 NA
ATOM      5  C   UNL     1       6.078   4.578  18.412  0.00  0.00    +0.000 C 
ENDROOT
BRANCH   1   7
ATOM      6  C   UNL     1       2.644   5.674  19.616  0.00  0.00    +0.000 C 
ATOM      7  N   UNL     1       3.767   5.152  19.321  0.00  0.00    +0.000 NA
BRANCH   6  12
ATOM      8 BR   UNL     1       0.222  11.304  19.281  0.00  0.00    +0.000 Br
ATOM      9  C   UNL     1       1.061   9.616  19.437  0.00  0.00    +0.000 A 
ATOM     10  C   UNL     1       1.070   8.958  20.669  0.00  0.00    +0.000 A 
ATOM     11  C   UNL     1       1.625   7.678  20.779  0.00  0.00    +0.000 A 
ATOM     12  C   UNL     1       2.156   7.061  19.652  0.00  0.00    +0.000 A 
ATOM     13  C   UNL     1       2.200   7.755  18.430  0.00  0.00    +0.000 A 
ATOM     14  C   UNL     1       1.649   9.027  18.322  0.00  0.00    +0.000 A 
ENDBRANCH   6  12
ENDBRANCH   1   7
BRANCH   4  15
ATOM     15  C   UNL     1       7.010   4.890  16.113  0.00  0.00    +0.000 C 
BRANCH  15  16
ATOM     16  C   UNL     1       6.902   4.715  14.616  0.00  0.00    +0.000 A 
ATOM     17  C   UNL     1       7.736   5.416  13.735  0.00  0.00    +0.000 A 
ATOM     18  C   UNL     1       7.732   5.117  12.369  0.00  0.00    +0.000 A 
ATOM     19  C   UNL     1       6.896   4.119  11.870  0.00  0.00    +0.000 A 
ATOM     20  C   UNL     1       6.057   3.420  12.734  0.00  0.00    +0.000 A 
ATOM     21  C   UNL     1       6.062   3.715  14.098  0.00  0.00    +0.000 A 
ENDBRANCH  15  16
ENDBRANCH   4  15
TORSDOF 4
ENDMDL
MODEL 4
REMARK VINA RESULT:      -6.8      2.534      6.846
REMARK  Name = 
REMARK  4 active torsions:
REMARK  status: ('A' for Active; 'I' for Inactive)
REMARK    1  A    between atoms: C_5  and  C_6
REMARK    2  A    between atoms: N_7  and  C_8
REMARK    3  A    between atoms: N_11  and  C_12
REMARK    4  A    between atoms: C_12  and  C_13
REMARK                            x       y       z     vdW  Elec       q    Type
REMARK                         _______ _______ _______ _____ _____    ______ ____
ROOT
ATOM      1  C   UNL     1       2.372   6.202  19.370  0.00  0.00    +0.000 C 
ATOM      2  C   UNL     1       1.782   4.794  19.368  0.00  0.00    +0.000 C 
ATOM      3  C   UNL     1       2.800   4.052  20.227  0.00  0.00    +0.000 C 
ATOM      4  N   UNL     1       4.111   4.471  19.686  0.00  0.00    +0.000 NA
ATOM      5  C   UNL     1       3.890   5.892  19.289  0.00  0.00    +0.000 C 
ENDROOT
BRANCH   1   7
ATOM      6  C   UNL     1       1.288   7.809  20.983  0.00  0.00    +0.000 C 
ATOM      7  N   UNL     1       1.897   6.749  20.627  0.00  0.00    +0.000 NA
BRANCH   6  12
ATOM      8 BR   UNL     1      -0.450  13.128  18.460  0.00  0.00    +0.000 Br
ATOM      9  C   UNL     1       0.018  11.435  19.161  0.00  0.00    +0.000 A 
ATOM     10  C   UNL     1       0.923  10.625  18.472  0.00  0.00    +0.000 A 
ATOM     11  C   UNL     1       1.331   9.402  19.016  0.00  0.00    +0.000 A 
ATOM     12  C   UNL     1       0.836   9.003  20.253  0.00  0.00    +0.000 A 
ATOM     13  C   UNL     1      -0.124   9.793  20.911  0.00  0.00    +0.000 A 
ATOM     14  C   UNL     1      -0.528  11.008  20.368  0.00  0.00    +0.000 A 
ENDBRANCH   6  12
ENDBRANCH   1   7
BRANCH   4  15
ATOM     15  C   UNL     1       4.445   3.563  18.568  0.00  0.00    +0.000 C 
BRANCH  15  16
ATOM     16  C   UNL     1       5.278   4.122  17.437  0.00  0.00    +0.000 A 
ATOM     17  C   UNL     1       6.629   4.445  17.615  0.00  0.00    +0.000 A 
ATOM     18  C   UNL     1       7.421   4.803  16.518  0.00  0.00    +0.000 A 
ATOM     19  C   UNL     1       6.871   4.841  15.237  0.00  0.00    +0.000 A 
ATOM     20  C   UNL     1       5.528   4.528  15.048  0.00  0.00    +0.000 A 
ATOM     21  C   UNL     1       4.737   4.169  16.141  0.00  0.00    +0.000 A 
ENDBRANCH  15  16
ENDBRANCH   4  15
TORSDOF 4
ENDMDL
MODEL 5
REMARK VINA RESULT:      -6.7      3.225      7.284
REMARK  Name = 
REMARK  4 active torsions:
REMARK  status: ('A' for Active; 'I' for Inactive)
REMARK    1  A    between atoms: C_5  and  C_6
REMARK    2  A    between atoms: N_7  and  C_8
REMARK    3  A    between atoms: N_11  and  C_12
REMARK    4  A    between atoms: C_12  and  C_13
REMARK                            x       y       z     vdW  Elec       q    Type
REMARK                         _______ _______ _______ _____ _____    ______ ____
ROOT
ATOM      1  C   UNL     1       5.052   5.920  18.562  0.00  0.00    +0.000 C 
ATOM      2  C   UNL     1       4.654   6.363  17.156  0.00  0.00    +0.000 C 
ATOM      3  C   UNL     1       4.737   5.041  16.401  0.00  0.00    +0.000 C 
ATOM      4  N   UNL     1       6.031   4.461  16.822  0.00  0.00    +0.000 NA
ATOM      5  C   UNL     1       6.158   4.881  18.248  0.00  0.00    +0.000 C 
ENDROOT
BRANCH   1   7
ATOM      6  C   UNL     1       2.690   5.886  19.445  0.00  0.00    +0.000 C 
ATOM      7  N   UNL     1       3.810   5.392  19.097  0.00  0.00    +0.000 NA
BRANCH   6  12
ATOM      8 BR   UNL     1       0.131  11.462  19.226  0.00  0.00    +0.000 Br
ATOM      9  C   UNL     1       1.012   9.792  19.343  0.00  0.00    +0.000 A 
ATOM     10  C   UNL     1       1.071   9.125  20.569  0.00  0.00    +0.000 A 
ATOM     11  C   UNL     1       1.657   7.857  20.653  0.00  0.00    +0.000 A 
ATOM     12  C   UNL     1       2.171   7.262  19.506  0.00  0.00    +0.000 A 
ATOM     13  C   UNL     1       2.166   7.967  18.290  0.00  0.00    +0.000 A 
ATOM     14  C   UNL     1       1.584   9.226  18.208  0.00  0.00    +0.000 A 
ENDBRANCH   6  12
ENDBRANCH   1   7
BRANCH   4  15
ATOM     15  C   UNL     1       7.076   4.999  15.925  0.00  0.00    +0.000 C 
BRANCH  15  16
ATOM     16  C   UNL     1       7.033   4.584  14.472  0.00  0.00    +0.000 A 
ATOM     17  C   UNL     1       6.136   3.610  14.015  0.00  0.00    +0.000 A 
ATOM     18  C   UNL     1       6.000   3.361  12.646  0.00  0.00    +0.000 A 
ATOM     19  C   UNL     1       6.757   4.081  11.721  0.00  0.00    +0.000 A 
ATOM     20  C   UNL     1       7.657   5.047  12.163  0.00  0.00    +0.000 A 
ATOM     21  C   UNL     1       7.792   5.298  13.529  0.00  0.00    +0.000 A 
ENDBRANCH  15  16
ENDBRANCH   4  15
TORSDOF 4
ENDMDL
MODEL 6
REMARK VINA RESULT:      -6.6      3.165      7.232
REMARK  Name = 
REMARK  4 active torsions:
REMARK  status: ('A' for Active; 'I' for Inactive)
REMARK    1  A    between atoms: C_5  and  C_6
REMARK    2  A    between atoms: N_7  and  C_8
REMARK    3  A    between atoms: N_11  and  C_12
REMARK    4  A    between atoms: C_12  and  C_13
REMARK                            x       y       z     vdW  Elec       q    Type
REMARK                         _______ _______ _______ _____ _____    ______ ____
ROOT
ATOM      1  C   UNL     1       5.201   5.891  18.693  0.00  0.00    +0.000 C 
ATOM      2  C   UNL     1       4.722   6.320  17.308  0.00  0.00    +0.000 C 
ATOM      3  C   UNL     1       4.822   5.003  16.546  0.00  0.00    +0.000 C 
ATOM      4  N   UNL     1       6.155   4.473  16.904  0.00  0.00    +0.000 NA
ATOM      5  C   UNL     1       6.331   4.895  18.325  0.00  0.00    +0.000 C 
ENDROOT
BRANCH   1   7
ATOM      6  C   UNL     1       2.844   5.740  19.577  0.00  0.00    +0.000 C 
ATOM      7  N   UNL     1       4.007   5.314  19.282  0.00  0.00    +0.000 NA
BRANCH   6  12
ATOM      8 BR   UNL     1       0.540  11.428  19.719  0.00  0.00    +0.000 Br
ATOM      9  C   UNL     1       1.154   9.642  19.619  0.00  0.00    +0.000 A 
ATOM     10  C   UNL     1       1.669   9.153  18.416  0.00  0.00    +0.000 A 
ATOM     11  C   UNL     1       2.193   7.857  18.350  0.00  0.00    +0.000 A 
ATOM     12  C   UNL     1       2.205   7.062  19.491  0.00  0.00    +0.000 A 
ATOM     13  C   UNL     1       1.626   7.539  20.681  0.00  0.00    +0.000 A 
ATOM     14  C   UNL     1       1.107   8.827  20.745  0.00  0.00    +0.000 A 
ENDBRANCH   6  12
ENDBRANCH   1   7
BRANCH   4  15
ATOM     15  C   UNL     1       7.136   5.053  15.962  0.00  0.00    +0.000 C 
BRANCH  15  16
ATOM     16  C   UNL     1       6.947   4.765  14.491  0.00  0.00    +0.000 A 
ATOM     17  C   UNL     1       7.737   5.389  13.516  0.00  0.00    +0.000 A 
ATOM     18  C   UNL     1       7.659   4.987  12.179  0.00  0.00    +0.000 A 
ATOM     19  C   UNL     1       6.792   3.961  11.802  0.00  0.00    +0.000 A 
ATOM     20  C   UNL     1       5.997   3.338  12.760  0.00  0.00    +0.000 A 
ATOM     21  C   UNL     1       6.076   3.736  14.095  0.00  0.00    +0.000 A 
ENDBRANCH  15  16
ENDBRANCH   4  15
TORSDOF 4
ENDMDL
MODEL 7
REMARK VINA RESULT:      -6.4      2.883      6.577
REMARK  Name = 
REMARK  4 active torsions:
REMARK  status: ('A' for Active; 'I' for Inactive)
REMARK    1  A    between atoms: C_5  and  C_6
REMARK    2  A    between atoms: N_7  and  C_8
REMARK    3  A    between atoms: N_11  and  C_12
REMARK    4  A    between atoms: C_12  and  C_13
REMARK                            x       y       z     vdW  Elec       q    Type
REMARK                         _______ _______ _______ _____ _____    ______ ____
ROOT
ATOM      1  C   UNL     1       2.676   6.440  18.583  0.00  0.00    +0.000 C 
ATOM      2  C   UNL     1       4.146   6.031  18.623  0.00  0.00    +0.000 C 
ATOM      3  C   UNL     1       4.299   5.364  17.260  0.00  0.00    +0.000 C 
ATOM      4  N   UNL     1       3.126   4.469  17.158  0.00  0.00    +0.000 NA
ATOM      5  C   UNL     1       2.045   5.223  17.857  0.00  0.00    +0.000 C 
ENDROOT
BRANCH   1   7
ATOM      6  C   UNL     1       2.197   8.842  17.983  0.00  0.00    +0.000 C 
ATOM      7  N   UNL     1       2.708   7.684  17.838  0.00  0.00    +0.000 NA
BRANCH   6  12
ATOM      8 BR   UNL     1      -1.115  11.352  22.500  0.00  0.00    +0.000 Br
ATOM      9  C   UNL     1      -0.191  10.527  21.070  0.00  0.00    +0.000 A 
ATOM     10  C   UNL     1      -0.321  11.035  19.776  0.00  0.00    +0.000 A 
ATOM     11  C   UNL     1       0.413  10.477  18.724  0.00  0.00    +0.000 A 
ATOM     12  C   UNL     1       1.281   9.421  18.977  0.00  0.00    +0.000 A 
ATOM     13  C   UNL     1       1.358   8.874  20.270  0.00  0.00    +0.000 A 
ATOM     14  C   UNL     1       0.627   9.429  21.314  0.00  0.00    +0.000 A 
ENDBRANCH   6  12
ENDBRANCH   1   7
BRANCH   4  15
ATOM     15  C   UNL     1       3.488   3.182  17.789  0.00  0.00    +0.000 C 
BRANCH  15  16
ATOM     16  C   UNL     1       2.826   2.837  19.103  0.00  0.00    +0.000 A 
ATOM     17  C   UNL     1       3.555   2.785  20.298  0.00  0.00    +0.000 A 
ATOM     18  C   UNL     1       2.897   2.626  21.522  0.00  0.00    +0.000 A 
ATOM     19  C   UNL     1       1.507   2.518  21.564  0.00  0.00    +0.000 A 
ATOM     20  C   UNL     1       0.771   2.562  20.383  0.00  0.00    +0.000 A 
ATOM     21  C   UNL     1       1.426   2.722  19.161  0.00  0.00    +0.000 A 
ENDBRANCH  15  16
ENDBRANCH   4  15
TORSDOF 4
ENDMDL
MODEL 8
REMARK VINA RESULT:      -6.4      0.318      1.099
REMARK  Name = 
REMARK  4 active torsions:
REMARK  status: ('A' for Active; 'I' for Inactive)
REMARK    1  A    between atoms: C_5  and  C_6
REMARK    2  A    between atoms: N_7  and  C_8
REMARK    3  A    between atoms: N_11  and  C_12
REMARK    4  A    between atoms: C_12  and  C_13
REMARK                            x       y       z     vdW  Elec       q    Type
REMARK                         _______ _______ _______ _____ _____    ______ ____
ROOT
ATOM      1  C   UNL     1       2.949   3.357  19.248  0.00  0.00    +0.000 C 
ATOM      2  C   UNL     1       1.592   3.817  18.720  0.00  0.00    +0.000 C 
ATOM      3  C   UNL     1       1.900   5.262  18.345  0.00  0.00    +0.000 C 
ATOM      4  N   UNL     1       2.630   5.796  19.515  0.00  0.00    +0.000 NA
ATOM      5  C   UNL     1       3.426   4.629  19.996  0.00  0.00    +0.000 C 
ENDROOT
BRANCH   1   7
ATOM      6  C   UNL     1       4.599   3.560  17.352  0.00  0.00    +0.000 C 
ATOM      7  N   UNL     1       3.669   3.020  18.034  0.00  0.00    +0.000 NA
BRANCH   6  12
ATOM      8 BR   UNL     1       8.188   8.527  17.707  0.00  0.00    +0.000 Br
ATOM      9  C   UNL     1       7.007   7.050  17.668  0.00  0.00    +0.000 A 
ATOM     10  C   UNL     1       5.849   7.109  16.890  0.00  0.00    +0.000 A 
ATOM     11  C   UNL     1       5.006   5.996  16.797  0.00  0.00    +0.000 A 
ATOM     12  C   UNL     1       5.334   4.828  17.477  0.00  0.00    +0.000 A 
ATOM     13  C   UNL     1       6.467   4.798  18.309  0.00  0.00    +0.000 A 
ATOM     14  C   UNL     1       7.303   5.904  18.400  0.00  0.00    +0.000 A 
ENDBRANCH   6  12
ENDBRANCH   1   7
BRANCH   4  15
ATOM     15  C   UNL     1       1.627   6.297  20.478  0.00  0.00    +0.000 C 
BRANCH  15  16
ATOM     16  C   UNL     1       1.419   7.792  20.558  0.00  0.00    +0.000 A 
ATOM     17  C   UNL     1       1.499   8.604  19.420  0.00  0.00    +0.000 A 
ATOM     18  C   UNL     1       1.141   9.954  19.488  0.00  0.00    +0.000 A 
ATOM     19  C   UNL     1       0.701  10.506  20.691  0.00  0.00    +0.000 A 
ATOM     20  C   UNL     1       0.623   9.711  21.831  0.00  0.00    +0.000 A 
ATOM     21  C   UNL     1       0.977   8.363  21.765  0.00  0.00    +0.000 A 
ENDBRANCH  15  16
ENDBRANCH   4  15
TORSDOF 4
ENDMDL
MODEL 9
REMARK VINA RESULT:      -6.4      2.231      6.520
REMARK  Name = 
REMARK  4 active torsions:
REMARK  status: ('A' for Active; 'I' for Inactive)
REMARK    1  A    between atoms: C_5  and  C_6
REMARK    2  A    between atoms: N_7  and  C_8
REMARK    3  A    between atoms: N_11  and  C_12
REMARK    4  A    between atoms: C_12  and  C_13
REMARK                            x       y       z     vdW  Elec       q    Type
REMARK                         _______ _______ _______ _____ _____    ______ ____
ROOT
ATOM      1  C   UNL     1       2.752   6.198  19.371  0.00  0.00    +0.000 C 
ATOM      2  C   UNL     1       1.881   5.322  18.474  0.00  0.00    +0.000 C 
ATOM      3  C   UNL     1       2.064   3.959  19.133  0.00  0.00    +0.000 C 
ATOM      4  N   UNL     1       3.523   3.847  19.344  0.00  0.00    +0.000 NA
ATOM      5  C   UNL     1       3.941   5.245  19.658  0.00  0.00    +0.000 C 
ENDROOT
BRANCH   1   7
ATOM      6  C   UNL     1       1.247   7.505  20.916  0.00  0.00    +0.000 C 
ATOM      7  N   UNL     1       1.875   6.482  20.492  0.00  0.00    +0.000 NA
BRANCH   6  12
ATOM      8 BR   UNL     1       0.523  13.149  18.614  0.00  0.00    +0.000 Br
ATOM      9  C   UNL     1       0.851  11.442  19.360  0.00  0.00    +0.000 A 
ATOM     10  C   UNL     1       0.750  11.259  20.741  0.00  0.00    +0.000 A 
ATOM     11  C   UNL     1       0.920   9.986  21.297  0.00  0.00    +0.000 A 
ATOM     12  C   UNL     1       1.180   8.903  20.464  0.00  0.00    +0.000 A 
ATOM     13  C   UNL     1       1.344   9.107  19.082  0.00  0.00    +0.000 A 
ATOM     14  C   UNL     1       1.175  10.372  18.532  0.00  0.00    +0.000 A 
ENDBRANCH   6  12
ENDBRANCH   1   7
BRANCH   4  15
ATOM     15  C   UNL     1       4.113   3.290  18.108  0.00  0.00    +0.000 C 
BRANCH  15  16
ATOM     16  C   UNL     1       5.114   4.143  17.364  0.00  0.00    +0.000 A 
ATOM     17  C   UNL     1       6.425   4.309  17.830  0.00  0.00    +0.000 A 
ATOM     18  C   UNL     1       7.377   4.965  17.043  0.00  0.00    +0.000 A 
ATOM     19  C   UNL     1       7.031   5.460  15.786  0.00  0.00    +0.000 A 
ATOM     20  C   UNL     1       5.731   5.306  15.314  0.00  0.00    +0.000 A 
ATOM     21  C   UNL     1       4.780   4.651  16.096  0.00  0.00    +0.000 A 
ENDBRANCH  15  16
ENDBRANCH   4  15
TORSDOF 4
ENDMDL
