MODEL 1
REMARK VINA RESULT:      -7.9      0.000      0.000
REMARK  Name = 
REMARK  2 active torsions:
REMARK  status: ('A' for Active; 'I' for Inactive)
REMARK    1  A    between atoms: N_12  and  N_13
REMARK    2  A    between atoms: C_14  and  C_16
REMARK                            x       y       z     vdW  Elec       q    Type
REMARK                         _______ _______ _______ _____ _____    ______ ____
ROOT
ATOM      1  O   UNL     1       2.041   9.148  17.249  0.00  0.00    +0.000 OA
ATOM      2  C   UNL     1       1.572   9.386  18.343  0.00  0.00    +0.000 C 
ATOM      3  N   UNL     1       0.860  10.487  18.774  0.00  0.00    +0.000 N 
ATOM      4  C   UNL     1       0.517  10.354  20.117  0.00  0.00    +0.000 A 
ATOM      5  C   UNL     1      -0.195  11.243  20.895  0.00  0.00    +0.000 A 
ATOM      6  C   UNL     1      -0.414  10.887  22.232  0.00  0.00    +0.000 A 
ATOM      7  C   UNL     1       0.078   9.673  22.746  0.00  0.00    +0.000 A 
ATOM      8  F   UNL     1      -0.151   9.374  24.031  0.00  0.00    +0.000 F 
ATOM      9  C   UNL     1       0.794   8.780  21.957  0.00  0.00    +0.000 A 
ATOM     10  C   UNL     1       0.992   9.152  20.644  0.00  0.00    +0.000 A 
ATOM     11  C   UNL     1       1.676   8.462  19.558  0.00  0.00    +0.000 C 
ATOM     12  N   UNL     1       2.232   7.300  19.649  0.00  0.00    +0.000 NA
ATOM     13  H   UNL     1       0.633  11.270  18.178  0.00  0.00    +0.000 HD
ENDROOT
BRANCH  12  14
ATOM     14  N   UNL     1       2.831   6.804  18.524  0.00  0.00    +0.000 N 
ATOM     15  C   UNL     1       3.879   5.905  18.655  0.00  0.00    +0.000 C 
ATOM     16  O   UNL     1       4.318   5.492  19.726  0.00  0.00    +0.000 OA
ATOM     17  H   UNL     1       2.559   7.182  17.618  0.00  0.00    +0.000 HD
BRANCH  15  18
ATOM     18  C   UNL     1       4.522   5.458  17.387  0.00  0.00    +0.000 A 
ATOM     19  C   UNL     1       4.845   6.436  16.435  0.00  0.00    +0.000 A 
ATOM     20  C   UNL     1       5.435   6.077  15.223  0.00  0.00    +0.000 A 
ATOM     21  C   UNL     1       5.716   4.738  14.957  0.00  0.00    +0.000 A 
ATOM     22  C   UNL     1       5.419   3.761  15.906  0.00  0.00    +0.000 A 
ATOM     23  C   UNL     1       4.826   4.116  17.123  0.00  0.00    +0.000 A 
ENDBRANCH  15  18
ENDBRANCH  12  14
TORSDOF 2
ENDMDL
MODEL 2
REMARK VINA RESULT:      -7.9      0.110      1.060
REMARK  Name = 
REMARK  2 active torsions:
REMARK  status: ('A' for Active; 'I' for Inactive)
REMARK    1  A    between atoms: N_12  and  N_13
REMARK    2  A    between atoms: C_14  and  C_16
REMARK                            x       y       z     vdW  Elec       q    Type
REMARK                         _______ _______ _______ _____ _____    ______ ____
ROOT
ATOM      1  O   UNL     1       1.977   9.245  17.276  0.00  0.00    +0.000 OA
ATOM      2  C   UNL     1       1.509   9.461  18.374  0.00  0.00    +0.000 C 
ATOM      3  N   UNL     1       0.751  10.527  18.813  0.00  0.00    +0.000 N 
ATOM      4  C   UNL     1       0.428  10.378  20.160  0.00  0.00    +0.000 A 
ATOM      5  C   UNL     1      -0.317  11.233  20.946  0.00  0.00    +0.000 A 
ATOM      6  C   UNL     1      -0.505  10.867  22.285  0.00  0.00    +0.000 A 
ATOM      7  C   UNL     1       0.048   9.677  22.792  0.00  0.00    +0.000 A 
ATOM      8  F   UNL     1      -0.154   9.366  24.079  0.00  0.00    +0.000 F 
ATOM      9  C   UNL     1       0.796   8.819  21.995  0.00  0.00    +0.000 A 
ATOM     10  C   UNL     1       0.963   9.199  20.680  0.00  0.00    +0.000 A 
ATOM     11  C   UNL     1       1.668   8.543  19.588  0.00  0.00    +0.000 C 
ATOM     12  N   UNL     1       2.278   7.407  19.671  0.00  0.00    +0.000 NA
ATOM     13  H   UNL     1       0.482  11.299  18.221  0.00  0.00    +0.000 HD
ENDROOT
BRANCH  12  14
ATOM     14  N   UNL     1       2.888   6.940  18.541  0.00  0.00    +0.000 N 
ATOM     15  C   UNL     1       3.827   5.925  18.647  0.00  0.00    +0.000 C 
ATOM     16  O   UNL     1       4.156   5.383  19.700  0.00  0.00    +0.000 OA
ATOM     17  H   UNL     1       2.711   7.416  17.658  0.00  0.00    +0.000 HD
BRANCH  15  18
ATOM     18  C   UNL     1       4.494   5.512  17.380  0.00  0.00    +0.000 A 
ATOM     19  C   UNL     1       4.736   4.145  17.183  0.00  0.00    +0.000 A 
ATOM     20  C   UNL     1       5.371   3.699  16.022  0.00  0.00    +0.000 A 
ATOM     21  C   UNL     1       5.759   4.615  15.047  0.00  0.00    +0.000 A 
ATOM     22  C   UNL     1       5.502   5.974  15.224  0.00  0.00    +0.000 A 
ATOM     23  C   UNL     1       4.867   6.426  16.386  0.00  0.00    +0.000 A 
ENDBRANCH  15  18
ENDBRANCH  12  14
TORSDOF 2
ENDMDL
MODEL 3
REMARK VINA RESULT:      -7.8      5.772      8.808
REMARK  Name = 
REMARK  2 active torsions:
REMARK  status: ('A' for Active; 'I' for Inactive)
REMARK    1  A    between atoms: N_12  and  N_13
REMARK    2  A    between atoms: C_14  and  C_16
REMARK                            x       y       z     vdW  Elec       q    Type
REMARK                         _______ _______ _______ _____ _____    ______ ____
ROOT
ATOM      1  O   UNL     1       6.052   5.367  17.757  0.00  0.00    +0.000 OA
ATOM      2  C   UNL     1       6.322   5.146  16.595  0.00  0.00    +0.000 C 
ATOM      3  N   UNL     1       7.202   5.798  15.757  0.00  0.00    +0.000 N 
ATOM      4  C   UNL     1       7.196   5.217  14.491  0.00  0.00    +0.000 A 
ATOM      5  C   UNL     1       7.943   5.588  13.392  0.00  0.00    +0.000 A 
ATOM      6  C   UNL     1       7.761   4.847  12.217  0.00  0.00    +0.000 A 
ATOM      7  C   UNL     1       6.851   3.774  12.175  0.00  0.00    +0.000 A 
ATOM      8  F   UNL     1       6.705   3.094  11.030  0.00  0.00    +0.000 F 
ATOM      9  C   UNL     1       6.103   3.404  13.286  0.00  0.00    +0.000 A 
ATOM     10  C   UNL     1       6.304   4.146  14.431  0.00  0.00    +0.000 A 
ATOM     11  C   UNL     1       5.706   4.027  15.753  0.00  0.00    +0.000 C 
ATOM     12  N   UNL     1       4.842   3.131  16.101  0.00  0.00    +0.000 NA
ATOM     13  H   UNL     1       7.761   6.589  16.044  0.00  0.00    +0.000 HD
ENDROOT
BRANCH  12  14
ATOM     14  N   UNL     1       4.385   3.169  17.389  0.00  0.00    +0.000 N 
ATOM     15  C   UNL     1       3.019   3.186  17.623  0.00  0.00    +0.000 C 
ATOM     16  O   UNL     1       2.157   3.154  16.747  0.00  0.00    +0.000 OA
ATOM     17  H   UNL     1       5.060   3.284  18.144  0.00  0.00    +0.000 HD
BRANCH  15  18
ATOM     18  C   UNL     1       2.599   3.291  19.050  0.00  0.00    +0.000 A 
ATOM     19  C   UNL     1       3.292   2.521  19.995  0.00  0.00    +0.000 A 
ATOM     20  C   UNL     1       2.935   2.566  21.344  0.00  0.00    +0.000 A 
ATOM     21  C   UNL     1       1.889   3.389  21.758  0.00  0.00    +0.000 A 
ATOM     22  C   UNL     1       1.209   4.175  20.829  0.00  0.00    +0.000 A 
ATOM     23  C   UNL     1       1.563   4.132  19.476  0.00  0.00    +0.000 A 
ENDBRANCH  15  18
ENDBRANCH  12  14
TORSDOF 2
ENDMDL
MODEL 4
REMARK VINA RESULT:      -7.8      5.796      8.763
REMARK  Name = 
REMARK  2 active torsions:
REMARK  status: ('A' for Active; 'I' for Inactive)
REMARK    1  A    between atoms: N_12  and  N_13
REMARK    2  A    between atoms: C_14  and  C_16
REMARK                            x       y       z     vdW  Elec       q    Type
REMARK                         _______ _______ _______ _____ _____    ______ ____
ROOT
ATOM      1  O   UNL     1       6.120   5.315  17.816  0.00  0.00    +0.000 OA
ATOM      2  C   UNL     1       6.375   5.118  16.646  0.00  0.00    +0.000 C 
ATOM      3  N   UNL     1       7.259   5.776  15.816  0.00  0.00    +0.000 N 
ATOM      4  C   UNL     1       7.233   5.226  14.536  0.00  0.00    +0.000 A 
ATOM      5  C   UNL     1       7.976   5.612  13.440  0.00  0.00    +0.000 A 
ATOM      6  C   UNL     1       7.771   4.904  12.249  0.00  0.00    +0.000 A 
ATOM      7  C   UNL     1       6.843   3.848  12.189  0.00  0.00    +0.000 A 
ATOM      8  F   UNL     1       6.676   3.199  11.029  0.00  0.00    +0.000 F 
ATOM      9  C   UNL     1       6.098   3.462  13.297  0.00  0.00    +0.000 A 
ATOM     10  C   UNL     1       6.322   4.173  14.458  0.00  0.00    +0.000 A 
ATOM     11  C   UNL     1       5.733   4.030  15.782  0.00  0.00    +0.000 C 
ATOM     12  N   UNL     1       4.857   3.141  16.115  0.00  0.00    +0.000 NA
ATOM     13  H   UNL     1       7.834   6.549  16.118  0.00  0.00    +0.000 HD
ENDROOT
BRANCH  12  14
ATOM     14  N   UNL     1       4.412   3.155  17.408  0.00  0.00    +0.000 N 
ATOM     15  C   UNL     1       3.049   3.113  17.656  0.00  0.00    +0.000 C 
ATOM     16  O   UNL     1       2.181   3.046  16.788  0.00  0.00    +0.000 OA
ATOM     17  H   UNL     1       5.089   3.296  18.157  0.00  0.00    +0.000 HD
BRANCH  15  18
ATOM     18  C   UNL     1       2.639   3.194  19.087  0.00  0.00    +0.000 A 
ATOM     19  C   UNL     1       1.542   4.007  19.409  0.00  0.00    +0.000 A 
ATOM     20  C   UNL     1       1.120   4.135  20.733  0.00  0.00    +0.000 A 
ATOM     21  C   UNL     1       1.786   3.444  21.743  0.00  0.00    +0.000 A 
ATOM     22  C   UNL     1       2.863   2.616  21.430  0.00  0.00    +0.000 A 
ATOM     23  C   UNL     1       3.290   2.486  20.105  0.00  0.00    +0.000 A 
ENDBRANCH  15  18
ENDBRANCH  12  14
TORSDOF 2
ENDMDL
MODEL 5
REMARK VINA RESULT:      -7.8      2.825      7.842
REMARK  Name = 
REMARK  2 active torsions:
REMARK  status: ('A' for Active; 'I' for Inactive)
REMARK    1  A    between atoms: N_12  and  N_13
REMARK    2  A    between atoms: C_14  and  C_16
REMARK                            x       y       z     vdW  Elec       q    Type
REMARK                         _______ _______ _______ _____ _____    ______ ____
ROOT
ATOM      1  O   UNL     1       1.693   5.589  20.833  0.00  0.00    +0.000 OA
ATOM      2  C   UNL     1       2.397   5.386  19.866  0.00  0.00    +0.000 C 
ATOM      3  N   UNL     1       2.934   4.202  19.403  0.00  0.00    +0.000 N 
ATOM      4  C   UNL     1       3.694   4.423  18.257  0.00  0.00    +0.000 A 
ATOM      5  C   UNL     1       4.380   3.488  17.509  0.00  0.00    +0.000 A 
ATOM      6  C   UNL     1       5.080   3.956  16.390  0.00  0.00    +0.000 A 
ATOM      7  C   UNL     1       5.077   5.323  16.056  0.00  0.00    +0.000 A 
ATOM      8  F   UNL     1       5.763   5.728  14.979  0.00  0.00    +0.000 F 
ATOM      9  C   UNL     1       4.383   6.260  16.812  0.00  0.00    +0.000 A 
ATOM     10  C   UNL     1       3.698   5.773  17.905  0.00  0.00    +0.000 A 
ATOM     11  C   UNL     1       2.873   6.463  18.889  0.00  0.00    +0.000 C 
ATOM     12  N   UNL     1       2.615   7.728  18.887  0.00  0.00    +0.000 NA
ATOM     13  H   UNL     1       2.785   3.310  19.853  0.00  0.00    +0.000 HD
ENDROOT
BRANCH  12  14
ATOM     14  N   UNL     1       1.820   8.206  19.892  0.00  0.00    +0.000 N 
ATOM     15  C   UNL     1       1.136   9.397  19.706  0.00  0.00    +0.000 C 
ATOM     16  O   UNL     1       1.172  10.073  18.680  0.00  0.00    +0.000 OA
ATOM     17  H   UNL     1       1.827   7.726  20.790  0.00  0.00    +0.000 HD
BRANCH  15  18
ATOM     18  C   UNL     1       0.340   9.885  20.868  0.00  0.00    +0.000 A 
ATOM     19  C   UNL     1       0.380   9.133  22.052  0.00  0.00    +0.000 A 
ATOM     20  C   UNL     1      -0.356   9.532  23.168  0.00  0.00    +0.000 A 
ATOM     21  C   UNL     1      -1.128  10.690  23.114  0.00  0.00    +0.000 A 
ATOM     22  C   UNL     1      -1.156  11.457  21.949  0.00  0.00    +0.000 A 
ATOM     23  C   UNL     1      -0.422  11.060  20.827  0.00  0.00    +0.000 A 
ENDBRANCH  15  18
ENDBRANCH  12  14
TORSDOF 2
ENDMDL
MODEL 6
REMARK VINA RESULT:      -7.7      2.823      7.798
REMARK  Name = 
REMARK  2 active torsions:
REMARK  status: ('A' for Active; 'I' for Inactive)
REMARK    1  A    between atoms: N_12  and  N_13
REMARK    2  A    between atoms: C_14  and  C_16
REMARK                            x       y       z     vdW  Elec       q    Type
REMARK                         _______ _______ _______ _____ _____    ______ ____
ROOT
ATOM      1  O   UNL     1       1.756   5.542  20.863  0.00  0.00    +0.000 OA
ATOM      2  C   UNL     1       2.451   5.354  19.887  0.00  0.00    +0.000 C 
ATOM      3  N   UNL     1       3.008   4.183  19.416  0.00  0.00    +0.000 N 
ATOM      4  C   UNL     1       3.747   4.422  18.259  0.00  0.00    +0.000 A 
ATOM      5  C   UNL     1       4.443   3.502  17.502  0.00  0.00    +0.000 A 
ATOM      6  C   UNL     1       5.117   3.986  16.373  0.00  0.00    +0.000 A 
ATOM      7  C   UNL     1       5.078   5.352  16.040  0.00  0.00    +0.000 A 
ATOM      8  F   UNL     1       5.739   5.773  14.954  0.00  0.00    +0.000 F 
ATOM      9  C   UNL     1       4.373   6.273  16.806  0.00  0.00    +0.000 A 
ATOM     10  C   UNL     1       3.715   5.771  17.909  0.00  0.00    +0.000 A 
ATOM     11  C   UNL     1       2.889   6.442  18.903  0.00  0.00    +0.000 C 
ATOM     12  N   UNL     1       2.601   7.701  18.906  0.00  0.00    +0.000 NA
ATOM     13  H   UNL     1       2.886   3.288  19.868  0.00  0.00    +0.000 HD
ENDROOT
BRANCH  12  14
ATOM     14  N   UNL     1       1.809   8.160  19.921  0.00  0.00    +0.000 N 
ATOM     15  C   UNL     1       1.144   9.367  19.769  0.00  0.00    +0.000 C 
ATOM     16  O   UNL     1       1.193  10.072  18.763  0.00  0.00    +0.000 OA
ATOM     17  H   UNL     1       1.806   7.654  20.806  0.00  0.00    +0.000 HD
BRANCH  15  18
ATOM     18  C   UNL     1       0.351   9.832  20.942  0.00  0.00    +0.000 A 
ATOM     19  C   UNL     1      -0.408  11.003  20.797  0.00  0.00    +0.000 A 
ATOM     20  C   UNL     1      -1.159  11.496  21.865  0.00  0.00    +0.000 A 
ATOM     21  C   UNL     1      -1.165  10.817  23.082  0.00  0.00    +0.000 A 
ATOM     22  C   UNL     1      -0.433   9.640  23.228  0.00  0.00    +0.000 A 
ATOM     23  C   UNL     1       0.323   9.142  22.161  0.00  0.00    +0.000 A 
ENDBRANCH  15  18
ENDBRANCH  12  14
TORSDOF 2
ENDMDL
MODEL 7
REMARK VINA RESULT:      -7.4      1.613      1.978
REMARK  Name = 
REMARK  2 active torsions:
REMARK  status: ('A' for Active; 'I' for Inactive)
REMARK    1  A    between atoms: N_12  and  N_13
REMARK    2  A    between atoms: C_14  and  C_16
REMARK                            x       y       z     vdW  Elec       q    Type
REMARK                         _______ _______ _______ _____ _____    ______ ____
ROOT
ATOM      1  O   UNL     1       1.764   9.269  17.482  0.00  0.00    +0.000 OA
ATOM      2  C   UNL     1       1.128   9.813  18.360  0.00  0.00    +0.000 C 
ATOM      3  N   UNL     1       0.373  10.966  18.314  0.00  0.00    +0.000 N 
ATOM      4  C   UNL     1      -0.185  11.238  19.561  0.00  0.00    +0.000 A 
ATOM      5  C   UNL     1      -1.000  12.297  19.905  0.00  0.00    +0.000 A 
ATOM      6  C   UNL     1      -1.438  12.359  21.235  0.00  0.00    +0.000 A 
ATOM      7  C   UNL     1      -1.053  11.378  22.167  0.00  0.00    +0.000 A 
ATOM      8  F   UNL     1      -1.492  11.477  23.429  0.00  0.00    +0.000 F 
ATOM      9  C   UNL     1      -0.233  10.312  21.814  0.00  0.00    +0.000 A 
ATOM     10  C   UNL     1       0.180  10.272  20.499  0.00  0.00    +0.000 A 
ATOM     11  C   UNL     1       1.020   9.308  19.801  0.00  0.00    +0.000 C 
ATOM     12  N   UNL     1       1.536   8.250  20.331  0.00  0.00    +0.000 NA
ATOM     13  H   UNL     1       0.257  11.522  17.479  0.00  0.00    +0.000 HD
ENDROOT
BRANCH  12  14
ATOM     14  N   UNL     1       2.301   7.455  19.524  0.00  0.00    +0.000 N 
ATOM     15  C   UNL     1       2.363   6.093  19.774  0.00  0.00    +0.000 C 
ATOM     16  O   UNL     1       1.758   5.519  20.677  0.00  0.00    +0.000 OA
ATOM     17  H   UNL     1       2.888   7.897  18.817  0.00  0.00    +0.000 HD
BRANCH  15  18
ATOM     18  C   UNL     1       3.267   5.303  18.891  0.00  0.00    +0.000 A 
ATOM     19  C   UNL     1       4.642   5.333  19.166  0.00  0.00    +0.000 A 
ATOM     20  C   UNL     1       5.540   4.625  18.365  0.00  0.00    +0.000 A 
ATOM     21  C   UNL     1       5.068   3.874  17.290  0.00  0.00    +0.000 A 
ATOM     22  C   UNL     1       3.701   3.820  17.023  0.00  0.00    +0.000 A 
ATOM     23  C   UNL     1       2.797   4.529  17.822  0.00  0.00    +0.000 A 
ENDBRANCH  15  18
ENDBRANCH  12  14
TORSDOF 2
ENDMDL
MODEL 8
REMARK VINA RESULT:      -7.4      1.639      2.063
REMARK  Name = 
REMARK  2 active torsions:
REMARK  status: ('A' for Active; 'I' for Inactive)
REMARK    1  A    between atoms: N_12  and  N_13
REMARK    2  A    between atoms: C_14  and  C_16
REMARK                            x       y       z     vdW  Elec       q    Type
REMARK                         _______ _______ _______ _____ _____    ______ ____
ROOT
ATOM      1  O   UNL     1       1.804   9.321  17.513  0.00  0.00    +0.000 OA
ATOM      2  C   UNL     1       1.153   9.865  18.380  0.00  0.00    +0.000 C 
ATOM      3  N   UNL     1       0.408  11.025  18.323  0.00  0.00    +0.000 N 
ATOM      4  C   UNL     1      -0.176  11.294  19.559  0.00  0.00    +0.000 A 
ATOM      5  C   UNL     1      -0.990  12.357  19.890  0.00  0.00    +0.000 A 
ATOM      6  C   UNL     1      -1.458  12.415  21.209  0.00  0.00    +0.000 A 
ATOM      7  C   UNL     1      -1.105  11.425  22.144  0.00  0.00    +0.000 A 
ATOM      8  F   UNL     1      -1.572  11.520  23.396  0.00  0.00    +0.000 F 
ATOM      9  C   UNL     1      -0.286  10.355  21.804  0.00  0.00    +0.000 A 
ATOM     10  C   UNL     1       0.158  10.319  20.499  0.00  0.00    +0.000 A 
ATOM     11  C   UNL     1       1.006   9.352  19.814  0.00  0.00    +0.000 C 
ATOM     12  N   UNL     1       1.500   8.286  20.349  0.00  0.00    +0.000 NA
ATOM     13  H   UNL     1       0.317  11.587  17.489  0.00  0.00    +0.000 HD
ENDROOT
BRANCH  12  14
ATOM     14  N   UNL     1       2.278   7.490  19.555  0.00  0.00    +0.000 N 
ATOM     15  C   UNL     1       2.342   6.130  19.815  0.00  0.00    +0.000 C 
ATOM     16  O   UNL     1       1.730   5.558  20.715  0.00  0.00    +0.000 OA
ATOM     17  H   UNL     1       2.870   7.930  18.852  0.00  0.00    +0.000 HD
BRANCH  15  18
ATOM     18  C   UNL     1       3.259   5.338  18.946  0.00  0.00    +0.000 A 
ATOM     19  C   UNL     1       2.693   4.608  17.890  0.00  0.00    +0.000 A 
ATOM     20  C   UNL     1       3.499   3.836  17.052  0.00  0.00    +0.000 A 
ATOM     21  C   UNL     1       4.877   3.797  17.256  0.00  0.00    +0.000 A 
ATOM     22  C   UNL     1       5.451   4.537  18.289  0.00  0.00    +0.000 A 
ATOM     23  C   UNL     1       4.647   5.311  19.133  0.00  0.00    +0.000 A 
ENDBRANCH  15  18
ENDBRANCH  12  14
TORSDOF 2
ENDMDL
MODEL 9
REMARK VINA RESULT:      -7.2      3.013      7.899
REMARK  Name = 
REMARK  2 active torsions:
REMARK  status: ('A' for Active; 'I' for Inactive)
REMARK    1  A    between atoms: N_12  and  N_13
REMARK    2  A    between atoms: C_14  and  C_16
REMARK                            x       y       z     vdW  Elec       q    Type
REMARK                         _______ _______ _______ _____ _____    ______ ____
ROOT
ATOM      1  O   UNL     1       2.668   5.115  19.647  0.00  0.00    +0.000 OA
ATOM      2  C   UNL     1       3.389   4.962  18.683  0.00  0.00    +0.000 C 
ATOM      3  N   UNL     1       4.009   3.820  18.221  0.00  0.00    +0.000 N 
ATOM      4  C   UNL     1       4.758   4.095  17.079  0.00  0.00    +0.000 A 
ATOM      5  C   UNL     1       5.510   3.211  16.333  0.00  0.00    +0.000 A 
ATOM      6  C   UNL     1       6.183   3.729  15.219  0.00  0.00    +0.000 A 
ATOM      7  C   UNL     1       6.087   5.093  14.887  0.00  0.00    +0.000 A 
ATOM      8  F   UNL     1       6.749   5.547  13.815  0.00  0.00    +0.000 F 
ATOM      9  C   UNL     1       5.326   5.979  15.641  0.00  0.00    +0.000 A 
ATOM     10  C   UNL     1       4.670   5.443  16.730  0.00  0.00    +0.000 A 
ATOM     11  C   UNL     1       3.795   6.072  17.711  0.00  0.00    +0.000 C 
ATOM     12  N   UNL     1       3.450   7.316  17.710  0.00  0.00    +0.000 NA
ATOM     13  H   UNL     1       3.919   2.919  18.668  0.00  0.00    +0.000 HD
ENDROOT
BRANCH  12  14
ATOM     14  N   UNL     1       2.619   7.736  18.711  0.00  0.00    +0.000 N 
ATOM     15  C   UNL     1       1.880   8.896  18.537  0.00  0.00    +0.000 C 
ATOM     16  O   UNL     1       1.897   9.592  17.524  0.00  0.00    +0.000 OA
ATOM     17  H   UNL     1       2.637   7.241  19.601  0.00  0.00    +0.000 HD
BRANCH  15  18
ATOM     18  C   UNL     1       1.045   9.323  19.696  0.00  0.00    +0.000 A 
ATOM     19  C   UNL     1       0.208  10.436  19.525  0.00  0.00    +0.000 A 
ATOM     20  C   UNL     1      -0.586  10.891  20.579  0.00  0.00    +0.000 A 
ATOM     21  C   UNL     1      -0.557  10.233  21.806  0.00  0.00    +0.000 A 
ATOM     22  C   UNL     1       0.255   9.112  21.978  0.00  0.00    +0.000 A 
ATOM     23  C   UNL     1       1.054   8.652  20.925  0.00  0.00    +0.000 A 
ENDBRANCH  15  18
ENDBRANCH  12  14
TORSDOF 2
ENDMDL
