MODEL 1
REMARK VINA RESULT:      -7.4      0.000      0.000
REMARK  Name = 
REMARK  8 active torsions:
REMARK  status: ('A' for Active; 'I' for Inactive)
REMARK    1  A    between atoms: C_1  and  C_2
REMARK    2  A    between atoms: C_2  and  O_3
REMARK    3  A    between atoms: O_3  and  C_4
REMARK    4  A    between atoms: N_6  and  C_7
REMARK    5  A    between atoms: N_11  and  C_12
REMARK    6  A    between atoms: C_12  and  C_13
REMARK    7  A    between atoms: C_13  and  C_14
REMARK    8  A    between atoms: C_21  and  N_22
REMARK                            x       y       z     vdW  Elec       q    Type
REMARK                         _______ _______ _______ _____ _____    ______ ____
ROOT
ATOM      1  C   UNL     1       3.726   5.059  18.054  0.00  0.00    +0.000 A 
ATOM      2  C   UNL     1       3.845   6.329  17.507  0.00  0.00    +0.000 A 
ATOM      3  C   UNL     1       4.837   6.581  16.567  0.00  0.00    +0.000 A 
ATOM      4  C   UNL     1       5.676   5.549  16.166  0.00  0.00    +0.000 A 
ATOM      5  N   UNL     1       6.546   5.819  15.100  0.00  0.00    +0.000 N 
ATOM      6  N   UNL     1       5.617   4.325  16.734  0.00  0.00    +0.000 NA
ATOM      7  C   UNL     1       4.673   4.100  17.672  0.00  0.00    +0.000 A 
ATOM      8  H   UNL     1       7.185   6.567  15.351  0.00  0.00    +0.000 HD
ENDROOT
BRANCH   1  11
ATOM      9  C   UNL     1       1.612   3.948  18.709  0.00  0.00    +0.000 C 
ATOM     10  O   UNL     1       1.349   3.385  17.653  0.00  0.00    +0.000 OA
ATOM     11  N   UNL     1       2.715   4.711  18.974  0.00  0.00    +0.000 N 
ATOM     12  H   UNL     1       2.818   5.043  19.924  0.00  0.00    +0.000 HD
BRANCH   9  13
ATOM     13  O   UNL     1       0.807   3.915  19.800  0.00  0.00    +0.000 OA
BRANCH  13  15
ATOM     14  C   UNL     1       1.648   2.595  21.615  0.00  0.00    +0.000 C 
ATOM     15  C   UNL     1       1.518   3.997  21.048  0.00  0.00    +0.000 C 
ENDBRANCH  13  15
ENDBRANCH   9  13
ENDBRANCH   1  11
BRANCH   7  16
ATOM     16  N   UNL     1       4.664   2.815  18.241  0.00  0.00    +0.000 N 
ATOM     17  H   UNL     1       5.569   2.713  18.698  0.00  0.00    +0.000 HD
ATOM     18  H   UNL     1       4.555   2.118  17.515  0.00  0.00    +0.000 HD
ENDBRANCH   7  16
BRANCH   5  19
ATOM     19  C   UNL     1       7.169   4.654  14.482  0.00  0.00    +0.000 C 
BRANCH  19  20
ATOM     20  C   UNL     1       7.261   4.853  12.964  0.00  0.00    +0.000 C 
BRANCH  20  21
ATOM     21  C   UNL     1       6.721   3.659  12.215  0.00  0.00    +0.000 A 
ATOM     22  C   UNL     1       5.336   3.459  12.120  0.00  0.00    +0.000 A 
ATOM     23  C   UNL     1       4.828   2.330  11.477  0.00  0.00    +0.000 A 
ATOM     24  C   UNL     1       5.697   1.391  10.927  0.00  0.00    +0.000 A 
ATOM     25  C   UNL     1       7.075   1.582  11.014  0.00  0.00    +0.000 A 
ATOM     26  C   UNL     1       7.587   2.711  11.657  0.00  0.00    +0.000 A 
ENDBRANCH  20  21
ENDBRANCH  19  20
ENDBRANCH   5  19
TORSDOF 7
ENDMDL
MODEL 2
REMARK VINA RESULT:      -7.4      4.306      6.885
REMARK  Name = 
REMARK  8 active torsions:
REMARK  status: ('A' for Active; 'I' for Inactive)
REMARK    1  A    between atoms: C_1  and  C_2
REMARK    2  A    between atoms: C_2  and  O_3
REMARK    3  A    between atoms: O_3  and  C_4
REMARK    4  A    between atoms: N_6  and  C_7
REMARK    5  A    between atoms: N_11  and  C_12
REMARK    6  A    between atoms: C_12  and  C_13
REMARK    7  A    between atoms: C_13  and  C_14
REMARK    8  A    between atoms: C_21  and  N_22
REMARK                            x       y       z     vdW  Elec       q    Type
REMARK                         _______ _______ _______ _____ _____    ______ ____
ROOT
ATOM      1  C   UNL     1       4.899   4.257  17.624  0.00  0.00    +0.000 A 
ATOM      2  C   UNL     1       5.624   4.267  16.441  0.00  0.00    +0.000 A 
ATOM      3  C   UNL     1       6.524   5.297  16.197  0.00  0.00    +0.000 A 
ATOM      4  C   UNL     1       6.706   6.285  17.155  0.00  0.00    +0.000 A 
ATOM      5  N   UNL     1       7.742   7.205  16.927  0.00  0.00    +0.000 N 
ATOM      6  N   UNL     1       5.964   6.327  18.283  0.00  0.00    +0.000 NA
ATOM      7  C   UNL     1       5.066   5.342  18.494  0.00  0.00    +0.000 A 
ATOM      8  H   UNL     1       7.565   7.724  16.073  0.00  0.00    +0.000 HD
ENDROOT
BRANCH   1  11
ATOM      9  C   UNL     1       2.684   3.149  17.623  0.00  0.00    +0.000 C 
ATOM     10  O   UNL     1       2.071   3.933  16.908  0.00  0.00    +0.000 OA
ATOM     11  N   UNL     1       4.005   3.220  17.968  0.00  0.00    +0.000 N 
ATOM     12  H   UNL     1       4.374   2.449  18.508  0.00  0.00    +0.000 HD
BRANCH   9  13
ATOM     13  O   UNL     1       2.115   2.072  18.219  0.00  0.00    +0.000 OA
BRANCH  13  15
ATOM     14  C   UNL     1       0.896   3.110  20.003  0.00  0.00    +0.000 C 
ATOM     15  C   UNL     1       2.039   2.176  19.652  0.00  0.00    +0.000 C 
ENDBRANCH  13  15
ENDBRANCH   9  13
ENDBRANCH   1  11
BRANCH   7  16
ATOM     16  N   UNL     1       4.311   5.440  19.675  0.00  0.00    +0.000 N 
ATOM     17  H   UNL     1       4.941   5.840  20.368  0.00  0.00    +0.000 HD
ATOM     18  H   UNL     1       4.005   4.520  19.965  0.00  0.00    +0.000 HD
ENDBRANCH   7  16
BRANCH   5  19
ATOM     19  C   UNL     1       8.132   8.014  18.076  0.00  0.00    +0.000 C 
BRANCH  19  20
ATOM     20  C   UNL     1       8.022   9.504  17.727  0.00  0.00    +0.000 C 
BRANCH  20  21
ATOM     21  C   UNL     1       9.072  10.318  18.443  0.00  0.00    +0.000 A 
ATOM     22  C   UNL     1      10.050  11.003  17.708  0.00  0.00    +0.000 A 
ATOM     23  C   UNL     1      11.057  11.714  18.361  0.00  0.00    +0.000 A 
ATOM     24  C   UNL     1      11.097  11.745  19.753  0.00  0.00    +0.000 A 
ATOM     25  C   UNL     1      10.128  11.069  20.493  0.00  0.00    +0.000 A 
ATOM     26  C   UNL     1       9.119  10.357  19.842  0.00  0.00    +0.000 A 
ENDBRANCH  20  21
ENDBRANCH  19  20
ENDBRANCH   5  19
TORSDOF 7
ENDMDL
MODEL 3
REMARK VINA RESULT:      -7.3      5.212      7.595
REMARK  Name = 
REMARK  8 active torsions:
REMARK  status: ('A' for Active; 'I' for Inactive)
REMARK    1  A    between atoms: C_1  and  C_2
REMARK    2  A    between atoms: C_2  and  O_3
REMARK    3  A    between atoms: O_3  and  C_4
REMARK    4  A    between atoms: N_6  and  C_7
REMARK    5  A    between atoms: N_11  and  C_12
REMARK    6  A    between atoms: C_12  and  C_13
REMARK    7  A    between atoms: C_13  and  C_14
REMARK    8  A    between atoms: C_21  and  N_22
REMARK                            x       y       z     vdW  Elec       q    Type
REMARK                         _______ _______ _______ _____ _____    ______ ____
ROOT
ATOM      1  C   UNL     1       5.762   5.343  17.661  0.00  0.00    +0.000 A 
ATOM      2  C   UNL     1       6.621   5.071  18.717  0.00  0.00    +0.000 A 
ATOM      3  C   UNL     1       7.642   5.964  19.017  0.00  0.00    +0.000 A 
ATOM      4  C   UNL     1       7.769   7.131  18.275  0.00  0.00    +0.000 A 
ATOM      5  N   UNL     1       8.711   8.069  18.726  0.00  0.00    +0.000 N 
ATOM      6  N   UNL     1       6.984   7.382  17.205  0.00  0.00    +0.000 NA
ATOM      7  C   UNL     1       6.017   6.491  16.898  0.00  0.00    +0.000 A 
ATOM      8  H   UNL     1       9.642   7.666  18.705  0.00  0.00    +0.000 HD
ENDROOT
BRANCH   1  11
ATOM      9  C   UNL     1       3.350   4.791  17.543  0.00  0.00    +0.000 C 
ATOM     10  O   UNL     1       2.887   5.828  18.003  0.00  0.00    +0.000 OA
ATOM     11  N   UNL     1       4.672   4.513  17.325  0.00  0.00    +0.000 N 
ATOM     12  H   UNL     1       4.879   3.636  16.868  0.00  0.00    +0.000 HD
BRANCH   9  13
ATOM     13  O   UNL     1       2.596   3.720  17.194  0.00  0.00    +0.000 OA
BRANCH  13  15
ATOM     14  C   UNL     1       2.003   2.132  18.888  0.00  0.00    +0.000 C 
ATOM     15  C   UNL     1       3.012   2.490  17.813  0.00  0.00    +0.000 C 
ENDBRANCH  13  15
ENDBRANCH   9  13
ENDBRANCH   1  11
BRANCH   7  16
ATOM     16  N   UNL     1       5.238   6.791  15.769  0.00  0.00    +0.000 N 
ATOM     17  H   UNL     1       5.418   7.774  15.568  0.00  0.00    +0.000 HD
ATOM     18  H   UNL     1       4.258   6.648  15.979  0.00  0.00    +0.000 HD
ENDBRANCH   7  16
BRANCH   5  19
ATOM     19  C   UNL     1       8.600   9.404  18.148  0.00  0.00    +0.000 C 
BRANCH  19  20
ATOM     20  C   UNL     1       8.913  10.462  19.214  0.00  0.00    +0.000 C 
BRANCH  20  21
ATOM     21  C   UNL     1       9.932  11.459  18.720  0.00  0.00    +0.000 A 
ATOM     22  C   UNL     1       9.575  12.408  17.752  0.00  0.00    +0.000 A 
ATOM     23  C   UNL     1      10.523  13.298  17.250  0.00  0.00    +0.000 A 
ATOM     24  C   UNL     1      11.838  13.246  17.707  0.00  0.00    +0.000 A 
ATOM     25  C   UNL     1      12.204  12.309  18.671  0.00  0.00    +0.000 A 
ATOM     26  C   UNL     1      11.255  11.416  19.176  0.00  0.00    +0.000 A 
ENDBRANCH  20  21
ENDBRANCH  19  20
ENDBRANCH   5  19
TORSDOF 7
ENDMDL
MODEL 4
REMARK VINA RESULT:      -7.3      5.172      7.649
REMARK  Name = 
REMARK  8 active torsions:
REMARK  status: ('A' for Active; 'I' for Inactive)
REMARK    1  A    between atoms: C_1  and  C_2
REMARK    2  A    between atoms: C_2  and  O_3
REMARK    3  A    between atoms: O_3  and  C_4
REMARK    4  A    between atoms: N_6  and  C_7
REMARK    5  A    between atoms: N_11  and  C_12
REMARK    6  A    between atoms: C_12  and  C_13
REMARK    7  A    between atoms: C_13  and  C_14
REMARK    8  A    between atoms: C_21  and  N_22
REMARK                            x       y       z     vdW  Elec       q    Type
REMARK                         _______ _______ _______ _____ _____    ______ ____
ROOT
ATOM      1  C   UNL     1       5.822   5.381  17.695  0.00  0.00    +0.000 A 
ATOM      2  C   UNL     1       6.744   5.090  18.691  0.00  0.00    +0.000 A 
ATOM      3  C   UNL     1       7.752   6.001  18.980  0.00  0.00    +0.000 A 
ATOM      4  C   UNL     1       7.804   7.204  18.288  0.00  0.00    +0.000 A 
ATOM      5  N   UNL     1       8.740   8.150  18.733  0.00  0.00    +0.000 N 
ATOM      6  N   UNL     1       6.956   7.477  17.274  0.00  0.00    +0.000 NA
ATOM      7  C   UNL     1       6.002   6.570  16.976  0.00  0.00    +0.000 A 
ATOM      8  H   UNL     1       9.680   7.779  18.646  0.00  0.00    +0.000 HD
ENDROOT
BRANCH   1  11
ATOM      9  C   UNL     1       3.559   4.442  18.061  0.00  0.00    +0.000 C 
ATOM     10  O   UNL     1       3.215   5.124  19.019  0.00  0.00    +0.000 OA
ATOM     11  N   UNL     1       4.741   4.532  17.378  0.00  0.00    +0.000 N 
ATOM     12  H   UNL     1       4.836   3.943  16.561  0.00  0.00    +0.000 HD
BRANCH   9  13
ATOM     13  O   UNL     1       2.804   3.446  17.536  0.00  0.00    +0.000 OA
BRANCH  13  15
ATOM     14  C   UNL     1       1.062   2.332  18.747  0.00  0.00    +0.000 C 
ATOM     15  C   UNL     1       1.410   3.530  17.884  0.00  0.00    +0.000 C 
ENDBRANCH  13  15
ENDBRANCH   9  13
ENDBRANCH   1  11
BRANCH   7  16
ATOM     16  N   UNL     1       5.154   6.896  15.903  0.00  0.00    +0.000 N 
ATOM     17  H   UNL     1       5.233   6.119  15.249  0.00  0.00    +0.000 HD
ATOM     18  H   UNL     1       5.464   7.756  15.469  0.00  0.00    +0.000 HD
ENDBRANCH   7  16
BRANCH   5  19
ATOM     19  C   UNL     1       8.558   9.506  18.226  0.00  0.00    +0.000 C 
BRANCH  19  20
ATOM     20  C   UNL     1       9.159  10.517  19.210  0.00  0.00    +0.000 C 
BRANCH  20  21
ATOM     21  C   UNL     1       9.767  11.695  18.489  0.00  0.00    +0.000 A 
ATOM     22  C   UNL     1      11.019  11.570  17.871  0.00  0.00    +0.000 A 
ATOM     23  C   UNL     1      11.613  12.668  17.249  0.00  0.00    +0.000 A 
ATOM     24  C   UNL     1      10.965  13.900  17.240  0.00  0.00    +0.000 A 
ATOM     25  C   UNL     1       9.718  14.034  17.849  0.00  0.00    +0.000 A 
ATOM     26  C   UNL     1       9.120  12.937  18.473  0.00  0.00    +0.000 A 
ENDBRANCH  20  21
ENDBRANCH  19  20
ENDBRANCH   5  19
TORSDOF 7
ENDMDL
MODEL 5
REMARK VINA RESULT:      -7.2      0.601      1.185
REMARK  Name = 
REMARK  8 active torsions:
REMARK  status: ('A' for Active; 'I' for Inactive)
REMARK    1  A    between atoms: C_1  and  C_2
REMARK    2  A    between atoms: C_2  and  O_3
REMARK    3  A    between atoms: O_3  and  C_4
REMARK    4  A    between atoms: N_6  and  C_7
REMARK    5  A    between atoms: N_11  and  C_12
REMARK    6  A    between atoms: C_12  and  C_13
REMARK    7  A    between atoms: C_13  and  C_14
REMARK    8  A    between atoms: C_21  and  N_22
REMARK                            x       y       z     vdW  Elec       q    Type
REMARK                         _______ _______ _______ _____ _____    ______ ____
ROOT
ATOM      1  C   UNL     1       3.894   5.333  18.422  0.00  0.00    +0.000 A 
ATOM      2  C   UNL     1       3.785   6.484  17.654  0.00  0.00    +0.000 A 
ATOM      3  C   UNL     1       4.666   6.691  16.601  0.00  0.00    +0.000 A 
ATOM      4  C   UNL     1       5.624   5.728  16.312  0.00  0.00    +0.000 A 
ATOM      5  N   UNL     1       6.376   5.914  15.142  0.00  0.00    +0.000 N 
ATOM      6  N   UNL     1       5.786   4.634  17.086  0.00  0.00    +0.000 NA
ATOM      7  C   UNL     1       4.949   4.458  18.130  0.00  0.00    +0.000 A 
ATOM      8  H   UNL     1       6.909   6.776  15.202  0.00  0.00    +0.000 HD
ENDROOT
BRANCH   1  11
ATOM      9  C   UNL     1       1.776   4.443  19.348  0.00  0.00    +0.000 C 
ATOM     10  O   UNL     1       1.265   4.032  18.313  0.00  0.00    +0.000 OA
ATOM     11  N   UNL     1       3.007   5.025  19.475  0.00  0.00    +0.000 N 
ATOM     12  H   UNL     1       3.309   5.240  20.416  0.00  0.00    +0.000 HD
BRANCH   9  13
ATOM     13  O   UNL     1       1.163   4.402  20.557  0.00  0.00    +0.000 OA
BRANCH  13  15
ATOM     14  C   UNL     1       1.880   2.336  21.537  0.00  0.00    +0.000 C 
ATOM     15  C   UNL     1       1.982   3.849  21.603  0.00  0.00    +0.000 C 
ENDBRANCH  13  15
ENDBRANCH   9  13
ENDBRANCH   1  11
BRANCH   7  16
ATOM     16  N   UNL     1       5.169   3.311  18.911  0.00  0.00    +0.000 N 
ATOM     17  H   UNL     1       5.816   3.602  19.643  0.00  0.00    +0.000 HD
ATOM     18  H   UNL     1       5.582   2.582  18.344  0.00  0.00    +0.000 HD
ENDBRANCH   7  16
BRANCH   5  19
ATOM     19  C   UNL     1       7.127   4.751  14.682  0.00  0.00    +0.000 C 
BRANCH  19  20
ATOM     20  C   UNL     1       7.332   4.827  13.164  0.00  0.00    +0.000 C 
BRANCH  20  21
ATOM     21  C   UNL     1       6.517   3.782  12.443  0.00  0.00    +0.000 A 
ATOM     22  C   UNL     1       7.156   2.700  11.821  0.00  0.00    +0.000 A 
ATOM     23  C   UNL     1       6.417   1.758  11.106  0.00  0.00    +0.000 A 
ATOM     24  C   UNL     1       5.034   1.889  11.005  0.00  0.00    +0.000 A 
ATOM     25  C   UNL     1       4.388   2.959  11.623  0.00  0.00    +0.000 A 
ATOM     26  C   UNL     1       5.126   3.904  12.338  0.00  0.00    +0.000 A 
ENDBRANCH  20  21
ENDBRANCH  19  20
ENDBRANCH   5  19
TORSDOF 7
ENDMDL
MODEL 6
REMARK VINA RESULT:      -7.2      4.563      7.637
REMARK  Name = 
REMARK  8 active torsions:
REMARK  status: ('A' for Active; 'I' for Inactive)
REMARK    1  A    between atoms: C_1  and  C_2
REMARK    2  A    between atoms: C_2  and  O_3
REMARK    3  A    between atoms: O_3  and  C_4
REMARK    4  A    between atoms: N_6  and  C_7
REMARK    5  A    between atoms: N_11  and  C_12
REMARK    6  A    between atoms: C_12  and  C_13
REMARK    7  A    between atoms: C_13  and  C_14
REMARK    8  A    between atoms: C_21  and  N_22
REMARK                            x       y       z     vdW  Elec       q    Type
REMARK                         _______ _______ _______ _____ _____    ______ ____
ROOT
ATOM      1  C   UNL     1       7.880   6.978  18.281  0.00  0.00    +0.000 A 
ATOM      2  C   UNL     1       7.422   7.173  16.986  0.00  0.00    +0.000 A 
ATOM      3  C   UNL     1       6.636   6.200  16.383  0.00  0.00    +0.000 A 
ATOM      4  C   UNL     1       6.294   5.058  17.097  0.00  0.00    +0.000 A 
ATOM      5  N   UNL     1       5.368   4.191  16.498  0.00  0.00    +0.000 N 
ATOM      6  N   UNL     1       6.783   4.822  18.333  0.00  0.00    +0.000 NA
ATOM      7  C   UNL     1       7.576   5.757  18.897  0.00  0.00    +0.000 A 
ATOM      8  H   UNL     1       5.741   3.829  15.626  0.00  0.00    +0.000 HD
ENDROOT
BRANCH   1  11
ATOM      9  C   UNL     1       8.682   9.281  18.715  0.00  0.00    +0.000 C 
ATOM     10  O   UNL     1       8.023   9.881  17.874  0.00  0.00    +0.000 OA
ATOM     11  N   UNL     1       8.640   7.940  18.980  0.00  0.00    +0.000 N 
ATOM     12  H   UNL     1       9.196   7.616  19.760  0.00  0.00    +0.000 HD
BRANCH   9  13
ATOM     13  O   UNL     1       9.601   9.875  19.516  0.00  0.00    +0.000 OA
BRANCH  13  15
ATOM     14  C   UNL     1      10.581  11.845  20.465  0.00  0.00    +0.000 C 
ATOM     15  C   UNL     1       9.451  11.303  19.609  0.00  0.00    +0.000 C 
ENDBRANCH  13  15
ENDBRANCH   9  13
ENDBRANCH   1  11
BRANCH   7  16
ATOM     16  N   UNL     1       8.070   5.456  20.178  0.00  0.00    +0.000 N 
ATOM     17  H   UNL     1       7.259   5.482  20.794  0.00  0.00    +0.000 HD
ATOM     18  H   UNL     1       8.749   6.152  20.458  0.00  0.00    +0.000 HD
ENDBRANCH   7  16
BRANCH   5  19
ATOM     19  C   UNL     1       4.776   3.192  17.382  0.00  0.00    +0.000 C 
BRANCH  19  20
ATOM     20  C   UNL     1       3.259   3.137  17.167  0.00  0.00    +0.000 C 
BRANCH  20  21
ATOM     21  C   UNL     1       2.509   3.563  18.405  0.00  0.00    +0.000 A 
ATOM     22  C   UNL     1       1.524   2.727  18.951  0.00  0.00    +0.000 A 
ATOM     23  C   UNL     1       0.789   3.135  20.064  0.00  0.00    +0.000 A 
ATOM     24  C   UNL     1       1.027   4.381  20.639  0.00  0.00    +0.000 A 
ATOM     25  C   UNL     1       2.006   5.218  20.106  0.00  0.00    +0.000 A 
ATOM     26  C   UNL     1       2.744   4.812  18.991  0.00  0.00    +0.000 A 
ENDBRANCH  20  21
ENDBRANCH  19  20
ENDBRANCH   5  19
TORSDOF 7
ENDMDL
MODEL 7
REMARK VINA RESULT:      -7.1      4.278      7.048
REMARK  Name = 
REMARK  8 active torsions:
REMARK  status: ('A' for Active; 'I' for Inactive)
REMARK    1  A    between atoms: C_1  and  C_2
REMARK    2  A    between atoms: C_2  and  O_3
REMARK    3  A    between atoms: O_3  and  C_4
REMARK    4  A    between atoms: N_6  and  C_7
REMARK    5  A    between atoms: N_11  and  C_12
REMARK    6  A    between atoms: C_12  and  C_13
REMARK    7  A    between atoms: C_13  and  C_14
REMARK    8  A    between atoms: C_21  and  N_22
REMARK                            x       y       z     vdW  Elec       q    Type
REMARK                         _______ _______ _______ _____ _____    ______ ____
ROOT
ATOM      1  C   UNL     1       5.126   4.313  17.793  0.00  0.00    +0.000 A 
ATOM      2  C   UNL     1       6.191   4.122  16.924  0.00  0.00    +0.000 A 
ATOM      3  C   UNL     1       6.981   5.204  16.559  0.00  0.00    +0.000 A 
ATOM      4  C   UNL     1       6.711   6.458  17.093  0.00  0.00    +0.000 A 
ATOM      5  N   UNL     1       7.637   7.475  16.818  0.00  0.00    +0.000 N 
ATOM      6  N   UNL     1       5.642   6.675  17.888  0.00  0.00    +0.000 NA
ATOM      7  C   UNL     1       4.858   5.624  18.209  0.00  0.00    +0.000 A 
ATOM      8  H   UNL     1       7.685   7.643  15.818  0.00  0.00    +0.000 HD
ENDROOT
BRANCH   1  11
ATOM      9  C   UNL     1       3.098   2.893  17.733  0.00  0.00    +0.000 C 
ATOM     10  O   UNL     1       2.549   3.374  16.748  0.00  0.00    +0.000 OA
ATOM     11  N   UNL     1       4.309   3.258  18.251  0.00  0.00    +0.000 N 
ATOM     12  H   UNL     1       4.653   2.707  19.026  0.00  0.00    +0.000 HD
BRANCH   9  13
ATOM     13  O   UNL     1       2.553   1.911  18.493  0.00  0.00    +0.000 OA
BRANCH  13  15
ATOM     14  C   UNL     1       1.143   3.208  19.932  0.00  0.00    +0.000 C 
ATOM     15  C   UNL     1       1.179   2.147  18.847  0.00  0.00    +0.000 C 
ENDBRANCH  13  15
ENDBRANCH   9  13
ENDBRANCH   1  11
BRANCH   7  16
ATOM     16  N   UNL     1       3.751   5.907  19.027  0.00  0.00    +0.000 N 
ATOM     17  H   UNL     1       4.050   6.670  19.633  0.00  0.00    +0.000 HD
ATOM     18  H   UNL     1       3.513   5.092  19.577  0.00  0.00    +0.000 HD
ENDBRANCH   7  16
BRANCH   5  19
ATOM     19  C   UNL     1       7.522   8.673  17.643  0.00  0.00    +0.000 C 
BRANCH  19  20
ATOM     20  C   UNL     1       8.728   8.777  18.585  0.00  0.00    +0.000 C 
BRANCH  20  21
ATOM     21  C   UNL     1       9.073  10.214  18.886  0.00  0.00    +0.000 A 
ATOM     22  C   UNL     1       9.602  10.562  20.137  0.00  0.00    +0.000 A 
ATOM     23  C   UNL     1       9.872  11.895  20.445  0.00  0.00    +0.000 A 
ATOM     24  C   UNL     1       9.615  12.893  19.508  0.00  0.00    +0.000 A 
ATOM     25  C   UNL     1       9.093  12.557  18.260  0.00  0.00    +0.000 A 
ATOM     26  C   UNL     1       8.820  11.223  17.949  0.00  0.00    +0.000 A 
ENDBRANCH  20  21
ENDBRANCH  19  20
ENDBRANCH   5  19
TORSDOF 7
ENDMDL
MODEL 8
REMARK VINA RESULT:      -7.1      4.588      7.060
REMARK  Name = 
REMARK  8 active torsions:
REMARK  status: ('A' for Active; 'I' for Inactive)
REMARK    1  A    between atoms: C_1  and  C_2
REMARK    2  A    between atoms: C_2  and  O_3
REMARK    3  A    between atoms: O_3  and  C_4
REMARK    4  A    between atoms: N_6  and  C_7
REMARK    5  A    between atoms: N_11  and  C_12
REMARK    6  A    between atoms: C_12  and  C_13
REMARK    7  A    between atoms: C_13  and  C_14
REMARK    8  A    between atoms: C_21  and  N_22
REMARK                            x       y       z     vdW  Elec       q    Type
REMARK                         _______ _______ _______ _____ _____    ______ ____
ROOT
ATOM      1  C   UNL     1       4.997   4.812  17.617  0.00  0.00    +0.000 A 
ATOM      2  C   UNL     1       6.294   4.439  17.295  0.00  0.00    +0.000 A 
ATOM      3  C   UNL     1       7.260   5.417  17.095  0.00  0.00    +0.000 A 
ATOM      4  C   UNL     1       6.920   6.754  17.251  0.00  0.00    +0.000 A 
ATOM      5  N   UNL     1       7.969   7.685  17.198  0.00  0.00    +0.000 N 
ATOM      6  N   UNL     1       5.650   7.139  17.500  0.00  0.00    +0.000 NA
ATOM      7  C   UNL     1       4.710   6.183  17.657  0.00  0.00    +0.000 A 
ATOM      8  H   UNL     1       8.419   7.653  16.289  0.00  0.00    +0.000 HD
ENDROOT
BRANCH   1  11
ATOM      9  C   UNL     1       3.950   2.983  18.917  0.00  0.00    +0.000 C 
ATOM     10  O   UNL     1       4.775   2.882  19.817  0.00  0.00    +0.000 OA
ATOM     11  N   UNL     1       3.973   3.879  17.885  0.00  0.00    +0.000 N 
ATOM     12  H   UNL     1       3.172   3.878  17.267  0.00  0.00    +0.000 HD
BRANCH   9  13
ATOM     13  O   UNL     1       2.867   2.175  18.795  0.00  0.00    +0.000 OA
BRANCH  13  15
ATOM     14  C   UNL     1       1.097   2.992  20.188  0.00  0.00    +0.000 C 
ATOM     15  C   UNL     1       1.615   2.884  18.767  0.00  0.00    +0.000 C 
ENDBRANCH  13  15
ENDBRANCH   9  13
ENDBRANCH   1  11
BRANCH   7  16
ATOM     16  N   UNL     1       3.403   6.637  17.901  0.00  0.00    +0.000 N 
ATOM     17  H   UNL     1       2.953   6.672  16.987  0.00  0.00    +0.000 HD
ATOM     18  H   UNL     1       3.431   7.559  18.317  0.00  0.00    +0.000 HD
ENDBRANCH   7  16
BRANCH   5  19
ATOM     19  C   UNL     1       7.652   9.022  17.687  0.00  0.00    +0.000 C 
BRANCH  19  20
ATOM     20  C   UNL     1       8.755   9.506  18.637  0.00  0.00    +0.000 C 
BRANCH  20  21
ATOM     21  C   UNL     1       9.336  10.823  18.184  0.00  0.00    +0.000 A 
ATOM     22  C   UNL     1      10.726  10.988  18.110  0.00  0.00    +0.000 A 
ATOM     23  C   UNL     1      11.274  12.218  17.745  0.00  0.00    +0.000 A 
ATOM     24  C   UNL     1      10.439  13.293  17.452  0.00  0.00    +0.000 A 
ATOM     25  C   UNL     1       9.055  13.138  17.519  0.00  0.00    +0.000 A 
ATOM     26  C   UNL     1       8.504  11.909  17.885  0.00  0.00    +0.000 A 
ENDBRANCH  20  21
ENDBRANCH  19  20
ENDBRANCH   5  19
TORSDOF 7
ENDMDL
MODEL 9
REMARK VINA RESULT:      -7.1      5.180      7.670
REMARK  Name = 
REMARK  8 active torsions:
REMARK  status: ('A' for Active; 'I' for Inactive)
REMARK    1  A    between atoms: C_1  and  C_2
REMARK    2  A    between atoms: C_2  and  O_3
REMARK    3  A    between atoms: O_3  and  C_4
REMARK    4  A    between atoms: N_6  and  C_7
REMARK    5  A    between atoms: N_11  and  C_12
REMARK    6  A    between atoms: C_12  and  C_13
REMARK    7  A    between atoms: C_13  and  C_14
REMARK    8  A    between atoms: C_21  and  N_22
REMARK                            x       y       z     vdW  Elec       q    Type
REMARK                         _______ _______ _______ _____ _____    ______ ____
ROOT
ATOM      1  C   UNL     1       5.944   5.052  17.754  0.00  0.00    +0.000 A 
ATOM      2  C   UNL     1       6.777   4.973  18.862  0.00  0.00    +0.000 A 
ATOM      3  C   UNL     1       7.709   5.977  19.091  0.00  0.00    +0.000 A 
ATOM      4  C   UNL     1       7.773   7.061  18.225  0.00  0.00    +0.000 A 
ATOM      5  N   UNL     1       8.616   8.119  18.597  0.00  0.00    +0.000 N 
ATOM      6  N   UNL     1       7.016   7.123  17.109  0.00  0.00    +0.000 NA
ATOM      7  C   UNL     1       6.139   6.125  16.874  0.00  0.00    +0.000 A 
ATOM      8  H   UNL     1       9.576   7.797  18.654  0.00  0.00    +0.000 HD
ENDROOT
BRANCH   1  11
ATOM      9  C   UNL     1       4.363   3.252  18.385  0.00  0.00    +0.000 C 
ATOM     10  O   UNL     1       4.572   3.220  19.592  0.00  0.00    +0.000 OA
ATOM     11  N   UNL     1       4.940   4.100  17.479  0.00  0.00    +0.000 N 
ATOM     12  H   UNL     1       4.600   4.044  16.528  0.00  0.00    +0.000 HD
BRANCH   9  13
ATOM     13  O   UNL     1       3.520   2.406  17.744  0.00  0.00    +0.000 OA
BRANCH  13  15
ATOM     14  C   UNL     1       1.456   3.597  17.995  0.00  0.00    +0.000 C 
ATOM     15  C   UNL     1       2.213   2.328  18.341  0.00  0.00    +0.000 C 
ENDBRANCH  13  15
ENDBRANCH   9  13
ENDBRANCH   1  11
BRANCH   7  16
ATOM     16  N   UNL     1       5.386   6.230  15.692  0.00  0.00    +0.000 N 
ATOM     17  H   UNL     1       5.032   5.292  15.511  0.00  0.00    +0.000 HD
ATOM     18  H   UNL     1       5.980   6.536  14.932  0.00  0.00    +0.000 HD
ENDBRANCH   7  16
BRANCH   5  19
ATOM     19  C   UNL     1       8.422   9.367  17.867  0.00  0.00    +0.000 C 
BRANCH  19  20
ATOM     20  C   UNL     1       8.444  10.552  18.842  0.00  0.00    +0.000 C 
BRANCH  20  21
ATOM     21  C   UNL     1       9.822  11.157  18.945  0.00  0.00    +0.000 A 
ATOM     22  C   UNL     1      10.405  11.364  20.203  0.00  0.00    +0.000 A 
ATOM     23  C   UNL     1      11.655  11.973  20.312  0.00  0.00    +0.000 A 
ATOM     24  C   UNL     1      12.333  12.382  19.166  0.00  0.00    +0.000 A 
ATOM     25  C   UNL     1      11.764  12.178  17.910  0.00  0.00    +0.000 A 
ATOM     26  C   UNL     1      10.512  11.569  17.799  0.00  0.00    +0.000 A 
ENDBRANCH  20  21
ENDBRANCH  19  20
ENDBRANCH   5  19
TORSDOF 7
ENDMDL
