MODEL 1
REMARK VINA RESULT:      -7.3      0.000      0.000
REMARK  Name = 
REMARK  1 active torsions:
REMARK  status: ('A' for Active; 'I' for Inactive)
REMARK    1  A    between atoms: C_12  and  C_13
REMARK                            x       y       z     vdW  Elec       q    Type
REMARK                         _______ _______ _______ _____ _____    ______ ____
ROOT
ATOM      1  O   UNL     1       2.970   1.693  17.849  0.00  0.00    +0.000 OA
ATOM      2  C   UNL     1       3.044   2.894  18.002  0.00  0.00    +0.000 C 
ATOM      3  N   UNL     1       2.395   3.667  18.944  0.00  0.00    +0.000 N 
ATOM      4  C   UNL     1       2.697   5.019  18.789  0.00  0.00    +0.000 A 
ATOM      5  C   UNL     1       2.209   6.046  19.576  0.00  0.00    +0.000 A 
ATOM      6  C   UNL     1       2.580   7.346  19.244  0.00  0.00    +0.000 A 
ATOM      7  C   UNL     1       3.339   7.589  18.091  0.00  0.00    +0.000 A 
ATOM      8  C   UNL     1       3.780   6.533  17.282  0.00  0.00    +0.000 A 
ATOM      9 CL   UNL     1       4.442   6.971  15.759  0.00  0.00    +0.000 Cl
ATOM     10  C   UNL     1       3.543   5.227  17.687  0.00  0.00    +0.000 A 
ATOM     11  C   UNL     1       3.898   3.872  17.236  0.00  0.00    +0.000 C 
ATOM     12  C   UNL     1       4.895   3.350  16.502  0.00  0.00    +0.000 C 
ATOM     13  H   UNL     1       1.768   3.279  19.634  0.00  0.00    +0.000 HD
ENDROOT
BRANCH  12  14
ATOM     14  C   UNL     1       5.951   4.112  15.964  0.00  0.00    +0.000 A 
ATOM     15  C   UNL     1       6.965   4.918  16.477  0.00  0.00    +0.000 A 
ATOM     16 CL   UNL     1       7.240   5.276  18.121  0.00  0.00    +0.000 Cl
ATOM     17  N   UNL     1       7.768   5.426  15.471  0.00  0.00    +0.000 NA
ATOM     18  C   UNL     1       7.252   4.926  14.385  0.00  0.00    +0.000 A 
ATOM     19  N   UNL     1       6.181   4.128  14.625  0.00  0.00    +0.000 N 
ATOM     20  C   UNL     1       5.475   3.612  13.474  0.00  0.00    +0.000 C 
ATOM     21  C   UNL     1       6.463   3.687  12.309  0.00  0.00    +0.000 C 
ATOM     22  S   UNL     1       7.636   5.046  12.716  0.00  0.00    +0.000 S 
ENDBRANCH  12  14
TORSDOF 1
ENDMDL
MODEL 2
REMARK VINA RESULT:      -7.1      1.096      1.202
REMARK  Name = 
REMARK  1 active torsions:
REMARK  status: ('A' for Active; 'I' for Inactive)
REMARK    1  A    between atoms: C_12  and  C_13
REMARK                            x       y       z     vdW  Elec       q    Type
REMARK                         _______ _______ _______ _____ _____    ______ ____
ROOT
ATOM      1  O   UNL     1       2.501   1.551  18.593  0.00  0.00    +0.000 OA
ATOM      2  C   UNL     1       2.529   2.741  18.829  0.00  0.00    +0.000 C 
ATOM      3  N   UNL     1       1.803   3.432  19.778  0.00  0.00    +0.000 N 
ATOM      4  C   UNL     1       2.073   4.799  19.730  0.00  0.00    +0.000 A 
ATOM      5  C   UNL     1       1.510   5.758  20.552  0.00  0.00    +0.000 A 
ATOM      6  C   UNL     1       1.860   7.087  20.329  0.00  0.00    +0.000 A 
ATOM      7  C   UNL     1       2.676   7.425  19.241  0.00  0.00    +0.000 A 
ATOM      8  C   UNL     1       3.194   6.438  18.392  0.00  0.00    +0.000 A 
ATOM      9 CL   UNL     1       3.929   6.994  16.943  0.00  0.00    +0.000 Cl
ATOM     10  C   UNL     1       2.975   5.102  18.697  0.00  0.00    +0.000 A 
ATOM     11  C   UNL     1       3.396   3.791  18.180  0.00  0.00    +0.000 C 
ATOM     12  C   UNL     1       4.449   3.345  17.475  0.00  0.00    +0.000 C 
ATOM     13  H   UNL     1       1.150   2.982  20.403  0.00  0.00    +0.000 HD
ENDROOT
BRANCH  12  14
ATOM     14  C   UNL     1       5.511   4.169  17.051  0.00  0.00    +0.000 A 
ATOM     15  C   UNL     1       6.436   5.004  17.672  0.00  0.00    +0.000 A 
ATOM     16 CL   UNL     1       6.551   5.326  19.342  0.00  0.00    +0.000 Cl
ATOM     17  N   UNL     1       7.300   5.577  16.754  0.00  0.00    +0.000 NA
ATOM     18  C   UNL     1       6.904   5.087  15.614  0.00  0.00    +0.000 A 
ATOM     19  N   UNL     1       5.855   4.235  15.739  0.00  0.00    +0.000 N 
ATOM     20  C   UNL     1       5.277   3.721  14.517  0.00  0.00    +0.000 C 
ATOM     21  C   UNL     1       6.358   3.874  13.446  0.00  0.00    +0.000 C 
ATOM     22  S   UNL     1       7.425   5.272  13.989  0.00  0.00    +0.000 S 
ENDBRANCH  12  14
TORSDOF 1
ENDMDL
MODEL 3
REMARK VINA RESULT:      -7.0      1.515      1.784
REMARK  Name = 
REMARK  1 active torsions:
REMARK  status: ('A' for Active; 'I' for Inactive)
REMARK    1  A    between atoms: C_12  and  C_13
REMARK                            x       y       z     vdW  Elec       q    Type
REMARK                         _______ _______ _______ _____ _____    ______ ____
ROOT
ATOM      1  O   UNL     1       3.167   2.456  20.441  0.00  0.00    +0.000 OA
ATOM      2  C   UNL     1       3.057   3.630  20.152  0.00  0.00    +0.000 C 
ATOM      3  N   UNL     1       2.227   4.568  20.731  0.00  0.00    +0.000 N 
ATOM      4  C   UNL     1       2.349   5.809  20.107  0.00  0.00    +0.000 A 
ATOM      5  C   UNL     1       1.655   6.954  20.455  0.00  0.00    +0.000 A 
ATOM      6  C   UNL     1       1.866   8.095  19.687  0.00  0.00    +0.000 A 
ATOM      7  C   UNL     1       2.679   8.035  18.547  0.00  0.00    +0.000 A 
ATOM      8  C   UNL     1       3.332   6.848  18.187  0.00  0.00    +0.000 A 
ATOM      9 CL   UNL     1       4.053   6.823  16.629  0.00  0.00    +0.000 Cl
ATOM     10  C   UNL     1       3.248   5.749  19.030  0.00  0.00    +0.000 A 
ATOM     11  C   UNL     1       3.828   4.399  19.109  0.00  0.00    +0.000 C 
ATOM     12  C   UNL     1       4.947   3.821  18.644  0.00  0.00    +0.000 C 
ATOM     13  H   UNL     1       1.605   4.352  21.496  0.00  0.00    +0.000 HD
ENDROOT
BRANCH  12  14
ATOM     14  C   UNL     1       5.928   4.505  17.898  0.00  0.00    +0.000 A 
ATOM     15  C   UNL     1       7.011   5.331  18.190  0.00  0.00    +0.000 A 
ATOM     16 CL   UNL     1       7.513   5.833  19.740  0.00  0.00    +0.000 Cl
ATOM     17  N   UNL     1       7.674   5.726  17.041  0.00  0.00    +0.000 NA
ATOM     18  C   UNL     1       7.008   5.140  16.087  0.00  0.00    +0.000 A 
ATOM     19  N   UNL     1       5.971   4.393  16.545  0.00  0.00    +0.000 N 
ATOM     20  C   UNL     1       5.109   3.789  15.554  0.00  0.00    +0.000 C 
ATOM     21  C   UNL     1       5.928   3.734  14.264  0.00  0.00    +0.000 C 
ATOM     22  S   UNL     1       7.160   5.097  14.378  0.00  0.00    +0.000 S 
ENDBRANCH  12  14
TORSDOF 1
ENDMDL
MODEL 4
REMARK VINA RESULT:      -6.6      2.146      3.031
REMARK  Name = 
REMARK  1 active torsions:
REMARK  status: ('A' for Active; 'I' for Inactive)
REMARK    1  A    between atoms: C_12  and  C_13
REMARK                            x       y       z     vdW  Elec       q    Type
REMARK                         _______ _______ _______ _____ _____    ______ ____
ROOT
ATOM      1  O   UNL     1       2.690   1.391  17.827  0.00  0.00    +0.000 OA
ATOM      2  C   UNL     1       2.642   2.520  18.271  0.00  0.00    +0.000 C 
ATOM      3  N   UNL     1       1.885   2.979  19.330  0.00  0.00    +0.000 N 
ATOM      4  C   UNL     1       2.063   4.348  19.527  0.00  0.00    +0.000 A 
ATOM      5  C   UNL     1       1.449   5.104  20.508  0.00  0.00    +0.000 A 
ATOM      6  C   UNL     1       1.707   6.472  20.525  0.00  0.00    +0.000 A 
ATOM      7  C   UNL     1       2.485   7.054  19.515  0.00  0.00    +0.000 A 
ATOM      8  C   UNL     1       3.056   6.271  18.502  0.00  0.00    +0.000 A 
ATOM      9 CL   UNL     1       3.733   7.125  17.176  0.00  0.00    +0.000 Cl
ATOM     10  C   UNL     1       2.929   4.890  18.563  0.00  0.00    +0.000 A 
ATOM     11  C   UNL     1       3.429   3.724  17.820  0.00  0.00    +0.000 C 
ATOM     12  C   UNL     1       4.500   3.483  17.045  0.00  0.00    +0.000 C 
ATOM     13  H   UNL     1       1.272   2.382  19.865  0.00  0.00    +0.000 HD
ENDROOT
BRANCH  12  14
ATOM     14  C   UNL     1       5.499   4.439  16.774  0.00  0.00    +0.000 A 
ATOM     15  C   UNL     1       5.971   5.099  15.642  0.00  0.00    +0.000 A 
ATOM     16 CL   UNL     1       5.412   4.896  14.044  0.00  0.00    +0.000 Cl
ATOM     17  N   UNL     1       6.990   5.982  15.956  0.00  0.00    +0.000 NA
ATOM     18  C   UNL     1       7.116   5.858  17.246  0.00  0.00    +0.000 A 
ATOM     19  N   UNL     1       6.244   4.965  17.781  0.00  0.00    +0.000 N 
ATOM     20  C   UNL     1       6.378   4.681  19.192  0.00  0.00    +0.000 C 
ATOM     21  C   UNL     1       7.130   5.872  19.789  0.00  0.00    +0.000 C 
ATOM     22  S   UNL     1       8.134   6.584  18.422  0.00  0.00    +0.000 S 
ENDBRANCH  12  14
TORSDOF 1
ENDMDL
MODEL 5
REMARK VINA RESULT:      -6.5      3.156      5.600
REMARK  Name = 
REMARK  1 active torsions:
REMARK  status: ('A' for Active; 'I' for Inactive)
REMARK    1  A    between atoms: C_12  and  C_13
REMARK                            x       y       z     vdW  Elec       q    Type
REMARK                         _______ _______ _______ _____ _____    ______ ____
ROOT
ATOM      1  O   UNL     1       5.156   4.475  14.058  0.00  0.00    +0.000 OA
ATOM      2  C   UNL     1       5.613   4.899  15.099  0.00  0.00    +0.000 C 
ATOM      3  N   UNL     1       6.574   5.878  15.262  0.00  0.00    +0.000 N 
ATOM      4  C   UNL     1       6.876   6.074  16.609  0.00  0.00    +0.000 A 
ATOM      5  C   UNL     1       7.793   6.985  17.101  0.00  0.00    +0.000 A 
ATOM      6  C   UNL     1       8.004   7.010  18.476  0.00  0.00    +0.000 A 
ATOM      7  C   UNL     1       7.373   6.070  19.302  0.00  0.00    +0.000 A 
ATOM      8  C   UNL     1       6.485   5.124  18.771  0.00  0.00    +0.000 A 
ATOM      9 CL   UNL     1       6.009   3.857  19.827  0.00  0.00    +0.000 Cl
ATOM     10  C   UNL     1       6.154   5.189  17.425  0.00  0.00    +0.000 A 
ATOM     11  C   UNL     1       5.230   4.509  16.504  0.00  0.00    +0.000 C 
ATOM     12  C   UNL     1       4.074   3.840  16.645  0.00  0.00    +0.000 C 
ATOM     13  H   UNL     1       7.002   6.360  14.485  0.00  0.00    +0.000 HD
ENDROOT
BRANCH  12  14
ATOM     14  C   UNL     1       3.426   3.653  17.882  0.00  0.00    +0.000 A 
ATOM     15  C   UNL     1       3.186   2.576  18.732  0.00  0.00    +0.000 A 
ATOM     16 CL   UNL     1       3.654   0.957  18.473  0.00  0.00    +0.000 Cl
ATOM     17  N   UNL     1       2.496   2.966  19.866  0.00  0.00    +0.000 NA
ATOM     18  C   UNL     1       2.337   4.248  19.701  0.00  0.00    +0.000 A 
ATOM     19  N   UNL     1       2.883   4.706  18.546  0.00  0.00    +0.000 N 
ATOM     20  C   UNL     1       2.666   6.099  18.223  0.00  0.00    +0.000 C 
ATOM     21  C   UNL     1       2.326   6.787  19.546  0.00  0.00    +0.000 C 
ATOM     22  S   UNL     1       1.597   5.489  20.629  0.00  0.00    +0.000 S 
ENDBRANCH  12  14
TORSDOF 1
ENDMDL
MODEL 6
REMARK VINA RESULT:      -6.3      3.225      5.632
REMARK  Name = 
REMARK  1 active torsions:
REMARK  status: ('A' for Active; 'I' for Inactive)
REMARK    1  A    between atoms: C_12  and  C_13
REMARK                            x       y       z     vdW  Elec       q    Type
REMARK                         _______ _______ _______ _____ _____    ______ ____
ROOT
ATOM      1  O   UNL     1       7.870   5.381  20.353  0.00  0.00    +0.000 OA
ATOM      2  C   UNL     1       7.380   5.296  19.246  0.00  0.00    +0.000 C 
ATOM      3  N   UNL     1       8.032   5.076  18.049  0.00  0.00    +0.000 N 
ATOM      4  C   UNL     1       7.141   5.077  16.977  0.00  0.00    +0.000 A 
ATOM      5  C   UNL     1       7.481   4.882  15.651  0.00  0.00    +0.000 A 
ATOM      6  C   UNL     1       6.464   4.966  14.704  0.00  0.00    +0.000 A 
ATOM      7  C   UNL     1       5.170   5.336  15.094  0.00  0.00    +0.000 A 
ATOM      8  C   UNL     1       4.862   5.579  16.440  0.00  0.00    +0.000 A 
ATOM      9 CL   UNL     1       3.336   6.301  16.749  0.00  0.00    +0.000 Cl
ATOM     10  C   UNL     1       5.832   5.349  17.406  0.00  0.00    +0.000 A 
ATOM     11  C   UNL     1       5.921   5.362  18.874  0.00  0.00    +0.000 C 
ATOM     12  C   UNL     1       5.040   5.213  19.877  0.00  0.00    +0.000 C 
ATOM     13  H   UNL     1       9.032   4.953  17.985  0.00  0.00    +0.000 HD
ENDROOT
BRANCH  12  14
ATOM     14  C   UNL     1       3.667   4.961  19.680  0.00  0.00    +0.000 A 
ATOM     15  C   UNL     1       2.497   5.715  19.722  0.00  0.00    +0.000 A 
ATOM     16 CL   UNL     1       2.373   7.374  20.091  0.00  0.00    +0.000 Cl
ATOM     17  N   UNL     1       1.386   4.947  19.418  0.00  0.00    +0.000 NA
ATOM     18  C   UNL     1       1.884   3.765  19.191  0.00  0.00    +0.000 A 
ATOM     19  N   UNL     1       3.235   3.725  19.320  0.00  0.00    +0.000 N 
ATOM     20  C   UNL     1       3.869   2.432  19.191  0.00  0.00    +0.000 C 
ATOM     21  C   UNL     1       2.882   1.556  18.418  0.00  0.00    +0.000 C 
ATOM     22  S   UNL     1       1.209   2.248  18.754  0.00  0.00    +0.000 S 
ENDBRANCH  12  14
TORSDOF 1
ENDMDL
MODEL 7
REMARK VINA RESULT:      -6.1      6.688      9.480
REMARK  Name = 
REMARK  1 active torsions:
REMARK  status: ('A' for Active; 'I' for Inactive)
REMARK    1  A    between atoms: C_12  and  C_13
REMARK                            x       y       z     vdW  Elec       q    Type
REMARK                         _______ _______ _______ _____ _____    ______ ____
ROOT
ATOM      1  O   UNL     1       0.693   9.553  23.436  0.00  0.00    +0.000 OA
ATOM      2  C   UNL     1       0.980   9.277  22.290  0.00  0.00    +0.000 C 
ATOM      3  N   UNL     1       1.408   8.060  21.797  0.00  0.00    +0.000 N 
ATOM      4  C   UNL     1       1.680   8.133  20.431  0.00  0.00    +0.000 A 
ATOM      5  C   UNL     1       2.123   7.085  19.644  0.00  0.00    +0.000 A 
ATOM      6  C   UNL     1       2.391   7.352  18.305  0.00  0.00    +0.000 A 
ATOM      7  C   UNL     1       2.305   8.664  17.818  0.00  0.00    +0.000 A 
ATOM      8  C   UNL     1       1.903   9.718  18.650  0.00  0.00    +0.000 A 
ATOM      9 CL   UNL     1       2.118  11.302  18.023  0.00  0.00    +0.000 Cl
ATOM     10  C   UNL     1       1.488   9.436  19.944  0.00  0.00    +0.000 A 
ATOM     11  C   UNL     1       0.908  10.171  21.079  0.00  0.00    +0.000 C 
ATOM     12  C   UNL     1       0.187  11.297  21.208  0.00  0.00    +0.000 C 
ATOM     13  H   UNL     1       1.521   7.243  22.377  0.00  0.00    +0.000 HD
ENDROOT
BRANCH  12  14
ATOM     14  C   UNL     1      -0.224  12.091  20.119  0.00  0.00    +0.000 A 
ATOM     15  C   UNL     1      -1.012  11.904  18.986  0.00  0.00    +0.000 A 
ATOM     16 CL   UNL     1      -1.793  10.461  18.522  0.00  0.00    +0.000 Cl
ATOM     17  N   UNL     1      -1.106  13.062  18.234  0.00  0.00    +0.000 NA
ATOM     18  C   UNL     1      -0.398  13.922  18.908  0.00  0.00    +0.000 A 
ATOM     19  N   UNL     1       0.135  13.399  20.041  0.00  0.00    +0.000 N 
ATOM     20  C   UNL     1       1.024  14.248  20.802  0.00  0.00    +0.000 C 
ATOM     21  C   UNL     1       0.691  15.682  20.387  0.00  0.00    +0.000 C 
ATOM     22  S   UNL     1       0.001  15.577  18.684  0.00  0.00    +0.000 S 
ENDBRANCH  12  14
TORSDOF 1
ENDMDL
MODEL 8
REMARK VINA RESULT:      -6.1      9.486     11.116
REMARK  Name = 
REMARK  1 active torsions:
REMARK  status: ('A' for Active; 'I' for Inactive)
REMARK    1  A    between atoms: C_12  and  C_13
REMARK                            x       y       z     vdW  Elec       q    Type
REMARK                         _______ _______ _______ _____ _____    ______ ____
ROOT
ATOM      1  O   UNL     1      -5.449  13.373  20.156  0.00  0.00    +0.000 OA
ATOM      2  C   UNL     1      -4.723  12.735  19.423  0.00  0.00    +0.000 C 
ATOM      3  N   UNL     1      -4.965  12.352  18.119  0.00  0.00    +0.000 N 
ATOM      4  C   UNL     1      -3.912  11.594  17.608  0.00  0.00    +0.000 A 
ATOM      5  C   UNL     1      -3.850  11.064  16.332  0.00  0.00    +0.000 A 
ATOM      6  C   UNL     1      -2.741  10.288  16.008  0.00  0.00    +0.000 A 
ATOM      7  C   UNL     1      -1.784   9.986  16.987  0.00  0.00    +0.000 A 
ATOM      8  C   UNL     1      -1.897  10.495  18.288  0.00  0.00    +0.000 A 
ATOM      9 CL   UNL     1      -0.835   9.822  19.458  0.00  0.00    +0.000 Cl
ATOM     10  C   UNL     1      -2.916  11.390  18.577  0.00  0.00    +0.000 A 
ATOM     11  C   UNL     1      -3.336  12.221  19.716  0.00  0.00    +0.000 C 
ATOM     12  C   UNL     1      -2.712  12.755  20.779  0.00  0.00    +0.000 C 
ATOM     13  H   UNL     1      -5.815  12.586  17.628  0.00  0.00    +0.000 HD
ENDROOT
BRANCH  12  14
ATOM     14  C   UNL     1      -1.332  12.612  21.028  0.00  0.00    +0.000 A 
ATOM     15  C   UNL     1      -0.545  11.841  21.880  0.00  0.00    +0.000 A 
ATOM     16 CL   UNL     1      -1.102  10.714  23.031  0.00  0.00    +0.000 Cl
ATOM     17  N   UNL     1       0.804  12.090  21.691  0.00  0.00    +0.000 NA
ATOM     18  C   UNL     1       0.819  12.982  20.742  0.00  0.00    +0.000 A 
ATOM     19  N   UNL     1      -0.422  13.315  20.305  0.00  0.00    +0.000 N 
ATOM     20  C   UNL     1      -0.512  14.374  19.325  0.00  0.00    +0.000 C 
ATOM     21  C   UNL     1       0.867  14.456  18.669  0.00  0.00    +0.000 C 
ATOM     22  S   UNL     1       2.067  13.822  19.913  0.00  0.00    +0.000 S 
ENDBRANCH  12  14
TORSDOF 1
ENDMDL
MODEL 9
REMARK VINA RESULT:      -5.9      8.687     11.723
REMARK  Name = 
REMARK  1 active torsions:
REMARK  status: ('A' for Active; 'I' for Inactive)
REMARK    1  A    between atoms: C_12  and  C_13
REMARK                            x       y       z     vdW  Elec       q    Type
REMARK                         _______ _______ _______ _____ _____    ______ ____
ROOT
ATOM      1  O   UNL     1      -1.870  11.892  17.489  0.00  0.00    +0.000 OA
ATOM      2  C   UNL     1      -1.215  11.329  18.341  0.00  0.00    +0.000 C 
ATOM      3  N   UNL     1      -0.295  10.314  18.167  0.00  0.00    +0.000 N 
ATOM      4  C   UNL     1       0.231   9.890  19.386  0.00  0.00    +0.000 A 
ATOM      5  C   UNL     1       1.176   8.893  19.549  0.00  0.00    +0.000 A 
ATOM      6  C   UNL     1       1.553   8.566  20.849  0.00  0.00    +0.000 A 
ATOM      7  C   UNL     1       0.911   9.169  21.940  0.00  0.00    +0.000 A 
ATOM      8  C   UNL     1      -0.080  10.141  21.747  0.00  0.00    +0.000 A 
ATOM      9 CL   UNL     1      -0.986  10.585  23.137  0.00  0.00    +0.000 Cl
ATOM     10  C   UNL     1      -0.353  10.581  20.460  0.00  0.00    +0.000 A 
ATOM     11  C   UNL     1      -1.191  11.610  19.823  0.00  0.00    +0.000 C 
ATOM     12  C   UNL     1      -1.718  12.780  20.219  0.00  0.00    +0.000 C 
ATOM     13  H   UNL     1      -0.067   9.931  17.262  0.00  0.00    +0.000 HD
ENDROOT
BRANCH  12  14
ATOM     14  C   UNL     1      -1.525  13.329  21.502  0.00  0.00    +0.000 A 
ATOM     15  C   UNL     1      -0.452  13.866  22.208  0.00  0.00    +0.000 A 
ATOM     16 CL   UNL     1       1.153  14.014  21.654  0.00  0.00    +0.000 Cl
ATOM     17  N   UNL     1      -0.834  14.292  23.469  0.00  0.00    +0.000 NA
ATOM     18  C   UNL     1      -2.108  14.023  23.509  0.00  0.00    +0.000 A 
ATOM     19  N   UNL     1      -2.569  13.464  22.361  0.00  0.00    +0.000 N 
ATOM     20  C   UNL     1      -3.949  13.033  22.348  0.00  0.00    +0.000 C 
ATOM     21  C   UNL     1      -4.643  13.817  23.463  0.00  0.00    +0.000 C 
ATOM     22  S   UNL     1      -3.335  14.231  24.691  0.00  0.00    +0.000 S 
ENDBRANCH  12  14
TORSDOF 1
ENDMDL
