MODEL 1
REMARK VINA RESULT:      -7.4      0.000      0.000
REMARK  Name = 
REMARK  6 active torsions:
REMARK  status: ('A' for Active; 'I' for Inactive)
REMARK    1  A    between atoms: C_2  and  C_10
REMARK    2  A    between atoms: N_3  and  C_4
REMARK    3  A    between atoms: C_15  and  O_16
REMARK    4  A    between atoms: O_16  and  C_17
REMARK    5  A    between atoms: C_17  and  C_18
REMARK    6  A    between atoms: C_22  and  N_23
REMARK                            x       y       z     vdW  Elec       q    Type
REMARK                         _______ _______ _______ _____ _____    ______ ____
ROOT
ATOM      1  C   UNL     1       2.025   8.079  19.146  0.00  0.00    +0.000 A 
ATOM      2  C   UNL     1       1.480   9.353  18.849  0.00  0.00    +0.000 A 
ATOM      3  C   UNL     1       0.603   9.998  19.713  0.00  0.00    +0.000 A 
ATOM      4  C   UNL     1       0.261   9.389  20.908  0.00  0.00    +0.000 A 
ATOM      5  C   UNL     1       0.789   8.136  21.226  0.00  0.00    +0.000 A 
ATOM      6  C   UNL     1       1.657   7.450  20.350  0.00  0.00    +0.000 A 
ENDROOT
BRANCH   1   8
ATOM      7  O   UNL     1       2.846   8.009  16.959  0.00  0.00    +0.000 OA
ATOM      8  C   UNL     1       2.949   7.542  18.092  0.00  0.00    +0.000 C 
ATOM      9  N   UNL     1       3.832   6.535  18.440  0.00  0.00    +0.000 N 
ATOM     10  H   UNL     1       3.759   6.171  19.384  0.00  0.00    +0.000 HD
BRANCH   9  11
ATOM     11  C   UNL     1       4.782   5.931  17.583  0.00  0.00    +0.000 A 
ATOM     12  C   UNL     1       4.497   4.826  16.770  0.00  0.00    +0.000 A 
ATOM     13  C   UNL     1       5.475   4.268  15.942  0.00  0.00    +0.000 A 
ATOM     14  C   UNL     1       6.756   4.808  15.916  0.00  0.00    +0.000 A 
ATOM     15  C   UNL     1       7.055   5.908  16.716  0.00  0.00    +0.000 A 
ATOM     16  C   UNL     1       6.071   6.474  17.538  0.00  0.00    +0.000 A 
ENDBRANCH   9  11
ENDBRANCH   1   8
BRANCH   6  17
ATOM     17  O   UNL     1       2.181   6.212  20.657  0.00  0.00    +0.000 OA
BRANCH  17  18
ATOM     18  C   UNL     1       1.278   5.109  20.512  0.00  0.00    +0.000 C 
BRANCH  18  19
ATOM     19  C   UNL     1       1.932   3.985  19.745  0.00  0.00    +0.000 A 
ATOM     20  C   UNL     1       1.445   3.587  18.493  0.00  0.00    +0.000 A 
ATOM     21  C   UNL     1       2.020   2.506  17.819  0.00  0.00    +0.000 A 
ATOM     22  C   UNL     1       3.093   1.812  18.383  0.00  0.00    +0.000 A 
ATOM     23  C   UNL     1       3.592   2.212  19.628  0.00  0.00    +0.000 A 
ATOM     24  C   UNL     1       3.021   3.296  20.308  0.00  0.00    +0.000 A 
BRANCH  23  25
ATOM     25  N   UNL     1       4.710   1.479  20.237  0.00  0.00    +0.000 N 
ATOM     26  O   UNL     1       5.180   1.918  21.296  0.00  0.00    +0.000 OA
ATOM     27  O   UNL     1       5.122   0.468  19.650  0.00  0.00    +0.000 OA
ENDBRANCH  23  25
ENDBRANCH  18  19
ENDBRANCH  17  18
ENDBRANCH   6  17
TORSDOF 6
ENDMDL
MODEL 2
REMARK VINA RESULT:      -7.3      3.435      6.830
REMARK  Name = 
REMARK  6 active torsions:
REMARK  status: ('A' for Active; 'I' for Inactive)
REMARK    1  A    between atoms: C_2  and  C_10
REMARK    2  A    between atoms: N_3  and  C_4
REMARK    3  A    between atoms: C_15  and  O_16
REMARK    4  A    between atoms: O_16  and  C_17
REMARK    5  A    between atoms: C_17  and  C_18
REMARK    6  A    between atoms: C_22  and  N_23
REMARK                            x       y       z     vdW  Elec       q    Type
REMARK                         _______ _______ _______ _____ _____    ______ ____
ROOT
ATOM      1  C   UNL     1       6.191   5.631  18.518  0.00  0.00    +0.000 A 
ATOM      2  C   UNL     1       7.207   5.870  19.477  0.00  0.00    +0.000 A 
ATOM      3  C   UNL     1       8.245   6.764  19.242  0.00  0.00    +0.000 A 
ATOM      4  C   UNL     1       8.283   7.456  18.044  0.00  0.00    +0.000 A 
ATOM      5  C   UNL     1       7.291   7.242  17.086  0.00  0.00    +0.000 A 
ATOM      6  C   UNL     1       6.246   6.317  17.290  0.00  0.00    +0.000 A 
ENDROOT
BRANCH   1   8
ATOM      7  O   UNL     1       5.555   3.512  19.271  0.00  0.00    +0.000 OA
ATOM      8  C   UNL     1       5.158   4.631  18.950  0.00  0.00    +0.000 C 
ATOM      9  N   UNL     1       3.827   5.007  18.928  0.00  0.00    +0.000 N 
ATOM     10  H   UNL     1       3.620   5.928  18.556  0.00  0.00    +0.000 HD
BRANCH   9  11
ATOM     11  C   UNL     1       2.730   4.202  19.318  0.00  0.00    +0.000 A 
ATOM     12  C   UNL     1       2.271   4.108  20.638  0.00  0.00    +0.000 A 
ATOM     13  C   UNL     1       1.182   3.295  20.967  0.00  0.00    +0.000 A 
ATOM     14  C   UNL     1       0.537   2.563  19.978  0.00  0.00    +0.000 A 
ATOM     15  C   UNL     1       0.979   2.648  18.660  0.00  0.00    +0.000 A 
ATOM     16  C   UNL     1       2.064   3.471  18.328  0.00  0.00    +0.000 A 
ENDBRANCH   9  11
ENDBRANCH   1   8
BRANCH   6  17
ATOM     17  O   UNL     1       5.263   6.100  16.347  0.00  0.00    +0.000 OA
BRANCH  17  18
ATOM     18  C   UNL     1       5.088   4.736  15.944  0.00  0.00    +0.000 C 
BRANCH  18  19
ATOM     19  C   UNL     1       5.787   4.477  14.631  0.00  0.00    +0.000 A 
ATOM     20  C   UNL     1       6.986   5.127  14.312  0.00  0.00    +0.000 A 
ATOM     21  C   UNL     1       7.593   4.926  13.069  0.00  0.00    +0.000 A 
ATOM     22  C   UNL     1       7.014   4.068  12.131  0.00  0.00    +0.000 A 
ATOM     23  C   UNL     1       5.822   3.406  12.448  0.00  0.00    +0.000 A 
ATOM     24  C   UNL     1       5.210   3.603  13.693  0.00  0.00    +0.000 A 
BRANCH  23  25
ATOM     25  N   UNL     1       5.196   2.515  11.463  0.00  0.00    +0.000 N 
ATOM     26  O   UNL     1       5.799   1.475  11.160  0.00  0.00    +0.000 OA
ATOM     27  O   UNL     1       4.106   2.860  10.985  0.00  0.00    +0.000 OA
ENDBRANCH  23  25
ENDBRANCH  18  19
ENDBRANCH  17  18
ENDBRANCH   6  17
TORSDOF 6
ENDMDL
MODEL 3
REMARK VINA RESULT:      -7.3      2.315      5.889
REMARK  Name = 
REMARK  6 active torsions:
REMARK  status: ('A' for Active; 'I' for Inactive)
REMARK    1  A    between atoms: C_2  and  C_10
REMARK    2  A    between atoms: N_3  and  C_4
REMARK    3  A    between atoms: C_15  and  O_16
REMARK    4  A    between atoms: O_16  and  C_17
REMARK    5  A    between atoms: C_17  and  C_18
REMARK    6  A    between atoms: C_22  and  N_23
REMARK                            x       y       z     vdW  Elec       q    Type
REMARK                         _______ _______ _______ _____ _____    ______ ____
ROOT
ATOM      1  C   UNL     1       3.343   3.707  19.627  0.00  0.00    +0.000 A 
ATOM      2  C   UNL     1       3.425   2.598  20.505  0.00  0.00    +0.000 A 
ATOM      3  C   UNL     1       2.444   2.336  21.454  0.00  0.00    +0.000 A 
ATOM      4  C   UNL     1       1.344   3.171  21.538  0.00  0.00    +0.000 A 
ATOM      5  C   UNL     1       1.237   4.268  20.680  0.00  0.00    +0.000 A 
ATOM      6  C   UNL     1       2.236   4.570  19.731  0.00  0.00    +0.000 A 
ENDROOT
BRANCH   1   8
ATOM      7  O   UNL     1       5.614   3.543  19.102  0.00  0.00    +0.000 OA
ATOM      8  C   UNL     1       4.496   3.828  18.675  0.00  0.00    +0.000 C 
ATOM      9  N   UNL     1       4.247   4.283  17.392  0.00  0.00    +0.000 N 
ATOM     10  H   UNL     1       3.297   4.572  17.188  0.00  0.00    +0.000 HD
BRANCH   9  11
ATOM     11  C   UNL     1       5.209   4.437  16.364  0.00  0.00    +0.000 A 
ATOM     12  C   UNL     1       5.184   3.710  15.168  0.00  0.00    +0.000 A 
ATOM     13  C   UNL     1       6.161   3.903  14.186  0.00  0.00    +0.000 A 
ATOM     14  C   UNL     1       7.178   4.827  14.390  0.00  0.00    +0.000 A 
ATOM     15  C   UNL     1       7.215   5.561  15.574  0.00  0.00    +0.000 A 
ATOM     16  C   UNL     1       6.230   5.375  16.553  0.00  0.00    +0.000 A 
ENDBRANCH   9  11
ENDBRANCH   1   8
BRANCH   6  17
ATOM     17  O   UNL     1       2.137   5.652  18.882  0.00  0.00    +0.000 OA
BRANCH  17  18
ATOM     18  C   UNL     1       2.846   6.827  19.297  0.00  0.00    +0.000 C 
BRANCH  18  19
ATOM     19  C   UNL     1       1.944   8.036  19.249  0.00  0.00    +0.000 A 
ATOM     20  C   UNL     1       1.663   8.679  18.036  0.00  0.00    +0.000 A 
ATOM     21  C   UNL     1       0.875   9.833  18.011  0.00  0.00    +0.000 A 
ATOM     22  C   UNL     1       0.353  10.358  19.195  0.00  0.00    +0.000 A 
ATOM     23  C   UNL     1       0.620   9.714  20.409  0.00  0.00    +0.000 A 
ATOM     24  C   UNL     1       1.408   8.556  20.440  0.00  0.00    +0.000 A 
BRANCH  23  25
ATOM     25  N   UNL     1       0.089  10.267  21.662  0.00  0.00    +0.000 N 
ATOM     26  O   UNL     1      -0.958  10.927  21.603  0.00  0.00    +0.000 OA
ATOM     27  O   UNL     1       0.724  10.046  22.703  0.00  0.00    +0.000 OA
ENDBRANCH  23  25
ENDBRANCH  18  19
ENDBRANCH  17  18
ENDBRANCH   6  17
TORSDOF 6
ENDMDL
MODEL 4
REMARK VINA RESULT:      -7.2      3.154      5.401
REMARK  Name = 
REMARK  6 active torsions:
REMARK  status: ('A' for Active; 'I' for Inactive)
REMARK    1  A    between atoms: C_2  and  C_10
REMARK    2  A    between atoms: N_3  and  C_4
REMARK    3  A    between atoms: C_15  and  O_16
REMARK    4  A    between atoms: O_16  and  C_17
REMARK    5  A    between atoms: C_17  and  C_18
REMARK    6  A    between atoms: C_22  and  N_23
REMARK                            x       y       z     vdW  Elec       q    Type
REMARK                         _______ _______ _______ _____ _____    ______ ____
ROOT
ATOM      1  C   UNL     1       6.762   6.110  16.905  0.00  0.00    +0.000 A 
ATOM      2  C   UNL     1       7.503   5.549  15.836  0.00  0.00    +0.000 A 
ATOM      3  C   UNL     1       6.950   4.616  14.966  0.00  0.00    +0.000 A 
ATOM      4  C   UNL     1       5.631   4.234  15.134  0.00  0.00    +0.000 A 
ATOM      5  C   UNL     1       4.877   4.778  16.176  0.00  0.00    +0.000 A 
ATOM      6  C   UNL     1       5.427   5.702  17.090  0.00  0.00    +0.000 A 
ENDROOT
BRANCH   1   8
ATOM      7  O   UNL     1       8.063   6.674  18.762  0.00  0.00    +0.000 OA
ATOM      8  C   UNL     1       7.529   7.095  17.738  0.00  0.00    +0.000 C 
ATOM      9  N   UNL     1       7.562   8.417  17.331  0.00  0.00    +0.000 N 
ATOM     10  H   UNL     1       7.006   8.658  16.518  0.00  0.00    +0.000 HD
BRANCH   9  11
ATOM     11  C   UNL     1       8.249   9.470  17.983  0.00  0.00    +0.000 A 
ATOM     12  C   UNL     1       8.988   9.298  19.160  0.00  0.00    +0.000 A 
ATOM     13  C   UNL     1       9.647  10.374  19.762  0.00  0.00    +0.000 A 
ATOM     14  C   UNL     1       9.575  11.639  19.193  0.00  0.00    +0.000 A 
ATOM     15  C   UNL     1       8.847  11.826  18.020  0.00  0.00    +0.000 A 
ATOM     16  C   UNL     1       8.195  10.746  17.411  0.00  0.00    +0.000 A 
ENDBRANCH   9  11
ENDBRANCH   1   8
BRANCH   6  17
ATOM     17  O   UNL     1       4.689   6.241  18.122  0.00  0.00    +0.000 OA
BRANCH  17  18
ATOM     18  C   UNL     1       3.270   6.249  17.923  0.00  0.00    +0.000 C 
BRANCH  18  19
ATOM     19  C   UNL     1       2.656   4.964  18.425  0.00  0.00    +0.000 A 
ATOM     20  C   UNL     1       1.564   4.382  17.768  0.00  0.00    +0.000 A 
ATOM     21  C   UNL     1       0.966   3.225  18.275  0.00  0.00    +0.000 A 
ATOM     22  C   UNL     1       1.454   2.630  19.440  0.00  0.00    +0.000 A 
ATOM     23  C   UNL     1       2.553   3.200  20.094  0.00  0.00    +0.000 A 
ATOM     24  C   UNL     1       3.157   4.359  19.590  0.00  0.00    +0.000 A 
BRANCH  23  25
ATOM     25  N   UNL     1       3.064   2.591  21.329  0.00  0.00    +0.000 N 
ATOM     26  O   UNL     1       4.178   2.048  21.288  0.00  0.00    +0.000 OA
ATOM     27  O   UNL     1       2.347   2.648  22.339  0.00  0.00    +0.000 OA
ENDBRANCH  23  25
ENDBRANCH  18  19
ENDBRANCH  17  18
ENDBRANCH   6  17
TORSDOF 6
ENDMDL
MODEL 5
REMARK VINA RESULT:      -7.2      2.205      5.813
REMARK  Name = 
REMARK  6 active torsions:
REMARK  status: ('A' for Active; 'I' for Inactive)
REMARK    1  A    between atoms: C_2  and  C_10
REMARK    2  A    between atoms: N_3  and  C_4
REMARK    3  A    between atoms: C_15  and  O_16
REMARK    4  A    between atoms: O_16  and  C_17
REMARK    5  A    between atoms: C_17  and  C_18
REMARK    6  A    between atoms: C_22  and  N_23
REMARK                            x       y       z     vdW  Elec       q    Type
REMARK                         _______ _______ _______ _____ _____    ______ ____
ROOT
ATOM      1  C   UNL     1       3.302   3.956  19.184  0.00  0.00    +0.000 A 
ATOM      2  C   UNL     1       2.804   2.642  19.367  0.00  0.00    +0.000 A 
ATOM      3  C   UNL     1       1.700   2.378  20.170  0.00  0.00    +0.000 A 
ATOM      4  C   UNL     1       1.054   3.428  20.797  0.00  0.00    +0.000 A 
ATOM      5  C   UNL     1       1.521   4.733  20.627  0.00  0.00    +0.000 A 
ATOM      6  C   UNL     1       2.658   5.020  19.843  0.00  0.00    +0.000 A 
ENDROOT
BRANCH   1   8
ATOM      7  O   UNL     1       5.592   3.741  18.771  0.00  0.00    +0.000 OA
ATOM      8  C   UNL     1       4.502   4.042  18.287  0.00  0.00    +0.000 C 
ATOM      9  N   UNL     1       4.323   4.485  16.988  0.00  0.00    +0.000 N 
ATOM     10  H   UNL     1       3.390   4.789  16.735  0.00  0.00    +0.000 HD
BRANCH   9  11
ATOM     11  C   UNL     1       5.336   4.608  16.006  0.00  0.00    +0.000 A 
ATOM     12  C   UNL     1       6.459   5.431  16.154  0.00  0.00    +0.000 A 
ATOM     13  C   UNL     1       7.429   5.515  15.150  0.00  0.00    +0.000 A 
ATOM     14  C   UNL     1       7.286   4.775  13.982  0.00  0.00    +0.000 A 
ATOM     15  C   UNL     1       6.176   3.950  13.821  0.00  0.00    +0.000 A 
ATOM     16  C   UNL     1       5.210   3.858  14.832  0.00  0.00    +0.000 A 
ENDBRANCH   9  11
ENDBRANCH   1   8
BRANCH   6  17
ATOM     17  O   UNL     1       3.126   6.306  19.672  0.00  0.00    +0.000 OA
BRANCH  17  18
ATOM     18  C   UNL     1       2.603   7.004  18.535  0.00  0.00    +0.000 C 
BRANCH  18  19
ATOM     19  C   UNL     1       1.832   8.227  18.971  0.00  0.00    +0.000 A 
ATOM     20  C   UNL     1       1.456   9.210  18.046  0.00  0.00    +0.000 A 
ATOM     21  C   UNL     1       0.795  10.367  18.470  0.00  0.00    +0.000 A 
ATOM     22  C   UNL     1       0.496  10.555  19.822  0.00  0.00    +0.000 A 
ATOM     23  C   UNL     1       0.859   9.571  20.749  0.00  0.00    +0.000 A 
ATOM     24  C   UNL     1       1.520   8.409  20.330  0.00  0.00    +0.000 A 
BRANCH  23  25
ATOM     25  N   UNL     1       0.563   9.766  22.174  0.00  0.00    +0.000 N 
ATOM     26  O   UNL     1      -0.554  10.208  22.477  0.00  0.00    +0.000 OA
ATOM     27  O   UNL     1       1.453   9.484  22.990  0.00  0.00    +0.000 OA
ENDBRANCH  23  25
ENDBRANCH  18  19
ENDBRANCH  17  18
ENDBRANCH   6  17
TORSDOF 6
ENDMDL
MODEL 6
REMARK VINA RESULT:      -7.2      2.224      6.158
REMARK  Name = 
REMARK  6 active torsions:
REMARK  status: ('A' for Active; 'I' for Inactive)
REMARK    1  A    between atoms: C_2  and  C_10
REMARK    2  A    between atoms: N_3  and  C_4
REMARK    3  A    between atoms: C_15  and  O_16
REMARK    4  A    between atoms: O_16  and  C_17
REMARK    5  A    between atoms: C_17  and  C_18
REMARK    6  A    between atoms: C_22  and  N_23
REMARK                            x       y       z     vdW  Elec       q    Type
REMARK                         _______ _______ _______ _____ _____    ______ ____
ROOT
ATOM      1  C   UNL     1       3.346   3.856  19.583  0.00  0.00    +0.000 A 
ATOM      2  C   UNL     1       3.427   2.709  20.410  0.00  0.00    +0.000 A 
ATOM      3  C   UNL     1       2.428   2.386  21.321  0.00  0.00    +0.000 A 
ATOM      4  C   UNL     1       1.311   3.197  21.415  0.00  0.00    +0.000 A 
ATOM      5  C   UNL     1       1.205   4.330  20.607  0.00  0.00    +0.000 A 
ATOM      6  C   UNL     1       2.220   4.694  19.698  0.00  0.00    +0.000 A 
ENDROOT
BRANCH   1   8
ATOM      7  O   UNL     1       5.641   3.900  19.149  0.00  0.00    +0.000 OA
ATOM      8  C   UNL     1       4.520   4.041  18.666  0.00  0.00    +0.000 C 
ATOM      9  N   UNL     1       4.279   4.392  17.349  0.00  0.00    +0.000 N 
ATOM     10  H   UNL     1       3.314   4.568  17.094  0.00  0.00    +0.000 HD
BRANCH   9  11
ATOM     11  C   UNL     1       5.262   4.587  16.349  0.00  0.00    +0.000 A 
ATOM     12  C   UNL     1       6.283   5.541  16.443  0.00  0.00    +0.000 A 
ATOM     13  C   UNL     1       7.227   5.690  15.424  0.00  0.00    +0.000 A 
ATOM     14  C   UNL     1       7.162   4.886  14.292  0.00  0.00    +0.000 A 
ATOM     15  C   UNL     1       6.154   3.931  14.184  0.00  0.00    +0.000 A 
ATOM     16  C   UNL     1       5.214   3.774  15.211  0.00  0.00    +0.000 A 
ENDBRANCH   9  11
ENDBRANCH   1   8
BRANCH   6  17
ATOM     17  O   UNL     1       2.122   5.812  18.897  0.00  0.00    +0.000 OA
BRANCH  17  18
ATOM     18  C   UNL     1       2.784   6.983  19.392  0.00  0.00    +0.000 C 
BRANCH  18  19
ATOM     19  C   UNL     1       1.778   7.987  19.901  0.00  0.00    +0.000 A 
ATOM     20  C   UNL     1       1.231   7.872  21.185  0.00  0.00    +0.000 A 
ATOM     21  C   UNL     1       0.255   8.772  21.625  0.00  0.00    +0.000 A 
ATOM     22  C   UNL     1      -0.182   9.802  20.789  0.00  0.00    +0.000 A 
ATOM     23  C   UNL     1       0.370   9.930  19.509  0.00  0.00    +0.000 A 
ATOM     24  C   UNL     1       1.349   9.032  19.064  0.00  0.00    +0.000 A 
BRANCH  23  25
ATOM     25  N   UNL     1      -0.094  11.001  18.617  0.00  0.00    +0.000 N 
ATOM     26  O   UNL     1      -1.116  10.792  17.948  0.00  0.00    +0.000 OA
ATOM     27  O   UNL     1       0.568  12.048  18.582  0.00  0.00    +0.000 OA
ENDBRANCH  23  25
ENDBRANCH  18  19
ENDBRANCH  17  18
ENDBRANCH   6  17
TORSDOF 6
ENDMDL
MODEL 7
REMARK VINA RESULT:      -7.2      3.384      5.726
REMARK  Name = 
REMARK  6 active torsions:
REMARK  status: ('A' for Active; 'I' for Inactive)
REMARK    1  A    between atoms: C_2  and  C_10
REMARK    2  A    between atoms: N_3  and  C_4
REMARK    3  A    between atoms: C_15  and  O_16
REMARK    4  A    between atoms: O_16  and  C_17
REMARK    5  A    between atoms: C_17  and  C_18
REMARK    6  A    between atoms: C_22  and  N_23
REMARK                            x       y       z     vdW  Elec       q    Type
REMARK                         _______ _______ _______ _____ _____    ______ ____
ROOT
ATOM      1  C   UNL     1       6.766   6.288  16.958  0.00  0.00    +0.000 A 
ATOM      2  C   UNL     1       7.533   5.396  16.168  0.00  0.00    +0.000 A 
ATOM      3  C   UNL     1       6.940   4.436  15.357  0.00  0.00    +0.000 A 
ATOM      4  C   UNL     1       5.560   4.355  15.303  0.00  0.00    +0.000 A 
ATOM      5  C   UNL     1       4.782   5.226  16.067  0.00  0.00    +0.000 A 
ATOM      6  C   UNL     1       5.362   6.188  16.921  0.00  0.00    +0.000 A 
ENDROOT
BRANCH   1   8
ATOM      7  O   UNL     1       8.193   6.799  18.736  0.00  0.00    +0.000 OA
ATOM      8  C   UNL     1       7.582   7.252  17.770  0.00  0.00    +0.000 C 
ATOM      9  N   UNL     1       7.572   8.588  17.412  0.00  0.00    +0.000 N 
ATOM     10  H   UNL     1       6.956   8.852  16.651  0.00  0.00    +0.000 HD
BRANCH   9  11
ATOM     11  C   UNL     1       8.295   9.624  18.051  0.00  0.00    +0.000 A 
ATOM     12  C   UNL     1       9.048   9.435  19.217  0.00  0.00    +0.000 A 
ATOM     13  C   UNL     1       9.742  10.496  19.807  0.00  0.00    +0.000 A 
ATOM     14  C   UNL     1       9.691  11.762  19.238  0.00  0.00    +0.000 A 
ATOM     15  C   UNL     1       8.949  11.966  18.077  0.00  0.00    +0.000 A 
ATOM     16  C   UNL     1       8.262  10.901  17.480  0.00  0.00    +0.000 A 
ENDBRANCH   9  11
ENDBRANCH   1   8
BRANCH   6  17
ATOM     17  O   UNL     1       4.599   7.051  17.679  0.00  0.00    +0.000 OA
BRANCH  17  18
ATOM     18  C   UNL     1       3.185   6.978  17.457  0.00  0.00    +0.000 C 
BRANCH  18  19
ATOM     19  C   UNL     1       2.529   6.107  18.500  0.00  0.00    +0.000 A 
ATOM     20  C   UNL     1       2.269   6.595  19.788  0.00  0.00    +0.000 A 
ATOM     21  C   UNL     1       1.716   5.761  20.764  0.00  0.00    +0.000 A 
ATOM     22  C   UNL     1       1.409   4.432  20.466  0.00  0.00    +0.000 A 
ATOM     23  C   UNL     1       1.654   3.942  19.177  0.00  0.00    +0.000 A 
ATOM     24  C   UNL     1       2.207   4.773  18.195  0.00  0.00    +0.000 A 
BRANCH  23  25
ATOM     25  N   UNL     1       1.349   2.541  18.858  0.00  0.00    +0.000 N 
ATOM     26  O   UNL     1       2.272   1.717  18.935  0.00  0.00    +0.000 OA
ATOM     27  O   UNL     1       0.187   2.267  18.523  0.00  0.00    +0.000 OA
ENDBRANCH  23  25
ENDBRANCH  18  19
ENDBRANCH  17  18
ENDBRANCH   6  17
TORSDOF 6
ENDMDL
MODEL 8
REMARK VINA RESULT:      -7.2      2.224      6.068
REMARK  Name = 
REMARK  6 active torsions:
REMARK  status: ('A' for Active; 'I' for Inactive)
REMARK    1  A    between atoms: C_2  and  C_10
REMARK    2  A    between atoms: N_3  and  C_4
REMARK    3  A    between atoms: C_15  and  O_16
REMARK    4  A    between atoms: O_16  and  C_17
REMARK    5  A    between atoms: C_17  and  C_18
REMARK    6  A    between atoms: C_22  and  N_23
REMARK                            x       y       z     vdW  Elec       q    Type
REMARK                         _______ _______ _______ _____ _____    ______ ____
ROOT
ATOM      1  C   UNL     1       3.365   3.824  19.591  0.00  0.00    +0.000 A 
ATOM      2  C   UNL     1       3.461   2.698  20.446  0.00  0.00    +0.000 A 
ATOM      3  C   UNL     1       2.478   2.400  21.382  0.00  0.00    +0.000 A 
ATOM      4  C   UNL     1       1.363   3.214  21.475  0.00  0.00    +0.000 A 
ATOM      5  C   UNL     1       1.243   4.326  20.640  0.00  0.00    +0.000 A 
ATOM      6  C   UNL     1       2.243   4.665  19.704  0.00  0.00    +0.000 A 
ENDROOT
BRANCH   1   8
ATOM      7  O   UNL     1       5.653   3.850  19.116  0.00  0.00    +0.000 OA
ATOM      8  C   UNL     1       4.523   3.984  18.649  0.00  0.00    +0.000 C 
ATOM      9  N   UNL     1       4.260   4.307  17.330  0.00  0.00    +0.000 N 
ATOM     10  H   UNL     1       3.291   4.481  17.088  0.00  0.00    +0.000 HD
BRANCH   9  11
ATOM     11  C   UNL     1       5.225   4.476  16.308  0.00  0.00    +0.000 A 
ATOM     12  C   UNL     1       5.277   3.682  15.156  0.00  0.00    +0.000 A 
ATOM     13  C   UNL     1       6.254   3.893  14.178  0.00  0.00    +0.000 A 
ATOM     14  C   UNL     1       7.195   4.902  14.341  0.00  0.00    +0.000 A 
ATOM     15  C   UNL     1       7.155   5.703  15.480  0.00  0.00    +0.000 A 
ATOM     16  C   UNL     1       6.169   5.499  16.455  0.00  0.00    +0.000 A 
ENDBRANCH   9  11
ENDBRANCH   1   8
BRANCH   6  17
ATOM     17  O   UNL     1       2.130   5.763  18.877  0.00  0.00    +0.000 OA
BRANCH  17  18
ATOM     18  C   UNL     1       2.804   6.944  19.328  0.00  0.00    +0.000 C 
BRANCH  18  19
ATOM     19  C   UNL     1       1.812   7.952  19.856  0.00  0.00    +0.000 A 
ATOM     20  C   UNL     1       1.230   7.796  21.121  0.00  0.00    +0.000 A 
ATOM     21  C   UNL     1       0.267   8.702  21.576  0.00  0.00    +0.000 A 
ATOM     22  C   UNL     1      -0.121   9.780  20.776  0.00  0.00    +0.000 A 
ATOM     23  C   UNL     1       0.467   9.949  19.517  0.00  0.00    +0.000 A 
ATOM     24  C   UNL     1       1.432   9.044  19.057  0.00  0.00    +0.000 A 
BRANCH  23  25
ATOM     25  N   UNL     1       0.053  11.070  18.663  0.00  0.00    +0.000 N 
ATOM     26  O   UNL     1       0.818  12.040  18.574  0.00  0.00    +0.000 OA
ATOM     27  O   UNL     1      -1.041  10.981  18.087  0.00  0.00    +0.000 OA
ENDBRANCH  23  25
ENDBRANCH  18  19
ENDBRANCH  17  18
ENDBRANCH   6  17
TORSDOF 6
ENDMDL
MODEL 9
REMARK VINA RESULT:      -7.1      0.557      1.170
REMARK  Name = 
REMARK  6 active torsions:
REMARK  status: ('A' for Active; 'I' for Inactive)
REMARK    1  A    between atoms: C_2  and  C_10
REMARK    2  A    between atoms: N_3  and  C_4
REMARK    3  A    between atoms: C_15  and  O_16
REMARK    4  A    between atoms: O_16  and  C_17
REMARK    5  A    between atoms: C_17  and  C_18
REMARK    6  A    between atoms: C_22  and  N_23
REMARK                            x       y       z     vdW  Elec       q    Type
REMARK                         _______ _______ _______ _____ _____    ______ ____
ROOT
ATOM      1  C   UNL     1       2.155   8.110  18.971  0.00  0.00    +0.000 A 
ATOM      2  C   UNL     1       1.619   9.333  18.497  0.00  0.00    +0.000 A 
ATOM      3  C   UNL     1       0.680  10.056  19.223  0.00  0.00    +0.000 A 
ATOM      4  C   UNL     1       0.266   9.581  20.455  0.00  0.00    +0.000 A 
ATOM      5  C   UNL     1       0.784   8.381  20.947  0.00  0.00    +0.000 A 
ATOM      6  C   UNL     1       1.714   7.615  20.213  0.00  0.00    +0.000 A 
ENDROOT
BRANCH   1   8
ATOM      7  O   UNL     1       3.106   7.793  16.861  0.00  0.00    +0.000 OA
ATOM      8  C   UNL     1       3.152   7.474  18.047  0.00  0.00    +0.000 C 
ATOM      9  N   UNL     1       4.035   6.545  18.569  0.00  0.00    +0.000 N 
ATOM     10  H   UNL     1       3.913   6.299  19.545  0.00  0.00    +0.000 HD
BRANCH   9  11
ATOM     11  C   UNL     1       5.047   5.866  17.849  0.00  0.00    +0.000 A 
ATOM     12  C   UNL     1       6.354   5.701  18.324  0.00  0.00    +0.000 A 
ATOM     13  C   UNL     1       7.316   5.021  17.570  0.00  0.00    +0.000 A 
ATOM     14  C   UNL     1       6.981   4.498  16.326  0.00  0.00    +0.000 A 
ATOM     15  C   UNL     1       5.684   4.651  15.841  0.00  0.00    +0.000 A 
ATOM     16  C   UNL     1       4.719   5.323  16.602  0.00  0.00    +0.000 A 
ENDBRANCH   9  11
ENDBRANCH   1   8
BRANCH   6  17
ATOM     17  O   UNL     1       2.229   6.429  20.692  0.00  0.00    +0.000 OA
BRANCH  17  18
ATOM     18  C   UNL     1       1.368   5.291  20.569  0.00  0.00    +0.000 C 
BRANCH  18  19
ATOM     19  C   UNL     1       1.961   4.276  19.621  0.00  0.00    +0.000 A 
ATOM     20  C   UNL     1       1.482   4.146  18.311  0.00  0.00    +0.000 A 
ATOM     21  C   UNL     1       1.998   3.164  17.461  0.00  0.00    +0.000 A 
ATOM     22  C   UNL     1       3.003   2.302  17.906  0.00  0.00    +0.000 A 
ATOM     23  C   UNL     1       3.495   2.435  19.210  0.00  0.00    +0.000 A 
ATOM     24  C   UNL     1       2.983   3.419  20.066  0.00  0.00    +0.000 A 
BRANCH  23  25
ATOM     25  N   UNL     1       4.541   1.523  19.692  0.00  0.00    +0.000 N 
ATOM     26  O   UNL     1       4.702   0.456  19.083  0.00  0.00    +0.000 OA
ATOM     27  O   UNL     1       5.195   1.873  20.686  0.00  0.00    +0.000 OA
ENDBRANCH  23  25
ENDBRANCH  18  19
ENDBRANCH  17  18
ENDBRANCH   6  17
TORSDOF 6
ENDMDL
