MODEL 1
REMARK VINA RESULT:      -7.5      0.000      0.000
REMARK  Name = 
REMARK  1 active torsions:
REMARK  status: ('A' for Active; 'I' for Inactive)
REMARK    1  A    between atoms: C_8  and  C_9
REMARK                            x       y       z     vdW  Elec       q    Type
REMARK                         _______ _______ _______ _____ _____    ______ ____
ROOT
ATOM      1  N   UNL     1       2.197   7.691  18.764  0.00  0.00    +0.000 NA
ATOM      2  C   UNL     1       2.546   6.767  19.592  0.00  0.00    +0.000 C 
ATOM      3  N   UNL     1       2.007   6.726  20.834  0.00  0.00    +0.000 N 
ATOM      4  N   UNL     1       3.443   5.767  19.371  0.00  0.00    +0.000 N 
ATOM      5  C   UNL     1       4.118   5.542  18.168  0.00  0.00    +0.000 A 
ATOM      6  C   UNL     1       4.513   6.579  17.334  0.00  0.00    +0.000 A 
ATOM      7  C   UNL     1       5.134   6.301  16.118  0.00  0.00    +0.000 A 
ATOM      8  C   UNL     1       5.401   4.985  15.742  0.00  0.00    +0.000 A 
ATOM      9  C   UNL     1       5.019   4.017  16.674  0.00  0.00    +0.000 A 
ATOM     10  N   UNL     1       4.401   4.260  17.862  0.00  0.00    +0.000 NA
ATOM     11  H   UNL     1       1.479   8.287  19.173  0.00  0.00    +0.000 HD
ATOM     12  H   UNL     1       1.537   7.579  21.111  0.00  0.00    +0.000 HD
ATOM     13  H   UNL     1       2.658   6.428  21.552  0.00  0.00    +0.000 HD
ATOM     14  H   UNL     1       3.231   4.876  19.799  0.00  0.00    +0.000 HD
ENDROOT
BRANCH   8  15
ATOM     15  C   UNL     1       6.042   4.652  14.454  0.00  0.00    +0.000 A 
ATOM     16  C   UNL     1       7.206   5.314  14.019  0.00  0.00    +0.000 A 
ATOM     17  C   UNL     1       7.807   5.009  12.794  0.00  0.00    +0.000 A 
ATOM     18  C   UNL     1       7.263   4.022  11.979  0.00  0.00    +0.000 A 
ATOM     19  C   UNL     1       6.122   3.345  12.392  0.00  0.00    +0.000 A 
ATOM     20 CL   UNL     1       5.443   2.120  11.391  0.00  0.00    +0.000 Cl
ATOM     21  C   UNL     1       5.516   3.653  13.611  0.00  0.00    +0.000 A 
ENDBRANCH   8  15
TORSDOF 1
ENDMDL
MODEL 2
REMARK VINA RESULT:      -7.5      3.726      7.032
REMARK  Name = 
REMARK  1 active torsions:
REMARK  status: ('A' for Active; 'I' for Inactive)
REMARK    1  A    between atoms: C_8  and  C_9
REMARK                            x       y       z     vdW  Elec       q    Type
REMARK                         _______ _______ _______ _____ _____    ______ ____
ROOT
ATOM      1  N   UNL     1       5.919   3.123  12.975  0.00  0.00    +0.000 NA
ATOM      2  C   UNL     1       6.677   4.165  13.001  0.00  0.00    +0.000 C 
ATOM      3  N   UNL     1       7.535   4.409  11.982  0.00  0.00    +0.000 N 
ATOM      4  N   UNL     1       6.734   5.110  13.979  0.00  0.00    +0.000 N 
ATOM      5  C   UNL     1       5.933   5.133  15.125  0.00  0.00    +0.000 A 
ATOM      6  C   UNL     1       5.515   3.973  15.760  0.00  0.00    +0.000 A 
ATOM      7  C   UNL     1       4.671   4.047  16.867  0.00  0.00    +0.000 A 
ATOM      8  C   UNL     1       4.268   5.284  17.371  0.00  0.00    +0.000 A 
ATOM      9  C   UNL     1       4.789   6.392  16.699  0.00  0.00    +0.000 A 
ATOM     10  N   UNL     1       5.605   6.348  15.610  0.00  0.00    +0.000 NA
ATOM     11  H   UNL     1       6.051   2.605  12.108  0.00  0.00    +0.000 HD
ATOM     12  H   UNL     1       7.695   3.616  11.373  0.00  0.00    +0.000 HD
ATOM     13  H   UNL     1       8.416   4.815  12.278  0.00  0.00    +0.000 HD
ATOM     14  H   UNL     1       6.894   6.060  13.673  0.00  0.00    +0.000 HD
ENDROOT
BRANCH   8  15
ATOM     15  C   UNL     1       3.361   5.400  18.531  0.00  0.00    +0.000 A 
ATOM     16  C   UNL     1       2.878   6.649  18.964  0.00  0.00    +0.000 A 
ATOM     17  C   UNL     1       2.029   6.763  20.069  0.00  0.00    +0.000 A 
ATOM     18  C   UNL     1       1.633   5.623  20.762  0.00  0.00    +0.000 A 
ATOM     19  C   UNL     1       2.086   4.377  20.346  0.00  0.00    +0.000 A 
ATOM     20 CL   UNL     1       1.600   2.961  21.195  0.00  0.00    +0.000 Cl
ATOM     21  C   UNL     1       2.940   4.262  19.247  0.00  0.00    +0.000 A 
ENDBRANCH   8  15
TORSDOF 1
ENDMDL
MODEL 3
REMARK VINA RESULT:      -7.4      3.646      6.797
REMARK  Name = 
REMARK  1 active torsions:
REMARK  status: ('A' for Active; 'I' for Inactive)
REMARK    1  A    between atoms: C_8  and  C_9
REMARK                            x       y       z     vdW  Elec       q    Type
REMARK                         _______ _______ _______ _____ _____    ______ ____
ROOT
ATOM      1  N   UNL     1       6.812   4.233  13.125  0.00  0.00    +0.000 NA
ATOM      2  C   UNL     1       7.568   5.138  13.645  0.00  0.00    +0.000 C 
ATOM      3  N   UNL     1       8.616   5.635  12.947  0.00  0.00    +0.000 N 
ATOM      4  N   UNL     1       7.446   5.692  14.883  0.00  0.00    +0.000 N 
ATOM      5  C   UNL     1       6.433   5.399  15.801  0.00  0.00    +0.000 A 
ATOM      6  C   UNL     1       5.876   4.132  15.909  0.00  0.00    +0.000 A 
ATOM      7  C   UNL     1       4.829   3.903  16.801  0.00  0.00    +0.000 A 
ATOM      8  C   UNL     1       4.357   4.929  17.620  0.00  0.00    +0.000 A 
ATOM      9  C   UNL     1       5.021   6.150  17.478  0.00  0.00    +0.000 A 
ATOM     10  N   UNL     1       6.037   6.404  16.607  0.00  0.00    +0.000 NA
ATOM     11  H   UNL     1       7.106   4.027  12.171  0.00  0.00    +0.000 HD
ATOM     12  H   UNL     1       8.880   5.081  12.141  0.00  0.00    +0.000 HD
ATOM     13  H   UNL     1       9.428   5.842  13.519  0.00  0.00    +0.000 HD
ATOM     14  H   UNL     1       7.681   6.673  14.958  0.00  0.00    +0.000 HD
ENDROOT
BRANCH   8  15
ATOM     15  C   UNL     1       3.239   4.727  18.563  0.00  0.00    +0.000 A 
ATOM     16  C   UNL     1       3.016   5.608  19.639  0.00  0.00    +0.000 A 
ATOM     17  C   UNL     1       1.966   5.411  20.540  0.00  0.00    +0.000 A 
ATOM     18  C   UNL     1       1.103   4.331  20.379  0.00  0.00    +0.000 A 
ATOM     19  C   UNL     1       1.295   3.455  19.318  0.00  0.00    +0.000 A 
ATOM     20 CL   UNL     1       0.232   2.117  19.110  0.00  0.00    +0.000 Cl
ATOM     21  C   UNL     1       2.347   3.646  18.421  0.00  0.00    +0.000 A 
ENDBRANCH   8  15
TORSDOF 1
ENDMDL
MODEL 4
REMARK VINA RESULT:      -7.4      4.156      6.921
REMARK  Name = 
REMARK  1 active torsions:
REMARK  status: ('A' for Active; 'I' for Inactive)
REMARK    1  A    between atoms: C_8  and  C_9
REMARK                            x       y       z     vdW  Elec       q    Type
REMARK                         _______ _______ _______ _____ _____    ______ ____
ROOT
ATOM      1  N   UNL     1       6.960   4.338  12.916  0.00  0.00    +0.000 NA
ATOM      2  C   UNL     1       7.624   5.208  13.596  0.00  0.00    +0.000 C 
ATOM      3  N   UNL     1       8.666   5.864  13.031  0.00  0.00    +0.000 N 
ATOM      4  N   UNL     1       7.405   5.576  14.888  0.00  0.00    +0.000 N 
ATOM      5  C   UNL     1       6.374   5.094  15.700  0.00  0.00    +0.000 A 
ATOM      6  C   UNL     1       5.904   3.792  15.605  0.00  0.00    +0.000 A 
ATOM      7  C   UNL     1       4.837   3.374  16.398  0.00  0.00    +0.000 A 
ATOM      8  C   UNL     1       4.254   4.244  17.319  0.00  0.00    +0.000 A 
ATOM      9  C   UNL     1       4.835   5.513  17.381  0.00  0.00    +0.000 A 
ATOM     10  N   UNL     1       5.869   5.950  16.611  0.00  0.00    +0.000 NA
ATOM     11  H   UNL     1       7.312   4.285  11.962  0.00  0.00    +0.000 HD
ATOM     12  H   UNL     1       9.006   5.445  12.174  0.00  0.00    +0.000 HD
ATOM     13  H   UNL     1       9.433   6.042  13.671  0.00  0.00    +0.000 HD
ATOM     14  H   UNL     1       7.565   6.550  15.108  0.00  0.00    +0.000 HD
ENDROOT
BRANCH   8  15
ATOM     15  C   UNL     1       3.111   3.841  18.163  0.00  0.00    +0.000 A 
ATOM     16  C   UNL     1       1.802   3.781  17.648  0.00  0.00    +0.000 A 
ATOM     17  C   UNL     1       0.717   3.411  18.448  0.00  0.00    +0.000 A 
ATOM     18  C   UNL     1       0.918   3.081  19.785  0.00  0.00    +0.000 A 
ATOM     19  C   UNL     1       2.203   3.121  20.313  0.00  0.00    +0.000 A 
ATOM     20 CL   UNL     1       2.462   2.713  21.965  0.00  0.00    +0.000 Cl
ATOM     21  C   UNL     1       3.287   3.496  19.517  0.00  0.00    +0.000 A 
ENDBRANCH   8  15
TORSDOF 1
ENDMDL
MODEL 5
REMARK VINA RESULT:      -7.4      3.973      7.202
REMARK  Name = 
REMARK  1 active torsions:
REMARK  status: ('A' for Active; 'I' for Inactive)
REMARK    1  A    between atoms: C_8  and  C_9
REMARK                            x       y       z     vdW  Elec       q    Type
REMARK                         _______ _______ _______ _____ _____    ______ ____
ROOT
ATOM      1  N   UNL     1       6.063   3.339  12.964  0.00  0.00    +0.000 NA
ATOM      2  C   UNL     1       6.790   4.394  13.105  0.00  0.00    +0.000 C 
ATOM      3  N   UNL     1       7.681   4.740  12.145  0.00  0.00    +0.000 N 
ATOM      4  N   UNL     1       6.781   5.258  14.156  0.00  0.00    +0.000 N 
ATOM      5  C   UNL     1       5.934   5.170  15.265  0.00  0.00    +0.000 A 
ATOM      6  C   UNL     1       5.523   3.952  15.788  0.00  0.00    +0.000 A 
ATOM      7  C   UNL     1       4.633   3.916  16.860  0.00  0.00    +0.000 A 
ATOM      8  C   UNL     1       4.177   5.099  17.443  0.00  0.00    +0.000 A 
ATOM      9  C   UNL     1       4.693   6.270  16.884  0.00  0.00    +0.000 A 
ATOM     10  N   UNL     1       5.554   6.333  15.830  0.00  0.00    +0.000 NA
ATOM     11  H   UNL     1       6.244   2.896  12.064  0.00  0.00    +0.000 HD
ATOM     12  H   UNL     1       7.887   4.002  11.483  0.00  0.00    +0.000 HD
ATOM     13  H   UNL     1       8.538   5.142  12.510  0.00  0.00    +0.000 HD
ATOM     14  H   UNL     1       6.927   6.233  13.933  0.00  0.00    +0.000 HD
ENDROOT
BRANCH   8  15
ATOM     15  C   UNL     1       3.221   5.099  18.569  0.00  0.00    +0.000 A 
ATOM     16  C   UNL     1       2.683   3.902  19.078  0.00  0.00    +0.000 A 
ATOM     17  C   UNL     1       1.769   3.901  20.135  0.00  0.00    +0.000 A 
ATOM     18  C   UNL     1       1.379   5.103  20.719  0.00  0.00    +0.000 A 
ATOM     19  C   UNL     1       1.906   6.297  20.243  0.00  0.00    +0.000 A 
ATOM     20 CL   UNL     1       1.431   7.788  20.960  0.00  0.00    +0.000 Cl
ATOM     21  C   UNL     1       2.814   6.301  19.182  0.00  0.00    +0.000 A 
ENDBRANCH   8  15
TORSDOF 1
ENDMDL
MODEL 6
REMARK VINA RESULT:      -7.3      5.850      8.143
REMARK  Name = 
REMARK  1 active torsions:
REMARK  status: ('A' for Active; 'I' for Inactive)
REMARK    1  A    between atoms: C_8  and  C_9
REMARK                            x       y       z     vdW  Elec       q    Type
REMARK                         _______ _______ _______ _____ _____    ______ ____
ROOT
ATOM      1  N   UNL     1       2.078   1.529  18.865  0.00  0.00    +0.000 NA
ATOM      2  C   UNL     1       3.334   1.753  18.683  0.00  0.00    +0.000 C 
ATOM      3  N   UNL     1       4.151   0.755  18.269  0.00  0.00    +0.000 N 
ATOM      4  N   UNL     1       3.989   2.933  18.865  0.00  0.00    +0.000 N 
ATOM      5  C   UNL     1       3.389   4.136  19.247  0.00  0.00    +0.000 A 
ATOM      6  C   UNL     1       2.304   4.182  20.111  0.00  0.00    +0.000 A 
ATOM      7  C   UNL     1       1.706   5.403  20.418  0.00  0.00    +0.000 A 
ATOM      8  C   UNL     1       2.211   6.593  19.894  0.00  0.00    +0.000 A 
ATOM      9  C   UNL     1       3.339   6.448  19.083  0.00  0.00    +0.000 A 
ATOM     10  N   UNL     1       3.936   5.268  18.758  0.00  0.00    +0.000 NA
ATOM     11  H   UNL     1       1.846   0.568  18.618  0.00  0.00    +0.000 HD
ATOM     12  H   UNL     1       3.756  -0.172  18.362  0.00  0.00    +0.000 HD
ATOM     13  H   UNL     1       5.079   0.791  18.678  0.00  0.00    +0.000 HD
ATOM     14  H   UNL     1       4.737   3.132  18.215  0.00  0.00    +0.000 HD
ENDROOT
BRANCH   8  15
ATOM     15  C   UNL     1       1.593   7.902  20.184  0.00  0.00    +0.000 A 
ATOM     16  C   UNL     1       1.515   8.912  19.205  0.00  0.00    +0.000 A 
ATOM     17  C   UNL     1       0.941  10.156  19.481  0.00  0.00    +0.000 A 
ATOM     18  C   UNL     1       0.418  10.417  20.744  0.00  0.00    +0.000 A 
ATOM     19  C   UNL     1       0.472   9.431  21.723  0.00  0.00    +0.000 A 
ATOM     20 CL   UNL     1      -0.174   9.744  23.288  0.00  0.00    +0.000 Cl
ATOM     21  C   UNL     1       1.051   8.191  21.452  0.00  0.00    +0.000 A 
ENDBRANCH   8  15
TORSDOF 1
ENDMDL
MODEL 7
REMARK VINA RESULT:      -7.2      4.510      7.784
REMARK  Name = 
REMARK  1 active torsions:
REMARK  status: ('A' for Active; 'I' for Inactive)
REMARK    1  A    between atoms: C_8  and  C_9
REMARK                            x       y       z     vdW  Elec       q    Type
REMARK                         _______ _______ _______ _____ _____    ______ ____
ROOT
ATOM      1  N   UNL     1       7.297   6.434  16.580  0.00  0.00    +0.000 NA
ATOM      2  C   UNL     1       6.979   5.261  17.009  0.00  0.00    +0.000 C 
ATOM      3  N   UNL     1       7.840   4.225  16.860  0.00  0.00    +0.000 N 
ATOM      4  N   UNL     1       5.821   4.902  17.628  0.00  0.00    +0.000 N 
ATOM      5  C   UNL     1       4.776   5.773  17.949  0.00  0.00    +0.000 A 
ATOM      6  C   UNL     1       4.444   6.858  17.150  0.00  0.00    +0.000 A 
ATOM      7  C   UNL     1       3.429   7.731  17.541  0.00  0.00    +0.000 A 
ATOM      8  C   UNL     1       2.712   7.504  18.716  0.00  0.00    +0.000 A 
ATOM      9  C   UNL     1       3.082   6.355  19.420  0.00  0.00    +0.000 A 
ATOM     10  N   UNL     1       4.075   5.493  19.067  0.00  0.00    +0.000 NA
ATOM     11  H   UNL     1       8.239   6.431  16.193  0.00  0.00    +0.000 HD
ATOM     12  H   UNL     1       8.586   4.397  16.197  0.00  0.00    +0.000 HD
ATOM     13  H   UNL     1       7.384   3.341  16.664  0.00  0.00    +0.000 HD
ATOM     14  H   UNL     1       5.902   4.206  18.357  0.00  0.00    +0.000 HD
ENDROOT
BRANCH   8  15
ATOM     15  C   UNL     1       1.643   8.415  19.170  0.00  0.00    +0.000 A 
ATOM     16  C   UNL     1       1.022   9.318  18.287  0.00  0.00    +0.000 A 
ATOM     17  C   UNL     1       0.018  10.190  18.717  0.00  0.00    +0.000 A 
ATOM     18  C   UNL     1      -0.398  10.172  20.045  0.00  0.00    +0.000 A 
ATOM     19  C   UNL     1       0.191   9.280  20.934  0.00  0.00    +0.000 A 
ATOM     20 CL   UNL     1      -0.318   9.248  22.578  0.00  0.00    +0.000 Cl
ATOM     21  C   UNL     1       1.199   8.413  20.507  0.00  0.00    +0.000 A 
ENDBRANCH   8  15
TORSDOF 1
ENDMDL
MODEL 8
REMARK VINA RESULT:      -7.1      3.516      5.273
REMARK  Name = 
REMARK  1 active torsions:
REMARK  status: ('A' for Active; 'I' for Inactive)
REMARK    1  A    between atoms: C_8  and  C_9
REMARK                            x       y       z     vdW  Elec       q    Type
REMARK                         _______ _______ _______ _____ _____    ______ ____
ROOT
ATOM      1  N   UNL     1      -0.789  11.213  18.133  0.00  0.00    +0.000 NA
ATOM      2  C   UNL     1      -0.511  11.276  19.390  0.00  0.00    +0.000 C 
ATOM      3  N   UNL     1      -1.128  12.188  20.179  0.00  0.00    +0.000 N 
ATOM      4  N   UNL     1       0.378  10.501  20.071  0.00  0.00    +0.000 N 
ATOM      5  C   UNL     1       1.123   9.455  19.519  0.00  0.00    +0.000 A 
ATOM      6  C   UNL     1       1.590   9.487  18.213  0.00  0.00    +0.000 A 
ATOM      7  C   UNL     1       2.281   8.395  17.690  0.00  0.00    +0.000 A 
ATOM      8  C   UNL     1       2.543   7.276  18.482  0.00  0.00    +0.000 A 
ATOM      9  C   UNL     1       2.084   7.365  19.798  0.00  0.00    +0.000 A 
ATOM     10  N   UNL     1       1.397   8.414  20.330  0.00  0.00    +0.000 NA
ATOM     11  H   UNL     1      -1.518  11.883  17.893  0.00  0.00    +0.000 HD
ATOM     12  H   UNL     1      -1.597  12.928  19.671  0.00  0.00    +0.000 HD
ATOM     13  H   UNL     1      -0.529  12.575  20.901  0.00  0.00    +0.000 HD
ATOM     14  H   UNL     1       0.121  10.256  21.018  0.00  0.00    +0.000 HD
ENDROOT
BRANCH   8  15
ATOM     15  C   UNL     1       3.257   6.095  17.957  0.00  0.00    +0.000 A 
ATOM     16  C   UNL     1       4.511   6.213  17.329  0.00  0.00    +0.000 A 
ATOM     17  C   UNL     1       5.183   5.097  16.821  0.00  0.00    +0.000 A 
ATOM     18  C   UNL     1       4.619   3.831  16.941  0.00  0.00    +0.000 A 
ATOM     19  C   UNL     1       3.388   3.687  17.570  0.00  0.00    +0.000 A 
ATOM     20 CL   UNL     1       2.683   2.124  17.725  0.00  0.00    +0.000 Cl
ATOM     21  C   UNL     1       2.712   4.801  18.071  0.00  0.00    +0.000 A 
ENDBRANCH   8  15
TORSDOF 1
ENDMDL
MODEL 9
REMARK VINA RESULT:      -7.1      2.221      2.643
REMARK  Name = 
REMARK  1 active torsions:
REMARK  status: ('A' for Active; 'I' for Inactive)
REMARK    1  A    between atoms: C_8  and  C_9
REMARK                            x       y       z     vdW  Elec       q    Type
REMARK                         _______ _______ _______ _____ _____    ______ ____
ROOT
ATOM      1  N   UNL     1       1.239   2.186  19.896  0.00  0.00    +0.000 NA
ATOM      2  C   UNL     1       1.956   2.755  20.804  0.00  0.00    +0.000 C 
ATOM      3  N   UNL     1       1.610   2.651  22.109  0.00  0.00    +0.000 N 
ATOM      4  N   UNL     1       3.083   3.494  20.612  0.00  0.00    +0.000 N 
ATOM      5  C   UNL     1       3.691   3.730  19.376  0.00  0.00    +0.000 A 
ATOM      6  C   UNL     1       2.960   3.866  18.204  0.00  0.00    +0.000 A 
ATOM      7  C   UNL     1       3.615   4.045  16.987  0.00  0.00    +0.000 A 
ATOM      8  C   UNL     1       5.007   4.127  16.936  0.00  0.00    +0.000 A 
ATOM      9  C   UNL     1       5.649   4.037  18.173  0.00  0.00    +0.000 A 
ATOM     10  N   UNL     1       5.034   3.852  19.374  0.00  0.00    +0.000 NA
ATOM     11  H   UNL     1       0.474   1.665  20.319  0.00  0.00    +0.000 HD
ATOM     12  H   UNL     1       0.663   2.328  22.264  0.00  0.00    +0.000 HD
ATOM     13  H   UNL     1       1.794   3.491  22.648  0.00  0.00    +0.000 HD
ATOM     14  H   UNL     1       3.802   3.403  21.318  0.00  0.00    +0.000 HD
ENDROOT
BRANCH   8  15
ATOM     15  C   UNL     1       5.735   4.299  15.663  0.00  0.00    +0.000 A 
ATOM     16  C   UNL     1       6.883   5.109  15.576  0.00  0.00    +0.000 A 
ATOM     17  C   UNL     1       7.567   5.283  14.370  0.00  0.00    +0.000 A 
ATOM     18  C   UNL     1       7.124   4.637  13.219  0.00  0.00    +0.000 A 
ATOM     19  C   UNL     1       6.001   3.821  13.282  0.00  0.00    +0.000 A 
ATOM     20 CL   UNL     1       5.447   3.017  11.865  0.00  0.00    +0.000 Cl
ATOM     21  C   UNL     1       5.312   3.652  14.485  0.00  0.00    +0.000 A 
ENDBRANCH   8  15
TORSDOF 1
ENDMDL
