MODEL 1
REMARK VINA RESULT:      -7.8      0.000      0.000
REMARK  Name = 
REMARK  8 active torsions:
REMARK  status: ('A' for Active; 'I' for Inactive)
REMARK    1  A    between atoms: C_1  and  C_2
REMARK    2  A    between atoms: C_5  and  O_6
REMARK    3  A    between atoms: O_6  and  C_7
REMARK    4  A    between atoms: C_7  and  C_8
REMARK    5  A    between atoms: C_11  and  S_12
REMARK    6  A    between atoms: S_12  and  C_13
REMARK    7  A    between atoms: C_13  and  C_14
REMARK    8  A    between atoms: C_20  and  C_21
REMARK                            x       y       z     vdW  Elec       q    Type
REMARK                         _______ _______ _______ _____ _____    ______ ____
ROOT
ATOM      1  C   UNL     1       8.326   9.056  18.067  0.00  0.00    +0.000 A 
ATOM      2  N   UNL     1       7.399   8.869  17.147  0.00  0.00    +0.000 NA
ATOM      3  N   UNL     1       7.059   7.535  17.206  0.00  0.00    +0.000 NA
ATOM      4  C   UNL     1       7.801   6.994  18.153  0.00  0.00    +0.000 A 
ATOM      5  O   UNL     1       8.624   7.909  18.755  0.00  0.00    +0.000 OA
ENDROOT
BRANCH   1   6
ATOM      6  C   UNL     1       9.029  10.307  18.459  0.00  0.00    +0.000 C 
BRANCH   6   7
ATOM      7  O   UNL     1       9.333  10.198  19.851  0.00  0.00    +0.000 OA
BRANCH   7  12
ATOM      8  C   UNL     1      10.134  15.247  22.335  0.00  0.00    +0.000 C 
ATOM      9  C   UNL     1       9.916  13.901  21.706  0.00  0.00    +0.000 A 
ATOM     10  C   UNL     1      10.625  13.519  20.557  0.00  0.00    +0.000 A 
ATOM     11  C   UNL     1      10.398  12.268  19.976  0.00  0.00    +0.000 A 
ATOM     12  C   UNL     1       9.481  11.376  20.533  0.00  0.00    +0.000 A 
ATOM     13  C   UNL     1       8.765  11.755  21.668  0.00  0.00    +0.000 A 
ATOM     14  C   UNL     1       8.983  13.012  22.250  0.00  0.00    +0.000 A 
ENDBRANCH   7  12
ENDBRANCH   6   7
ENDBRANCH   1   6
BRANCH   4  15
ATOM     15  S   UNL     1       7.769   5.312  18.576  0.00  0.00    +0.000 S 
BRANCH  15  16
ATOM     16  C   UNL     1       7.297   4.563  16.987  0.00  0.00    +0.000 C 
BRANCH  16  17
ATOM     17  C   UNL     1       5.806   4.278  16.947  0.00  0.00    +0.000 C 
ATOM     18  O   UNL     1       5.160   4.542  15.935  0.00  0.00    +0.000 OA
ATOM     19  N   UNL     1       5.314   3.759  18.127  0.00  0.00    +0.000 N 
ATOM     20  C   UNL     1       3.978   3.516  18.287  0.00  0.00    +0.000 A 
ATOM     21  N   UNL     1       3.045   3.425  17.377  0.00  0.00    +0.000 NA
ATOM     22  C   UNL     1       1.821   3.280  17.993  0.00  0.00    +0.000 A 
ATOM     23  C   UNL     1       1.847   3.256  19.373  0.00  0.00    +0.000 A 
ATOM     24  C   UNL     1       0.715   3.193  20.329  0.00  0.00    +0.000 C 
ATOM     25  S   UNL     1       3.476   3.340  19.910  0.00  0.00    +0.000 S 
ATOM     26  H   UNL     1       5.870   3.779  18.976  0.00  0.00    +0.000 HD
ENDBRANCH  16  17
ENDBRANCH  15  16
ENDBRANCH   4  15
TORSDOF 6
ENDMDL
MODEL 2
REMARK VINA RESULT:      -7.8      4.562      6.868
REMARK  Name = 
REMARK  8 active torsions:
REMARK  status: ('A' for Active; 'I' for Inactive)
REMARK    1  A    between atoms: C_1  and  C_2
REMARK    2  A    between atoms: C_5  and  O_6
REMARK    3  A    between atoms: O_6  and  C_7
REMARK    4  A    between atoms: C_7  and  C_8
REMARK    5  A    between atoms: C_11  and  S_12
REMARK    6  A    between atoms: S_12  and  C_13
REMARK    7  A    between atoms: C_13  and  C_14
REMARK    8  A    between atoms: C_20  and  C_21
REMARK                            x       y       z     vdW  Elec       q    Type
REMARK                         _______ _______ _______ _____ _____    ______ ____
ROOT
ATOM      1  C   UNL     1       2.526   6.784  18.617  0.00  0.00    +0.000 A 
ATOM      2  N   UNL     1       2.519   6.643  19.929  0.00  0.00    +0.000 NA
ATOM      3  N   UNL     1       2.249   5.315  20.174  0.00  0.00    +0.000 NA
ATOM      4  C   UNL     1       2.105   4.732  19.000  0.00  0.00    +0.000 A 
ATOM      5  O   UNL     1       2.282   5.605  17.960  0.00  0.00    +0.000 OA
ENDROOT
BRANCH   1   6
ATOM      6  C   UNL     1       2.792   7.996  17.798  0.00  0.00    +0.000 C 
BRANCH   6   7
ATOM      7  O   UNL     1       1.553   8.696  17.670  0.00  0.00    +0.000 OA
BRANCH   7  12
ATOM      8  C   UNL     1       0.907  13.373  20.834  0.00  0.00    +0.000 C 
ATOM      9  C   UNL     1       1.076  12.120  20.024  0.00  0.00    +0.000 A 
ATOM     10  C   UNL     1       1.834  12.123  18.842  0.00  0.00    +0.000 A 
ATOM     11  C   UNL     1       1.967  10.951  18.092  0.00  0.00    +0.000 A 
ATOM     12  C   UNL     1       1.369   9.761  18.510  0.00  0.00    +0.000 A 
ATOM     13  C   UNL     1       0.605   9.756  19.676  0.00  0.00    +0.000 A 
ATOM     14  C   UNL     1       0.460  10.931  20.428  0.00  0.00    +0.000 A 
ENDBRANCH   7  12
ENDBRANCH   6   7
ENDBRANCH   1   6
BRANCH   4  15
ATOM     15  S   UNL     1       1.708   3.057  18.785  0.00  0.00    +0.000 S 
BRANCH  15  16
ATOM     16  C   UNL     1       3.226   2.437  17.998  0.00  0.00    +0.000 C 
BRANCH  16  17
ATOM     17  C   UNL     1       4.443   3.191  18.506  0.00  0.00    +0.000 C 
ATOM     18  O   UNL     1       4.872   2.970  19.636  0.00  0.00    +0.000 OA
ATOM     19  N   UNL     1       4.933   4.114  17.604  0.00  0.00    +0.000 N 
ATOM     20  C   UNL     1       5.978   4.932  17.930  0.00  0.00    +0.000 A 
ATOM     21  N   UNL     1       6.836   4.817  18.908  0.00  0.00    +0.000 NA
ATOM     22  C   UNL     1       7.654   5.926  18.930  0.00  0.00    +0.000 A 
ATOM     23  C   UNL     1       7.405   6.869  17.953  0.00  0.00    +0.000 A 
ATOM     24  C   UNL     1       8.040   8.194  17.748  0.00  0.00    +0.000 C 
ATOM     25  S   UNL     1       6.149   6.304  16.927  0.00  0.00    +0.000 S 
ATOM     26  H   UNL     1       4.390   4.384  16.790  0.00  0.00    +0.000 HD
ENDBRANCH  16  17
ENDBRANCH  15  16
ENDBRANCH   4  15
TORSDOF 6
ENDMDL
MODEL 3
REMARK VINA RESULT:      -7.7      4.851      7.738
REMARK  Name = 
REMARK  8 active torsions:
REMARK  status: ('A' for Active; 'I' for Inactive)
REMARK    1  A    between atoms: C_1  and  C_2
REMARK    2  A    between atoms: C_5  and  O_6
REMARK    3  A    between atoms: O_6  and  C_7
REMARK    4  A    between atoms: C_7  and  C_8
REMARK    5  A    between atoms: C_11  and  S_12
REMARK    6  A    between atoms: S_12  and  C_13
REMARK    7  A    between atoms: C_13  and  C_14
REMARK    8  A    between atoms: C_20  and  C_21
REMARK                            x       y       z     vdW  Elec       q    Type
REMARK                         _______ _______ _______ _____ _____    ______ ____
ROOT
ATOM      1  C   UNL     1       1.764   6.044  20.052  0.00  0.00    +0.000 A 
ATOM      2  N   UNL     1       1.386   5.041  20.821  0.00  0.00    +0.000 NA
ATOM      3  N   UNL     1       1.507   3.901  20.059  0.00  0.00    +0.000 NA
ATOM      4  C   UNL     1       1.947   4.279  18.874  0.00  0.00    +0.000 A 
ATOM      5  O   UNL     1       2.147   5.632  18.801  0.00  0.00    +0.000 OA
ENDROOT
BRANCH   1   6
ATOM      6  C   UNL     1       1.860   7.494  20.367  0.00  0.00    +0.000 C 
BRANCH   6   7
ATOM      7  O   UNL     1       1.099   7.716  21.556  0.00  0.00    +0.000 OA
BRANCH   7  12
ATOM      8  C   UNL     1      -1.693  12.666  21.511  0.00  0.00    +0.000 C 
ATOM      9  C   UNL     1      -0.943  11.366  21.551  0.00  0.00    +0.000 A 
ATOM     10  C   UNL     1      -0.508  10.749  20.367  0.00  0.00    +0.000 A 
ATOM     11  C   UNL     1       0.175   9.531  20.421  0.00  0.00    +0.000 A 
ATOM     12  C   UNL     1       0.450   8.918  21.645  0.00  0.00    +0.000 A 
ATOM     13  C   UNL     1       0.010   9.521  22.823  0.00  0.00    +0.000 A 
ATOM     14  C   UNL     1      -0.683  10.739  22.773  0.00  0.00    +0.000 A 
ENDBRANCH   7  12
ENDBRANCH   6   7
ENDBRANCH   1   6
BRANCH   4  15
ATOM     15  S   UNL     1       2.218   3.198  17.544  0.00  0.00    +0.000 S 
BRANCH  15  16
ATOM     16  C   UNL     1       3.585   2.187  18.189  0.00  0.00    +0.000 C 
BRANCH  16  17
ATOM     17  C   UNL     1       4.716   3.067  18.693  0.00  0.00    +0.000 C 
ATOM     18  O   UNL     1       5.078   2.987  19.865  0.00  0.00    +0.000 OA
ATOM     19  N   UNL     1       5.211   3.927  17.735  0.00  0.00    +0.000 N 
ATOM     20  C   UNL     1       6.180   4.841  18.040  0.00  0.00    +0.000 A 
ATOM     21  N   UNL     1       6.973   4.881  19.078  0.00  0.00    +0.000 NA
ATOM     22  C   UNL     1       7.720   6.038  19.037  0.00  0.00    +0.000 A 
ATOM     23  C   UNL     1       7.483   6.862  17.956  0.00  0.00    +0.000 A 
ATOM     24  C   UNL     1       8.050   8.199  17.656  0.00  0.00    +0.000 C 
ATOM     25  S   UNL     1       6.338   6.116  16.915  0.00  0.00    +0.000 S 
ATOM     26  H   UNL     1       4.711   4.079  16.864  0.00  0.00    +0.000 HD
ENDBRANCH  16  17
ENDBRANCH  15  16
ENDBRANCH   4  15
TORSDOF 6
ENDMDL
MODEL 4
REMARK VINA RESULT:      -7.7      4.781      7.211
REMARK  Name = 
REMARK  8 active torsions:
REMARK  status: ('A' for Active; 'I' for Inactive)
REMARK    1  A    between atoms: C_1  and  C_2
REMARK    2  A    between atoms: C_5  and  O_6
REMARK    3  A    between atoms: O_6  and  C_7
REMARK    4  A    between atoms: C_7  and  C_8
REMARK    5  A    between atoms: C_11  and  S_12
REMARK    6  A    between atoms: S_12  and  C_13
REMARK    7  A    between atoms: C_13  and  C_14
REMARK    8  A    between atoms: C_20  and  C_21
REMARK                            x       y       z     vdW  Elec       q    Type
REMARK                         _______ _______ _______ _____ _____    ______ ____
ROOT
ATOM      1  C   UNL     1       2.408   6.757  18.838  0.00  0.00    +0.000 A 
ATOM      2  N   UNL     1       2.352   6.685  20.154  0.00  0.00    +0.000 NA
ATOM      3  N   UNL     1       2.122   5.362  20.459  0.00  0.00    +0.000 NA
ATOM      4  C   UNL     1       2.049   4.713  19.313  0.00  0.00    +0.000 A 
ATOM      5  O   UNL     1       2.236   5.538  18.236  0.00  0.00    +0.000 OA
ENDROOT
BRANCH   1   6
ATOM      6  C   UNL     1       2.661   7.935  17.966  0.00  0.00    +0.000 C 
BRANCH   6   7
ATOM      7  O   UNL     1       1.388   8.482  17.620  0.00  0.00    +0.000 OA
BRANCH   7  12
ATOM      8  C   UNL     1       0.055  13.728  19.355  0.00  0.00    +0.000 C 
ATOM      9  C   UNL     1       0.431  12.354  18.880  0.00  0.00    +0.000 A 
ATOM     10  C   UNL     1      -0.546  11.362  18.699  0.00  0.00    +0.000 A 
ATOM     11  C   UNL     1      -0.176  10.084  18.271  0.00  0.00    +0.000 A 
ATOM     12  C   UNL     1       1.159   9.777  18.003  0.00  0.00    +0.000 A 
ATOM     13  C   UNL     1       2.135  10.755  18.194  0.00  0.00    +0.000 A 
ATOM     14  C   UNL     1       1.770  12.036  18.631  0.00  0.00    +0.000 A 
ENDBRANCH   7  12
ENDBRANCH   6   7
ENDBRANCH   1   6
BRANCH   4  15
ATOM     15  S   UNL     1       1.725   3.014  19.173  0.00  0.00    +0.000 S 
BRANCH  15  16
ATOM     16  C   UNL     1       3.162   2.465  18.202  0.00  0.00    +0.000 C 
BRANCH  16  17
ATOM     17  C   UNL     1       4.418   3.200  18.634  0.00  0.00    +0.000 C 
ATOM     18  O   UNL     1       4.925   2.954  19.727  0.00  0.00    +0.000 OA
ATOM     19  N   UNL     1       4.851   4.136  17.718  0.00  0.00    +0.000 N 
ATOM     20  C   UNL     1       5.924   4.939  17.982  0.00  0.00    +0.000 A 
ATOM     21  N   UNL     1       6.849   4.799  18.895  0.00  0.00    +0.000 NA
ATOM     22  C   UNL     1       7.676   5.901  18.878  0.00  0.00    +0.000 A 
ATOM     23  C   UNL     1       7.366   6.865  17.939  0.00  0.00    +0.000 A 
ATOM     24  C   UNL     1       7.997   8.188  17.713  0.00  0.00    +0.000 C 
ATOM     25  S   UNL     1       6.036   6.329  16.995  0.00  0.00    +0.000 S 
ATOM     26  H   UNL     1       4.254   4.426  16.949  0.00  0.00    +0.000 HD
ENDBRANCH  16  17
ENDBRANCH  15  16
ENDBRANCH   4  15
TORSDOF 6
ENDMDL
MODEL 5
REMARK VINA RESULT:      -7.6      4.746      7.415
REMARK  Name = 
REMARK  8 active torsions:
REMARK  status: ('A' for Active; 'I' for Inactive)
REMARK    1  A    between atoms: C_1  and  C_2
REMARK    2  A    between atoms: C_5  and  O_6
REMARK    3  A    between atoms: O_6  and  C_7
REMARK    4  A    between atoms: C_7  and  C_8
REMARK    5  A    between atoms: C_11  and  S_12
REMARK    6  A    between atoms: S_12  and  C_13
REMARK    7  A    between atoms: C_13  and  C_14
REMARK    8  A    between atoms: C_20  and  C_21
REMARK                            x       y       z     vdW  Elec       q    Type
REMARK                         _______ _______ _______ _____ _____    ______ ____
ROOT
ATOM      1  C   UNL     1       2.065   5.994  18.921  0.00  0.00    +0.000 A 
ATOM      2  N   UNL     1       1.756   5.743  17.663  0.00  0.00    +0.000 NA
ATOM      3  N   UNL     1       1.579   4.380  17.572  0.00  0.00    +0.000 NA
ATOM      4  C   UNL     1       1.794   3.887  18.776  0.00  0.00    +0.000 A 
ATOM      5  O   UNL     1       2.096   4.860  19.691  0.00  0.00    +0.000 OA
ENDROOT
BRANCH   1   6
ATOM      6  C   UNL     1       2.334   7.296  19.587  0.00  0.00    +0.000 C 
BRANCH   6   7
ATOM      7  O   UNL     1       1.527   7.340  20.765  0.00  0.00    +0.000 OA
BRANCH   7  12
ATOM      8  C   UNL     1      -1.109  12.332  21.420  0.00  0.00    +0.000 C 
ATOM      9  C   UNL     1      -0.406  11.014  21.277  0.00  0.00    +0.000 A 
ATOM     10  C   UNL     1       0.249  10.671  20.083  0.00  0.00    +0.000 A 
ATOM     11  C   UNL     1       0.884   9.432  19.963  0.00  0.00    +0.000 A 
ATOM     12  C   UNL     1       0.895   8.526  21.024  0.00  0.00    +0.000 A 
ATOM     13  C   UNL     1       0.236   8.856  22.208  0.00  0.00    +0.000 A 
ATOM     14  C   UNL     1      -0.411  10.094  22.331  0.00  0.00    +0.000 A 
ENDBRANCH   7  12
ENDBRANCH   6   7
ENDBRANCH   1   6
BRANCH   4  15
ATOM     15  S   UNL     1       1.733   2.197  19.163  0.00  0.00    +0.000 S 
BRANCH  15  16
ATOM     16  C   UNL     1       3.319   1.626  18.479  0.00  0.00    +0.000 C 
BRANCH  16  17
ATOM     17  C   UNL     1       4.443   2.573  18.861  0.00  0.00    +0.000 C 
ATOM     18  O   UNL     1       4.904   2.548  20.000  0.00  0.00    +0.000 OA
ATOM     19  N   UNL     1       4.814   3.424  17.840  0.00  0.00    +0.000 N 
ATOM     20  C   UNL     1       5.759   4.392  18.037  0.00  0.00    +0.000 A 
ATOM     21  N   UNL     1       6.633   4.502  19.003  0.00  0.00    +0.000 NA
ATOM     22  C   UNL     1       7.315   5.691  18.867  0.00  0.00    +0.000 A 
ATOM     23  C   UNL     1       6.949   6.468  17.786  0.00  0.00    +0.000 A 
ATOM     24  C   UNL     1       7.423   7.820  17.402  0.00  0.00    +0.000 C 
ATOM     25  S   UNL     1       5.761   5.636  16.867  0.00  0.00    +0.000 S 
ATOM     26  H   UNL     1       4.237   3.525  17.011  0.00  0.00    +0.000 HD
ENDBRANCH  16  17
ENDBRANCH  15  16
ENDBRANCH   4  15
TORSDOF 6
ENDMDL
MODEL 6
REMARK VINA RESULT:      -7.6      2.316      2.837
REMARK  Name = 
REMARK  8 active torsions:
REMARK  status: ('A' for Active; 'I' for Inactive)
REMARK    1  A    between atoms: C_1  and  C_2
REMARK    2  A    between atoms: C_5  and  O_6
REMARK    3  A    between atoms: O_6  and  C_7
REMARK    4  A    between atoms: C_7  and  C_8
REMARK    5  A    between atoms: C_11  and  S_12
REMARK    6  A    between atoms: S_12  and  C_13
REMARK    7  A    between atoms: C_13  and  C_14
REMARK    8  A    between atoms: C_20  and  C_21
REMARK                            x       y       z     vdW  Elec       q    Type
REMARK                         _______ _______ _______ _____ _____    ______ ____
ROOT
ATOM      1  C   UNL     1       7.796   7.149  17.753  0.00  0.00    +0.000 A 
ATOM      2  N   UNL     1       7.919   6.252  18.713  0.00  0.00    +0.000 NA
ATOM      3  N   UNL     1       7.602   5.036  18.150  0.00  0.00    +0.000 NA
ATOM      4  C   UNL     1       7.304   5.267  16.886  0.00  0.00    +0.000 A 
ATOM      5  O   UNL     1       7.419   6.592  16.558  0.00  0.00    +0.000 OA
ENDROOT
BRANCH   1   6
ATOM      6  C   UNL     1       8.041   8.615  17.792  0.00  0.00    +0.000 C 
BRANCH   6   7
ATOM      7  O   UNL     1       8.732   8.893  19.011  0.00  0.00    +0.000 OA
BRANCH   7  12
ATOM      8  C   UNL     1      10.567  14.267  19.247  0.00  0.00    +0.000 C 
ATOM      9  C   UNL     1      10.104  12.840  19.206  0.00  0.00    +0.000 A 
ATOM     10  C   UNL     1       9.542  12.298  18.039  0.00  0.00    +0.000 A 
ATOM     11  C   UNL     1       9.102  10.972  18.022  0.00  0.00    +0.000 A 
ATOM     12  C   UNL     1       9.228  10.162  19.152  0.00  0.00    +0.000 A 
ATOM     13  C   UNL     1       9.774  10.698  20.317  0.00  0.00    +0.000 A 
ATOM     14  C   UNL     1      10.209  12.031  20.342  0.00  0.00    +0.000 A 
ENDBRANCH   7  12
ENDBRANCH   6   7
ENDBRANCH   1   6
BRANCH   4  15
ATOM     15  S   UNL     1       6.795   4.045  15.765  0.00  0.00    +0.000 S 
BRANCH  15  16
ATOM     16  C   UNL     1       5.022   4.422  15.621  0.00  0.00    +0.000 C 
BRANCH  16  17
ATOM     17  C   UNL     1       4.363   4.454  16.989  0.00  0.00    +0.000 C 
ATOM     18  O   UNL     1       4.149   3.404  17.589  0.00  0.00    +0.000 OA
ATOM     19  N   UNL     1       4.032   5.726  17.409  0.00  0.00    +0.000 N 
ATOM     20  C   UNL     1       3.365   5.929  18.585  0.00  0.00    +0.000 A 
ATOM     21  N   UNL     1       3.202   5.108  19.588  0.00  0.00    +0.000 NA
ATOM     22  C   UNL     1       2.368   5.687  20.520  0.00  0.00    +0.000 A 
ATOM     23  C   UNL     1       1.912   6.952  20.207  0.00  0.00    +0.000 A 
ATOM     24  C   UNL     1       0.952   7.810  20.944  0.00  0.00    +0.000 C 
ATOM     25  S   UNL     1       2.622   7.460  18.728  0.00  0.00    +0.000 S 
ATOM     26  H   UNL     1       4.046   6.508  16.762  0.00  0.00    +0.000 HD
ENDBRANCH  16  17
ENDBRANCH  15  16
ENDBRANCH   4  15
TORSDOF 6
ENDMDL
MODEL 7
REMARK VINA RESULT:      -7.5      4.553      7.497
REMARK  Name = 
REMARK  8 active torsions:
REMARK  status: ('A' for Active; 'I' for Inactive)
REMARK    1  A    between atoms: C_1  and  C_2
REMARK    2  A    between atoms: C_5  and  O_6
REMARK    3  A    between atoms: O_6  and  C_7
REMARK    4  A    between atoms: C_7  and  C_8
REMARK    5  A    between atoms: C_11  and  S_12
REMARK    6  A    between atoms: S_12  and  C_13
REMARK    7  A    between atoms: C_13  and  C_14
REMARK    8  A    between atoms: C_20  and  C_21
REMARK                            x       y       z     vdW  Elec       q    Type
REMARK                         _______ _______ _______ _____ _____    ______ ____
ROOT
ATOM      1  C   UNL     1       3.380   3.763  17.340  0.00  0.00    +0.000 A 
ATOM      2  N   UNL     1       2.348   3.024  16.981  0.00  0.00    +0.000 NA
ATOM      3  N   UNL     1       1.383   3.212  17.946  0.00  0.00    +0.000 NA
ATOM      4  C   UNL     1       1.887   4.048  18.832  0.00  0.00    +0.000 A 
ATOM      5  O   UNL     1       3.154   4.453  18.503  0.00  0.00    +0.000 OA
ENDROOT
BRANCH   1   6
ATOM      6  C   UNL     1       4.684   3.963  16.654  0.00  0.00    +0.000 C 
BRANCH   6   7
ATOM      7  O   UNL     1       5.690   4.000  17.667  0.00  0.00    +0.000 OA
BRANCH   7  12
ATOM      8  C   UNL     1       8.318   9.033  17.917  0.00  0.00    +0.000 C 
ATOM      9  C   UNL     1       7.651   7.689  17.858  0.00  0.00    +0.000 A 
ATOM     10  C   UNL     1       6.578   7.455  16.984  0.00  0.00    +0.000 A 
ATOM     11  C   UNL     1       5.958   6.203  16.954  0.00  0.00    +0.000 A 
ATOM     12  C   UNL     1       6.402   5.164  17.774  0.00  0.00    +0.000 A 
ATOM     13  C   UNL     1       7.459   5.395  18.653  0.00  0.00    +0.000 A 
ATOM     14  C   UNL     1       8.079   6.652  18.694  0.00  0.00    +0.000 A 
ENDBRANCH   7  12
ENDBRANCH   6   7
ENDBRANCH   1   6
BRANCH   4  15
ATOM     15  S   UNL     1       1.062   4.561  20.269  0.00  0.00    +0.000 S 
BRANCH  15  16
ATOM     16  C   UNL     1       2.197   5.842  20.884  0.00  0.00    +0.000 C 
BRANCH  16  17
ATOM     17  C   UNL     1       1.663   7.230  20.574  0.00  0.00    +0.000 C 
ATOM     18  O   UNL     1       2.060   7.829  19.578  0.00  0.00    +0.000 OA
ATOM     19  N   UNL     1       0.772   7.698  21.517  0.00  0.00    +0.000 N 
ATOM     20  C   UNL     1       0.253   8.960  21.432  0.00  0.00    +0.000 A 
ATOM     21  N   UNL     1       0.235   9.773  20.409  0.00  0.00    +0.000 NA
ATOM     22  C   UNL     1      -0.289  10.985  20.799  0.00  0.00    +0.000 A 
ATOM     23  C   UNL     1      -0.670  11.072  22.123  0.00  0.00    +0.000 A 
ATOM     24  C   UNL     1      -1.189  12.241  22.874  0.00  0.00    +0.000 C 
ATOM     25  S   UNL     1      -0.432   9.549  22.881  0.00  0.00    +0.000 S 
ATOM     26  H   UNL     1       0.669   7.232  22.414  0.00  0.00    +0.000 HD
ENDBRANCH  16  17
ENDBRANCH  15  16
ENDBRANCH   4  15
TORSDOF 6
ENDMDL
MODEL 8
REMARK VINA RESULT:      -7.5      3.132     10.221
REMARK  Name = 
REMARK  8 active torsions:
REMARK  status: ('A' for Active; 'I' for Inactive)
REMARK    1  A    between atoms: C_1  and  C_2
REMARK    2  A    between atoms: C_5  and  O_6
REMARK    3  A    between atoms: O_6  and  C_7
REMARK    4  A    between atoms: C_7  and  C_8
REMARK    5  A    between atoms: C_11  and  S_12
REMARK    6  A    between atoms: S_12  and  C_13
REMARK    7  A    between atoms: C_13  and  C_14
REMARK    8  A    between atoms: C_20  and  C_21
REMARK                            x       y       z     vdW  Elec       q    Type
REMARK                         _______ _______ _______ _____ _____    ______ ____
ROOT
ATOM      1  C   UNL     1       7.016   5.972  17.138  0.00  0.00    +0.000 A 
ATOM      2  N   UNL     1       7.574   5.794  18.320  0.00  0.00    +0.000 NA
ATOM      3  N   UNL     1       8.077   7.019  18.699  0.00  0.00    +0.000 NA
ATOM      4  C   UNL     1       7.798   7.864  17.725  0.00  0.00    +0.000 A 
ATOM      5  O   UNL     1       7.109   7.269  16.701  0.00  0.00    +0.000 OA
ENDROOT
BRANCH   1   6
ATOM      6  C   UNL     1       6.296   4.997  16.275  0.00  0.00    +0.000 C 
BRANCH   6   7
ATOM      7  O   UNL     1       4.954   5.467  16.140  0.00  0.00    +0.000 OA
BRANCH   7  12
ATOM      8  C   UNL     1       1.062   3.942  19.991  0.00  0.00    +0.000 C 
ATOM      9  C   UNL     1       2.105   4.318  18.978  0.00  0.00    +0.000 A 
ATOM     10  C   UNL     1       2.476   5.659  18.789  0.00  0.00    +0.000 A 
ATOM     11  C   UNL     1       3.437   5.992  17.830  0.00  0.00    +0.000 A 
ATOM     12  C   UNL     1       4.053   5.004  17.061  0.00  0.00    +0.000 A 
ATOM     13  C   UNL     1       3.679   3.672  17.236  0.00  0.00    +0.000 A 
ATOM     14  C   UNL     1       2.710   3.333  18.190  0.00  0.00    +0.000 A 
ENDBRANCH   7  12
ENDBRANCH   6   7
ENDBRANCH   1   6
BRANCH   4  15
ATOM     15  S   UNL     1       8.269   9.533  17.718  0.00  0.00    +0.000 S 
BRANCH  15  16
ATOM     16  C   UNL     1       9.112   9.664  19.324  0.00  0.00    +0.000 C 
BRANCH  16  17
ATOM     17  C   UNL     1       9.558  11.093  19.585  0.00  0.00    +0.000 C 
ATOM     18  O   UNL     1       9.218  11.660  20.620  0.00  0.00    +0.000 OA
ATOM     19  N   UNL     1      10.304  11.632  18.557  0.00  0.00    +0.000 N 
ATOM     20  C   UNL     1      10.721  12.933  18.595  0.00  0.00    +0.000 A 
ATOM     21  N   UNL     1      10.777  13.747  19.615  0.00  0.00    +0.000 NA
ATOM     22  C   UNL     1      11.155  14.998  19.180  0.00  0.00    +0.000 A 
ATOM     23  C   UNL     1      11.387  15.112  17.824  0.00  0.00    +0.000 A 
ATOM     24  C   UNL     1      11.725  16.319  17.030  0.00  0.00    +0.000 C 
ATOM     25  S   UNL     1      11.200  13.573  17.086  0.00  0.00    +0.000 S 
ATOM     26  H   UNL     1      10.351  11.173  17.652  0.00  0.00    +0.000 HD
ENDBRANCH  16  17
ENDBRANCH  15  16
ENDBRANCH   4  15
TORSDOF 6
ENDMDL
MODEL 9
REMARK VINA RESULT:      -7.4      4.823      7.593
REMARK  Name = 
REMARK  8 active torsions:
REMARK  status: ('A' for Active; 'I' for Inactive)
REMARK    1  A    between atoms: C_1  and  C_2
REMARK    2  A    between atoms: C_5  and  O_6
REMARK    3  A    between atoms: O_6  and  C_7
REMARK    4  A    between atoms: C_7  and  C_8
REMARK    5  A    between atoms: C_11  and  S_12
REMARK    6  A    between atoms: S_12  and  C_13
REMARK    7  A    between atoms: C_13  and  C_14
REMARK    8  A    between atoms: C_20  and  C_21
REMARK                            x       y       z     vdW  Elec       q    Type
REMARK                         _______ _______ _______ _____ _____    ______ ____
ROOT
ATOM      1  C   UNL     1       2.105   5.937  20.018  0.00  0.00    +0.000 A 
ATOM      2  N   UNL     1       2.189   5.365  21.204  0.00  0.00    +0.000 NA
ATOM      3  N   UNL     1       1.970   4.020  21.002  0.00  0.00    +0.000 NA
ATOM      4  C   UNL     1       1.763   3.858  19.709  0.00  0.00    +0.000 A 
ATOM      5  O   UNL     1       1.847   5.036  19.017  0.00  0.00    +0.000 OA
ENDROOT
BRANCH   1   6
ATOM      6  C   UNL     1       2.283   7.365  19.642  0.00  0.00    +0.000 C 
BRANCH   6   7
ATOM      7  O   UNL     1       1.689   8.149  20.677  0.00  0.00    +0.000 OA
BRANCH   7  12
ATOM      8  C   UNL     1      -1.516  12.666  19.399  0.00  0.00    +0.000 C 
ATOM      9  C   UNL     1      -0.676  11.461  19.709  0.00  0.00    +0.000 A 
ATOM     10  C   UNL     1      -0.537  10.999  21.027  0.00  0.00    +0.000 A 
ATOM     11  C   UNL     1       0.262   9.885  21.299  0.00  0.00    +0.000 A 
ATOM     12  C   UNL     1       0.917   9.205  20.271  0.00  0.00    +0.000 A 
ATOM     13  C   UNL     1       0.792   9.666  18.961  0.00  0.00    +0.000 A 
ATOM     14  C   UNL     1      -0.001  10.789  18.684  0.00  0.00    +0.000 A 
ENDBRANCH   7  12
ENDBRANCH   6   7
ENDBRANCH   1   6
BRANCH   4  15
ATOM     15  S   UNL     1       1.395   2.334  18.965  0.00  0.00    +0.000 S 
BRANCH  15  16
ATOM     16  C   UNL     1       2.623   2.298  17.623  0.00  0.00    +0.000 C 
BRANCH  16  17
ATOM     17  C   UNL     1       3.937   2.909  18.077  0.00  0.00    +0.000 C 
ATOM     18  O   UNL     1       4.489   2.487  19.091  0.00  0.00    +0.000 OA
ATOM     19  N   UNL     1       4.366   3.947  17.277  0.00  0.00    +0.000 N 
ATOM     20  C   UNL     1       5.491   4.658  17.586  0.00  0.00    +0.000 A 
ATOM     21  N   UNL     1       6.456   4.350  18.411  0.00  0.00    +0.000 NA
ATOM     22  C   UNL     1       7.336   5.406  18.499  0.00  0.00    +0.000 A 
ATOM     23  C   UNL     1       7.025   6.507  17.726  0.00  0.00    +0.000 A 
ATOM     24  C   UNL     1       7.709   7.821  17.650  0.00  0.00    +0.000 C 
ATOM     25  S   UNL     1       5.619   6.169  16.799  0.00  0.00    +0.000 S 
ATOM     26  H   UNL     1       3.743   4.370  16.595  0.00  0.00    +0.000 HD
ENDBRANCH  16  17
ENDBRANCH  15  16
ENDBRANCH   4  15
TORSDOF 6
ENDMDL
