MODEL 1
REMARK VINA RESULT:      -6.0      0.000      0.000
REMARK  Name = 
REMARK  11 active torsions:
REMARK  status: ('A' for Active; 'I' for Inactive)
REMARK    1  A    between atoms: C_1  and  C_2
REMARK    2  A    between atoms: C_2  and  C_3
REMARK    3  A    between atoms: C_2  and  N_4
REMARK    4  A    between atoms: N_4  and  C_29
REMARK    5  A    between atoms: C_5  and  C_7
REMARK    6  A    between atoms: C_16  and  C_17
REMARK    7  A    between atoms: C_17  and  O_19
REMARK    8  A    between atoms: C_22  and  C_23
REMARK    9  A    between atoms: C_27  and  C_28
REMARK   10  A    between atoms: C_29  and  C_30
REMARK   11  A    between atoms: C_29  and  C_31
REMARK                            x       y       z     vdW  Elec       q    Type
REMARK                         _______ _______ _______ _____ _____    ______ ____
ROOT
ATOM      1  C   UNL     1      -3.218  15.039  22.478  0.00  0.00    +0.000 C 
ATOM      2  C   UNL     1      -2.957  16.477  22.054  0.00  0.00    +0.000 C 
ATOM      3  C   UNL     1      -1.808  16.249  21.093  0.00  0.00    +0.000 C 
ATOM      4  C   UNL     1      -0.894  15.210  21.797  0.00  0.00    +0.000 C 
ATOM      5  C   UNL     1      -0.134  14.260  20.820  0.00  0.00    +0.000 C 
ATOM      6  C   UNL     1      -0.009  14.799  19.379  0.00  0.00    +0.000 C 
ATOM      7  C   UNL     1       0.674  13.823  18.442  0.00  0.00    +0.000 C 
ATOM      8  C   UNL     1       0.030  12.446  18.507  0.00  0.00    +0.000 C 
ATOM      9  C   UNL     1      -1.359  12.428  17.910  0.00  0.00    +0.000 C 
ATOM     10  C   UNL     1      -1.983  11.237  17.853  0.00  0.00    +0.000 C 
ATOM     11  C   UNL     1      -1.629  10.220  18.839  0.00  0.00    +0.000 C 
ATOM     12  C   UNL     1      -0.742  10.482  19.825  0.00  0.00    +0.000 C 
ATOM     13  C   UNL     1       0.041  11.811  19.918  0.00  0.00    +0.000 C 
ATOM     14  C   UNL     1       1.493  11.500  20.340  0.00  0.00    +0.000 C 
ATOM     15  C   UNL     1      -0.659  12.804  20.900  0.00  0.00    +0.000 C 
ATOM     16  C   UNL     1      -0.577  12.386  22.371  0.00  0.00    +0.000 C 
ATOM     17  C   UNL     1      -1.746  13.022  23.097  0.00  0.00    +0.000 C 
ATOM     18  C   UNL     1      -1.802  14.566  22.945  0.00  0.00    +0.000 C 
ATOM     19  C   UNL     1      -1.342  15.148  24.305  0.00  0.00    +0.000 C 
ENDROOT
BRANCH   1  21
ATOM     20  N   UNL     1      -5.649  14.439  22.792  0.00  0.00    +0.000 N 
ATOM     21  C   UNL     1      -4.452  14.915  23.363  0.00  0.00    +0.000 C 
ATOM     22  O   UNL     1      -4.389  15.296  24.536  0.00  0.00    +0.000 OA
BRANCH  20  24
ATOM     23  C   UNL     1      -6.010  14.499  20.228  0.00  0.00    +0.000 C 
ATOM     24  C   UNL     1      -5.767  13.676  21.507  0.00  0.00    +0.000 C 
ATOM     25  C   UNL     1      -4.650  12.641  21.343  0.00  0.00    +0.000 C 
ENDBRANCH  20  24
BRANCH  20  26
ATOM     26  C   UNL     1      -6.802  14.238  23.719  0.00  0.00    +0.000 C 
ATOM     27  C   UNL     1      -7.917  15.245  23.466  0.00  0.00    +0.000 C 
ATOM     28  C   UNL     1      -7.340  12.805  23.769  0.00  0.00    +0.000 C 
ENDBRANCH  20  26
ENDBRANCH   1  21
BRANCH  10  29
ATOM     29  C   UNL     1      -2.858  11.071  16.652  0.00  0.00    +0.000 C 
ATOM     30  O   UNL     1      -2.494  10.522  15.621  0.00  0.00    +0.000 OA
BRANCH  29  31
ATOM     31  O   UNL     1      -4.142  11.438  16.834  0.00  0.00    +0.000 OA
ATOM     32  H   UNL     1      -4.802  10.772  16.584  0.00  0.00    +0.000 HD
ENDBRANCH  29  31
ENDBRANCH  10  29
TORSDOF 5
ENDMDL
MODEL 2
REMARK VINA RESULT:      -6.0      0.670      1.125
REMARK  Name = 
REMARK  11 active torsions:
REMARK  status: ('A' for Active; 'I' for Inactive)
REMARK    1  A    between atoms: C_1  and  C_2
REMARK    2  A    between atoms: C_2  and  C_3
REMARK    3  A    between atoms: C_2  and  N_4
REMARK    4  A    between atoms: N_4  and  C_29
REMARK    5  A    between atoms: C_5  and  C_7
REMARK    6  A    between atoms: C_16  and  C_17
REMARK    7  A    between atoms: C_17  and  O_19
REMARK    8  A    between atoms: C_22  and  C_23
REMARK    9  A    between atoms: C_27  and  C_28
REMARK   10  A    between atoms: C_29  and  C_30
REMARK   11  A    between atoms: C_29  and  C_31
REMARK                            x       y       z     vdW  Elec       q    Type
REMARK                         _______ _______ _______ _____ _____    ______ ____
ROOT
ATOM      1  C   UNL     1      -3.509  14.716  22.285  0.00  0.00    +0.000 C 
ATOM      2  C   UNL     1      -3.052  16.144  22.029  0.00  0.00    +0.000 C 
ATOM      3  C   UNL     1      -1.815  15.866  21.200  0.00  0.00    +0.000 C 
ATOM      4  C   UNL     1      -1.110  14.680  21.913  0.00  0.00    +0.000 C 
ATOM      5  C   UNL     1      -0.328  13.730  20.954  0.00  0.00    +0.000 C 
ATOM      6  C   UNL     1       0.039  14.363  19.594  0.00  0.00    +0.000 C 
ATOM      7  C   UNL     1       0.738  13.392  18.663  0.00  0.00    +0.000 C 
ATOM      8  C   UNL     1      -0.043  12.094  18.524  0.00  0.00    +0.000 C 
ATOM      9  C   UNL     1      -1.336  12.277  17.762  0.00  0.00    +0.000 C 
ATOM     10  C   UNL     1      -2.063  11.169  17.521  0.00  0.00    +0.000 C 
ATOM     11  C   UNL     1      -1.945  10.047  18.447  0.00  0.00    +0.000 C 
ATOM     12  C   UNL     1      -1.173  10.131  19.553  0.00  0.00    +0.000 C 
ATOM     13  C   UNL     1      -0.281  11.354  19.862  0.00  0.00    +0.000 C 
ATOM     14  C   UNL     1       1.065  10.853  20.429  0.00  0.00    +0.000 C 
ATOM     15  C   UNL     1      -1.001  12.340  20.837  0.00  0.00    +0.000 C 
ATOM     16  C   UNL     1      -1.156  11.803  22.262  0.00  0.00    +0.000 C 
ATOM     17  C   UNL     1      -2.341  12.507  22.895  0.00  0.00    +0.000 C 
ATOM     18  C   UNL     1      -2.221  14.055  22.878  0.00  0.00    +0.000 C 
ATOM     19  C   UNL     1      -1.888  14.475  24.331  0.00  0.00    +0.000 C 
ENDROOT
BRANCH   1  21
ATOM     20  N   UNL     1      -6.004  14.339  22.249  0.00  0.00    +0.000 N 
ATOM     21  C   UNL     1      -4.855  14.661  22.998  0.00  0.00    +0.000 C 
ATOM     22  O   UNL     1      -4.913  14.964  24.193  0.00  0.00    +0.000 OA
BRANCH  20  24
ATOM     23  C   UNL     1      -6.094  12.131  20.897  0.00  0.00    +0.000 C 
ATOM     24  C   UNL     1      -6.019  13.669  20.908  0.00  0.00    +0.000 C 
ATOM     25  C   UNL     1      -7.021  14.318  19.948  0.00  0.00    +0.000 C 
ENDBRANCH  20  24
BRANCH  20  26
ATOM     26  C   UNL     1      -7.283  14.198  23.007  0.00  0.00    +0.000 C 
ATOM     27  C   UNL     1      -7.155  13.211  24.159  0.00  0.00    +0.000 C 
ATOM     28  C   UNL     1      -7.902  15.521  23.466  0.00  0.00    +0.000 C 
ENDBRANCH  20  26
ENDBRANCH   1  21
BRANCH  10  29
ATOM     29  C   UNL     1      -2.784  11.194  16.212  0.00  0.00    +0.000 C 
ATOM     30  O   UNL     1      -2.405  10.589  15.219  0.00  0.00    +0.000 OA
BRANCH  29  31
ATOM     31  O   UNL     1      -3.980  11.817  16.238  0.00  0.00    +0.000 OA
ATOM     32  H   UNL     1      -4.269  12.123  17.112  0.00  0.00    +0.000 HD
ENDBRANCH  29  31
ENDBRANCH  10  29
TORSDOF 5
ENDMDL
MODEL 3
REMARK VINA RESULT:      -5.7      0.938      1.095
REMARK  Name = 
REMARK  11 active torsions:
REMARK  status: ('A' for Active; 'I' for Inactive)
REMARK    1  A    between atoms: C_1  and  C_2
REMARK    2  A    between atoms: C_2  and  C_3
REMARK    3  A    between atoms: C_2  and  N_4
REMARK    4  A    between atoms: N_4  and  C_29
REMARK    5  A    between atoms: C_5  and  C_7
REMARK    6  A    between atoms: C_16  and  C_17
REMARK    7  A    between atoms: C_17  and  O_19
REMARK    8  A    between atoms: C_22  and  C_23
REMARK    9  A    between atoms: C_27  and  C_28
REMARK   10  A    between atoms: C_29  and  C_30
REMARK   11  A    between atoms: C_29  and  C_31
REMARK                            x       y       z     vdW  Elec       q    Type
REMARK                         _______ _______ _______ _____ _____    ______ ____
ROOT
ATOM      1  C   UNL     1      -3.397  15.750  22.215  0.00  0.00    +0.000 C 
ATOM      2  C   UNL     1      -3.492  17.080  21.482  0.00  0.00    +0.000 C 
ATOM      3  C   UNL     1      -2.327  16.923  20.526  0.00  0.00    +0.000 C 
ATOM      4  C   UNL     1      -1.186  16.306  21.380  0.00  0.00    +0.000 C 
ATOM      5  C   UNL     1      -0.225  15.370  20.583  0.00  0.00    +0.000 C 
ATOM      6  C   UNL     1      -0.242  15.595  19.056  0.00  0.00    +0.000 C 
ATOM      7  C   UNL     1       0.651  14.624  18.308  0.00  0.00    +0.000 C 
ATOM      8  C   UNL     1       0.358  13.184  18.700  0.00  0.00    +0.000 C 
ATOM      9  C   UNL     1      -0.990  12.711  18.202  0.00  0.00    +0.000 C 
ATOM     10  C   UNL     1      -1.309  11.424  18.434  0.00  0.00    +0.000 C 
ATOM     11  C   UNL     1      -0.715  10.760  19.591  0.00  0.00    +0.000 C 
ATOM     12  C   UNL     1       0.089  11.431  20.445  0.00  0.00    +0.000 C 
ATOM     13  C   UNL     1       0.529  12.893  20.210  0.00  0.00    +0.000 C 
ATOM     14  C   UNL     1       2.016  13.030  20.604  0.00  0.00    +0.000 C 
ATOM     15  C   UNL     1      -0.384  13.886  20.999  0.00  0.00    +0.000 C 
ATOM     16  C   UNL     1      -0.195  13.831  22.518  0.00  0.00    +0.000 C 
ATOM     17  C   UNL     1      -1.479  14.320  23.160  0.00  0.00    +0.000 C 
ATOM     18  C   UNL     1      -1.906  15.736  22.689  0.00  0.00    +0.000 C 
ATOM     19  C   UNL     1      -1.592  16.693  23.866  0.00  0.00    +0.000 C 
ENDROOT
BRANCH   1  21
ATOM     20  N   UNL     1      -5.618  14.695  22.783  0.00  0.00    +0.000 N 
ATOM     21  C   UNL     1      -4.559  15.539  23.177  0.00  0.00    +0.000 C 
ATOM     22  O   UNL     1      -4.576  16.161  24.243  0.00  0.00    +0.000 OA
BRANCH  20  24
ATOM     23  C   UNL     1      -5.792  14.182  20.250  0.00  0.00    +0.000 C 
ATOM     24  C   UNL     1      -5.566  13.674  21.686  0.00  0.00    +0.000 C 
ATOM     25  C   UNL     1      -4.345  12.757  21.806  0.00  0.00    +0.000 C 
ENDBRANCH  20  24
BRANCH  20  26
ATOM     26  C   UNL     1      -6.684  14.437  23.796  0.00  0.00    +0.000 C 
ATOM     27  C   UNL     1      -7.910  15.311  23.566  0.00  0.00    +0.000 C 
ATOM     28  C   UNL     1      -7.067  12.963  23.959  0.00  0.00    +0.000 C 
ENDBRANCH  20  26
ENDBRANCH   1  21
BRANCH  10  29
ATOM     29  C   UNL     1      -2.124  10.799  17.349  0.00  0.00    +0.000 C 
ATOM     30  O   UNL     1      -2.748   9.756  17.487  0.00  0.00    +0.000 OA
BRANCH  29  31
ATOM     31  O   UNL     1      -2.251  11.549  16.235  0.00  0.00    +0.000 OA
ATOM     32  H   UNL     1      -3.054  12.092  16.191  0.00  0.00    +0.000 HD
ENDBRANCH  29  31
ENDBRANCH  10  29
TORSDOF 5
ENDMDL
MODEL 4
REMARK VINA RESULT:      -5.6      4.230      7.261
REMARK  Name = 
REMARK  11 active torsions:
REMARK  status: ('A' for Active; 'I' for Inactive)
REMARK    1  A    between atoms: C_1  and  C_2
REMARK    2  A    between atoms: C_2  and  C_3
REMARK    3  A    between atoms: C_2  and  N_4
REMARK    4  A    between atoms: N_4  and  C_29
REMARK    5  A    between atoms: C_5  and  C_7
REMARK    6  A    between atoms: C_16  and  C_17
REMARK    7  A    between atoms: C_17  and  O_19
REMARK    8  A    between atoms: C_22  and  C_23
REMARK    9  A    between atoms: C_27  and  C_28
REMARK   10  A    between atoms: C_29  and  C_30
REMARK   11  A    between atoms: C_29  and  C_31
REMARK                            x       y       z     vdW  Elec       q    Type
REMARK                         _______ _______ _______ _____ _____    ______ ____
ROOT
ATOM      1  C   UNL     1       1.671  16.104  20.257  0.00  0.00    +0.000 C 
ATOM      2  C   UNL     1       1.162  17.054  21.331  0.00  0.00    +0.000 C 
ATOM      3  C   UNL     1      -0.093  16.313  21.746  0.00  0.00    +0.000 C 
ATOM      4  C   UNL     1      -0.736  15.835  20.416  0.00  0.00    +0.000 C 
ATOM      5  C   UNL     1      -1.521  14.491  20.532  0.00  0.00    +0.000 C 
ATOM      6  C   UNL     1      -1.952  14.129  21.970  0.00  0.00    +0.000 C 
ATOM      7  C   UNL     1      -2.651  12.787  22.055  0.00  0.00    +0.000 C 
ATOM      8  C   UNL     1      -1.835  11.691  21.385  0.00  0.00    +0.000 C 
ATOM      9  C   UNL     1      -0.574  11.360  22.151  0.00  0.00    +0.000 C 
ATOM     10  C   UNL     1       0.179  10.349  21.678  0.00  0.00    +0.000 C 
ATOM     11  C   UNL     1       0.127  10.054  20.249  0.00  0.00    +0.000 C 
ATOM     12  C   UNL     1      -0.610  10.812  19.406  0.00  0.00    +0.000 C 
ATOM     13  C   UNL     1      -1.529  11.955  19.892  0.00  0.00    +0.000 C 
ATOM     14  C   UNL     1      -2.840  11.915  19.075  0.00  0.00    +0.000 C 
ATOM     15  C   UNL     1      -0.808  13.336  19.783  0.00  0.00    +0.000 C 
ATOM     16  C   UNL     1      -0.590  13.813  18.344  0.00  0.00    +0.000 C 
ATOM     17  C   UNL     1       0.593  14.762  18.346  0.00  0.00    +0.000 C 
ATOM     18  C   UNL     1       0.425  15.956  19.323  0.00  0.00    +0.000 C 
ATOM     19  C   UNL     1       0.127  17.194  18.441  0.00  0.00    +0.000 C 
ENDROOT
BRANCH   1  21
ATOM     20  N   UNL     1       4.191  16.010  20.371  0.00  0.00    +0.000 N 
ATOM     21  C   UNL     1       3.041  16.513  19.729  0.00  0.00    +0.000 C 
ATOM     22  O   UNL     1       3.108  17.323  18.800  0.00  0.00    +0.000 OA
BRANCH  20  24
ATOM     23  C   UNL     1       4.273  15.091  22.791  0.00  0.00    +0.000 C 
ATOM     24  C   UNL     1       4.240  14.816  21.276  0.00  0.00    +0.000 C 
ATOM     25  C   UNL     1       3.209  13.752  20.889  0.00  0.00    +0.000 C 
ENDBRANCH  20  24
BRANCH  20  26
ATOM     26  C   UNL     1       5.508  16.356  19.758  0.00  0.00    +0.000 C 
ATOM     27  C   UNL     1       6.165  17.540  20.453  0.00  0.00    +0.000 C 
ATOM     28  C   UNL     1       6.476  15.177  19.618  0.00  0.00    +0.000 C 
ENDBRANCH  20  26
ENDBRANCH   1  21
BRANCH  10  29
ATOM     29  C   UNL     1       0.856   9.550  22.745  0.00  0.00    +0.000 C 
ATOM     30  O   UNL     1       0.511   9.561  23.919  0.00  0.00    +0.000 OA
BRANCH  29  31
ATOM     31  O   UNL     1       1.791   8.688  22.298  0.00  0.00    +0.000 OA
ATOM     32  H   UNL     1       1.844   7.848  22.779  0.00  0.00    +0.000 HD
ENDBRANCH  29  31
ENDBRANCH  10  29
TORSDOF 5
ENDMDL
MODEL 5
REMARK VINA RESULT:      -5.6      2.380      6.307
REMARK  Name = 
REMARK  11 active torsions:
REMARK  status: ('A' for Active; 'I' for Inactive)
REMARK    1  A    between atoms: C_1  and  C_2
REMARK    2  A    between atoms: C_2  and  C_3
REMARK    3  A    between atoms: C_2  and  N_4
REMARK    4  A    between atoms: N_4  and  C_29
REMARK    5  A    between atoms: C_5  and  C_7
REMARK    6  A    between atoms: C_16  and  C_17
REMARK    7  A    between atoms: C_17  and  O_19
REMARK    8  A    between atoms: C_22  and  C_23
REMARK    9  A    between atoms: C_27  and  C_28
REMARK   10  A    between atoms: C_29  and  C_30
REMARK   11  A    between atoms: C_29  and  C_31
REMARK                            x       y       z     vdW  Elec       q    Type
REMARK                         _______ _______ _______ _____ _____    ______ ____
ROOT
ATOM      1  C   UNL     1      -1.252  13.019  22.004  0.00  0.00    +0.000 C 
ATOM      2  C   UNL     1      -1.269  11.887  23.021  0.00  0.00    +0.000 C 
ATOM      3  C   UNL     1      -2.728  11.939  23.427  0.00  0.00    +0.000 C 
ATOM      4  C   UNL     1      -3.052  13.451  23.575  0.00  0.00    +0.000 C 
ATOM      5  C   UNL     1      -4.526  13.826  23.226  0.00  0.00    +0.000 C 
ATOM      6  C   UNL     1      -5.514  12.642  23.288  0.00  0.00    +0.000 C 
ATOM      7  C   UNL     1      -6.921  13.028  22.879  0.00  0.00    +0.000 C 
ATOM      8  C   UNL     1      -6.934  13.745  21.537  0.00  0.00    +0.000 C 
ATOM      9  C   UNL     1      -6.588  12.825  20.387  0.00  0.00    +0.000 C 
ATOM     10  C   UNL     1      -6.646  13.349  19.148  0.00  0.00    +0.000 C 
ATOM     11  C   UNL     1      -6.427  14.783  18.990  0.00  0.00    +0.000 C 
ATOM     12  C   UNL     1      -6.114  15.563  20.049  0.00  0.00    +0.000 C 
ATOM     13  C   UNL     1      -6.077  15.032  21.500  0.00  0.00    +0.000 C 
ATOM     14  C   UNL     1      -6.694  16.098  22.431  0.00  0.00    +0.000 C 
ATOM     15  C   UNL     1      -4.620  14.655  21.920  0.00  0.00    +0.000 C 
ATOM     16  C   UNL     1      -3.691  15.859  22.093  0.00  0.00    +0.000 C 
ATOM     17  C   UNL     1      -2.268  15.378  21.879  0.00  0.00    +0.000 C 
ATOM     18  C   UNL     1      -1.865  14.207  22.815  0.00  0.00    +0.000 C 
ATOM     19  C   UNL     1      -0.922  14.817  23.883  0.00  0.00    +0.000 C 
ENDROOT
BRANCH   1  21
ATOM     20  N   UNL     1       0.273  12.412  20.087  0.00  0.00    +0.000 N 
ATOM     21  C   UNL     1       0.089  13.127  21.287  0.00  0.00    +0.000 C 
ATOM     22  O   UNL     1       0.996  13.782  21.808  0.00  0.00    +0.000 OA
BRANCH  20  24
ATOM     23  C   UNL     1      -1.182  10.372  19.430  0.00  0.00    +0.000 C 
ATOM     24  C   UNL     1      -0.815  11.853  19.221  0.00  0.00    +0.000 C 
ATOM     25  C   UNL     1      -2.043  12.767  19.172  0.00  0.00    +0.000 C 
ENDBRANCH  20  24
BRANCH  20  26
ATOM     26  C   UNL     1       1.564  12.628  19.368  0.00  0.00    +0.000 C 
ATOM     27  C   UNL     1       1.956  11.419  18.528  0.00  0.00    +0.000 C 
ATOM     28  C   UNL     1       1.633  13.924  18.555  0.00  0.00    +0.000 C 
ENDBRANCH  20  26
ENDBRANCH   1  21
BRANCH  10  29
ATOM     29  C   UNL     1      -7.099  12.380  18.104  0.00  0.00    +0.000 C 
ATOM     30  O   UNL     1      -7.138  12.642  16.910  0.00  0.00    +0.000 OA
BRANCH  29  31
ATOM     31  O   UNL     1      -7.325  11.129  18.554  0.00  0.00    +0.000 OA
ATOM     32  H   UNL     1      -7.372  11.039  19.519  0.00  0.00    +0.000 HD
ENDBRANCH  29  31
ENDBRANCH  10  29
TORSDOF 5
ENDMDL
MODEL 6
REMARK VINA RESULT:      -5.5      4.087      7.167
REMARK  Name = 
REMARK  11 active torsions:
REMARK  status: ('A' for Active; 'I' for Inactive)
REMARK    1  A    between atoms: C_1  and  C_2
REMARK    2  A    between atoms: C_2  and  C_3
REMARK    3  A    between atoms: C_2  and  N_4
REMARK    4  A    between atoms: N_4  and  C_29
REMARK    5  A    between atoms: C_5  and  C_7
REMARK    6  A    between atoms: C_16  and  C_17
REMARK    7  A    between atoms: C_17  and  O_19
REMARK    8  A    between atoms: C_22  and  C_23
REMARK    9  A    between atoms: C_27  and  C_28
REMARK   10  A    between atoms: C_29  and  C_30
REMARK   11  A    between atoms: C_29  and  C_31
REMARK                            x       y       z     vdW  Elec       q    Type
REMARK                         _______ _______ _______ _____ _____    ______ ____
ROOT
ATOM      1  C   UNL     1       1.698  16.426  20.966  0.00  0.00    +0.000 C 
ATOM      2  C   UNL     1       1.682  17.155  22.302  0.00  0.00    +0.000 C 
ATOM      3  C   UNL     1       0.504  16.458  22.952  0.00  0.00    +0.000 C 
ATOM      4  C   UNL     1      -0.568  16.350  21.834  0.00  0.00    +0.000 C 
ATOM      5  C   UNL     1      -1.483  15.091  21.946  0.00  0.00    +0.000 C 
ATOM      6  C   UNL     1      -1.525  14.459  23.353  0.00  0.00    +0.000 C 
ATOM      7  C   UNL     1      -2.369  13.202  23.409  0.00  0.00    +0.000 C 
ATOM      8  C   UNL     1      -1.968  12.213  22.325  0.00  0.00    +0.000 C 
ATOM      9  C   UNL     1      -0.605  11.605  22.572  0.00  0.00    +0.000 C 
ATOM     10  C   UNL     1      -0.192  10.661  21.706  0.00  0.00    +0.000 C 
ATOM     11  C   UNL     1      -0.707  10.699  20.341  0.00  0.00    +0.000 C 
ATOM     12  C   UNL     1      -1.531  11.689  19.932  0.00  0.00    +0.000 C 
ATOM     13  C   UNL     1      -2.076  12.774  20.887  0.00  0.00    +0.000 C 
ATOM     14  C   UNL     1      -3.558  13.038  20.540  0.00  0.00    +0.000 C 
ATOM     15  C   UNL     1      -1.212  14.073  20.809  0.00  0.00    +0.000 C 
ATOM     16  C   UNL     1      -1.354  14.837  19.490  0.00  0.00    +0.000 C 
ATOM     17  C   UNL     1      -0.090  15.649  19.288  0.00  0.00    +0.000 C 
ATOM     18  C   UNL     1       0.226  16.606  20.469  0.00  0.00    +0.000 C 
ATOM     19  C   UNL     1      -0.121  18.031  19.971  0.00  0.00    +0.000 C 
ENDROOT
BRANCH   1  21
ATOM     20  N   UNL     1       4.043  15.993  20.140  0.00  0.00    +0.000 N 
ATOM     21  C   UNL     1       2.899  16.816  20.112  0.00  0.00    +0.000 C 
ATOM     22  O   UNL     1       2.864  17.872  19.474  0.00  0.00    +0.000 OA
BRANCH  20  24
ATOM     23  C   UNL     1       4.458  14.341  22.091  0.00  0.00    +0.000 C 
ATOM     24  C   UNL     1       4.092  14.572  20.612  0.00  0.00    +0.000 C 
ATOM     25  C   UNL     1       2.860  13.773  20.175  0.00  0.00    +0.000 C 
ENDBRANCH  20  24
BRANCH  20  26
ATOM     26  C   UNL     1       5.155  16.358  19.212  0.00  0.00    +0.000 C 
ATOM     27  C   UNL     1       6.316  17.014  19.947  0.00  0.00    +0.000 C 
ATOM     28  C   UNL     1       5.633  15.217  18.308  0.00  0.00    +0.000 C 
ENDBRANCH  20  26
ENDBRANCH   1  21
BRANCH  10  29
ATOM     29  C   UNL     1       0.634   9.585  22.335  0.00  0.00    +0.000 C 
ATOM     30  O   UNL     1       1.385   8.854  21.705  0.00  0.00    +0.000 OA
BRANCH  29  31
ATOM     31  O   UNL     1       0.609   9.570  23.683  0.00  0.00    +0.000 OA
ATOM     32  H   UNL     1       0.501   8.693  24.085  0.00  0.00    +0.000 HD
ENDBRANCH  29  31
ENDBRANCH  10  29
TORSDOF 5
ENDMDL
MODEL 7
REMARK VINA RESULT:      -5.5      9.771     11.516
REMARK  Name = 
REMARK  11 active torsions:
REMARK  status: ('A' for Active; 'I' for Inactive)
REMARK    1  A    between atoms: C_1  and  C_2
REMARK    2  A    between atoms: C_2  and  C_3
REMARK    3  A    between atoms: C_2  and  N_4
REMARK    4  A    between atoms: N_4  and  C_29
REMARK    5  A    between atoms: C_5  and  C_7
REMARK    6  A    between atoms: C_16  and  C_17
REMARK    7  A    between atoms: C_17  and  O_19
REMARK    8  A    between atoms: C_22  and  C_23
REMARK    9  A    between atoms: C_27  and  C_28
REMARK   10  A    between atoms: C_29  and  C_30
REMARK   11  A    between atoms: C_29  and  C_31
REMARK                            x       y       z     vdW  Elec       q    Type
REMARK                         _______ _______ _______ _____ _____    ______ ____
ROOT
ATOM      1  C   UNL     1       7.301  15.508  22.953  0.00  0.00    +0.000 C 
ATOM      2  C   UNL     1       6.218  16.326  22.265  0.00  0.00    +0.000 C 
ATOM      3  C   UNL     1       6.762  16.322  20.851  0.00  0.00    +0.000 C 
ATOM      4  C   UNL     1       8.287  16.570  21.005  0.00  0.00    +0.000 C 
ATOM      5  C   UNL     1       9.160  15.884  19.908  0.00  0.00    +0.000 C 
ATOM      6  C   UNL     1       8.391  15.519  18.620  0.00  0.00    +0.000 C 
ATOM      7  C   UNL     1       9.253  14.795  17.605  0.00  0.00    +0.000 C 
ATOM      8  C   UNL     1       9.966  13.605  18.229  0.00  0.00    +0.000 C 
ATOM      9  C   UNL     1       9.016  12.485  18.588  0.00  0.00    +0.000 C 
ATOM     10  C   UNL     1       9.562  11.356  19.078  0.00  0.00    +0.000 C 
ATOM     11  C   UNL     1      10.836  11.451  19.785  0.00  0.00    +0.000 C 
ATOM     12  C   UNL     1      11.428  12.647  20.000  0.00  0.00    +0.000 C 
ATOM     13  C   UNL     1      10.877  13.971  19.425  0.00  0.00    +0.000 C 
ATOM     14  C   UNL     1      12.064  14.829  18.935  0.00  0.00    +0.000 C 
ATOM     15  C   UNL     1      10.006  14.720  20.484  0.00  0.00    +0.000 C 
ATOM     16  C   UNL     1      10.807  15.295  21.655  0.00  0.00    +0.000 C 
ATOM     17  C   UNL     1       9.869  15.418  22.840  0.00  0.00    +0.000 C 
ATOM     18  C   UNL     1       8.605  16.268  22.542  0.00  0.00    +0.000 C 
ATOM     19  C   UNL     1       8.820  17.622  23.264  0.00  0.00    +0.000 C 
ENDROOT
BRANCH   1  21
ATOM     20  N   UNL     1       6.680  13.872  24.771  0.00  0.00    +0.000 N 
ATOM     21  C   UNL     1       6.958  15.205  24.406  0.00  0.00    +0.000 C 
ATOM     22  O   UNL     1       6.868  16.139  25.208  0.00  0.00    +0.000 OA
BRANCH  20  24
ATOM     23  C   UNL     1       8.521  12.199  24.049  0.00  0.00    +0.000 C 
ATOM     24  C   UNL     1       7.050  12.650  23.985  0.00  0.00    +0.000 C 
ATOM     25  C   UNL     1       6.065  11.498  24.208  0.00  0.00    +0.000 C 
ENDBRANCH  20  24
BRANCH  20  26
ATOM     26  C   UNL     1       6.449  13.607  26.223  0.00  0.00    +0.000 C 
ATOM     27  C   UNL     1       7.682  13.916  27.060  0.00  0.00    +0.000 C 
ATOM     28  C   UNL     1       5.195  14.271  26.801  0.00  0.00    +0.000 C 
ENDBRANCH  20  26
ENDBRANCH   1  21
BRANCH  10  29
ATOM     29  C   UNL     1       8.840  10.111  18.673  0.00  0.00    +0.000 C 
ATOM     30  O   UNL     1       8.094  10.047  17.705  0.00  0.00    +0.000 OA
BRANCH  29  31
ATOM     31  O   UNL     1       9.185   9.007  19.366  0.00  0.00    +0.000 OA
ATOM     32  H   UNL     1      10.110   8.973  19.657  0.00  0.00    +0.000 HD
ENDBRANCH  29  31
ENDBRANCH  10  29
TORSDOF 5
ENDMDL
MODEL 8
REMARK VINA RESULT:      -5.5      2.347      6.342
REMARK  Name = 
REMARK  11 active torsions:
REMARK  status: ('A' for Active; 'I' for Inactive)
REMARK    1  A    between atoms: C_1  and  C_2
REMARK    2  A    between atoms: C_2  and  C_3
REMARK    3  A    between atoms: C_2  and  N_4
REMARK    4  A    between atoms: N_4  and  C_29
REMARK    5  A    between atoms: C_5  and  C_7
REMARK    6  A    between atoms: C_16  and  C_17
REMARK    7  A    between atoms: C_17  and  O_19
REMARK    8  A    between atoms: C_22  and  C_23
REMARK    9  A    between atoms: C_27  and  C_28
REMARK   10  A    between atoms: C_29  and  C_30
REMARK   11  A    between atoms: C_29  and  C_31
REMARK                            x       y       z     vdW  Elec       q    Type
REMARK                         _______ _______ _______ _____ _____    ______ ____
ROOT
ATOM      1  C   UNL     1      -1.790  14.456  22.322  0.00  0.00    +0.000 C 
ATOM      2  C   UNL     1      -1.517  13.831  23.682  0.00  0.00    +0.000 C 
ATOM      3  C   UNL     1      -2.942  13.601  24.142  0.00  0.00    +0.000 C 
ATOM      4  C   UNL     1      -3.707  14.894  23.746  0.00  0.00    +0.000 C 
ATOM      5  C   UNL     1      -5.208  14.664  23.389  0.00  0.00    +0.000 C 
ATOM      6  C   UNL     1      -5.802  13.355  23.950  0.00  0.00    +0.000 C 
ATOM      7  C   UNL     1      -7.240  13.132  23.528  0.00  0.00    +0.000 C 
ATOM      8  C   UNL     1      -7.405  13.262  22.021  0.00  0.00    +0.000 C 
ATOM      9  C   UNL     1      -6.749  12.126  21.268  0.00  0.00    +0.000 C 
ATOM     10  C   UNL     1      -6.904  12.110  19.931  0.00  0.00    +0.000 C 
ATOM     11  C   UNL     1      -7.114  13.380  19.242  0.00  0.00    +0.000 C 
ATOM     12  C   UNL     1      -7.095  14.552  19.916  0.00  0.00    +0.000 C 
ATOM     13  C   UNL     1      -6.968  14.633  21.454  0.00  0.00    +0.000 C 
ATOM     14  C   UNL     1      -7.916  15.738  21.970  0.00  0.00    +0.000 C 
ATOM     15  C   UNL     1      -5.485  14.882  21.880  0.00  0.00    +0.000 C 
ATOM     16  C   UNL     1      -4.964  16.279  21.533  0.00  0.00    +0.000 C 
ATOM     17  C   UNL     1      -3.455  16.192  21.411  0.00  0.00    +0.000 C 
ATOM     18  C   UNL     1      -2.765  15.625  22.681  0.00  0.00    +0.000 C 
ATOM     19  C   UNL     1      -2.095  16.834  23.381  0.00  0.00    +0.000 C 
ENDROOT
BRANCH   1  21
ATOM     20  N   UNL     1      -0.003  13.612  20.752  0.00  0.00    +0.000 N 
ATOM     21  C   UNL     1      -0.511  14.677  21.523  0.00  0.00    +0.000 C 
ATOM     22  O   UNL     1       0.079  15.756  21.624  0.00  0.00    +0.000 OA
BRANCH  20  24
ATOM     23  C   UNL     1      -0.690  11.160  21.226  0.00  0.00    +0.000 C 
ATOM     24  C   UNL     1      -0.769  12.400  20.315  0.00  0.00    +0.000 C 
ATOM     25  C   UNL     1      -2.203  12.740  19.899  0.00  0.00    +0.000 C 
ENDBRANCH  20  24
BRANCH  20  26
ATOM     26  C   UNL     1       1.193  13.905  19.908  0.00  0.00    +0.000 C 
ATOM     27  C   UNL     1       2.485  13.456  20.577  0.00  0.00    +0.000 C 
ATOM     28  C   UNL     1       1.099  13.394  18.467  0.00  0.00    +0.000 C 
ENDBRANCH  20  26
ENDBRANCH   1  21
BRANCH  10  29
ATOM     29  C   UNL     1      -7.001  10.737  19.350  0.00  0.00    +0.000 C 
ATOM     30  O   UNL     1      -7.284   9.744  20.006  0.00  0.00    +0.000 OA
BRANCH  29  31
ATOM     31  O   UNL     1      -6.899  10.683  18.006  0.00  0.00    +0.000 OA
ATOM     32  H   UNL     1      -6.857  11.544  17.560  0.00  0.00    +0.000 HD
ENDBRANCH  29  31
ENDBRANCH  10  29
TORSDOF 5
ENDMDL
MODEL 9
REMARK VINA RESULT:      -5.4      8.192     10.753
REMARK  Name = 
REMARK  11 active torsions:
REMARK  status: ('A' for Active; 'I' for Inactive)
REMARK    1  A    between atoms: C_1  and  C_2
REMARK    2  A    between atoms: C_2  and  C_3
REMARK    3  A    between atoms: C_2  and  N_4
REMARK    4  A    between atoms: N_4  and  C_29
REMARK    5  A    between atoms: C_5  and  C_7
REMARK    6  A    between atoms: C_16  and  C_17
REMARK    7  A    between atoms: C_17  and  O_19
REMARK    8  A    between atoms: C_22  and  C_23
REMARK    9  A    between atoms: C_27  and  C_28
REMARK   10  A    between atoms: C_29  and  C_30
REMARK   11  A    between atoms: C_29  and  C_31
REMARK                            x       y       z     vdW  Elec       q    Type
REMARK                         _______ _______ _______ _____ _____    ______ ____
ROOT
ATOM      1  C   UNL     1       6.907  15.797  19.667  0.00  0.00    +0.000 C 
ATOM      2  C   UNL     1       6.912  16.574  18.359  0.00  0.00    +0.000 C 
ATOM      3  C   UNL     1       8.120  15.944  17.698  0.00  0.00    +0.000 C 
ATOM      4  C   UNL     1       9.183  15.833  18.825  0.00  0.00    +0.000 C 
ATOM      5  C   UNL     1      10.145  14.612  18.679  0.00  0.00    +0.000 C 
ATOM      6  C   UNL     1      10.224  14.033  17.250  0.00  0.00    +0.000 C 
ATOM      7  C   UNL     1      11.113  12.809  17.159  0.00  0.00    +0.000 C 
ATOM      8  C   UNL     1      10.735  11.768  18.203  0.00  0.00    +0.000 C 
ATOM      9  C   UNL     1       9.399  11.122  17.917  0.00  0.00    +0.000 C 
ATOM     10  C   UNL     1       9.010  10.133  18.744  0.00  0.00    +0.000 C 
ATOM     11  C   UNL     1       9.508  10.139  20.116  0.00  0.00    +0.000 C 
ATOM     12  C   UNL     1      10.292  11.143  20.570  0.00  0.00    +0.000 C 
ATOM     13  C   UNL     1      10.808  12.281  19.661  0.00  0.00    +0.000 C 
ATOM     14  C   UNL     1      12.276  12.584  20.036  0.00  0.00    +0.000 C 
ATOM     15  C   UNL     1       9.898  13.545  19.775  0.00  0.00    +0.000 C 
ATOM     16  C   UNL     1       9.998  14.265  21.122  0.00  0.00    +0.000 C 
ATOM     17  C   UNL     1       8.703  15.024  21.338  0.00  0.00    +0.000 C 
ATOM     18  C   UNL     1       8.366  16.011  20.188  0.00  0.00    +0.000 C 
ATOM     19  C   UNL     1       8.656  17.428  20.740  0.00  0.00    +0.000 C 
ENDROOT
BRANCH   1  21
ATOM     20  N   UNL     1       4.406  15.820  20.002  0.00  0.00    +0.000 N 
ATOM     21  C   UNL     1       5.684  16.113  20.519  0.00  0.00    +0.000 C 
ATOM     22  O   UNL     1       5.840  16.676  21.607  0.00  0.00    +0.000 OA
BRANCH  20  24
ATOM     23  C   UNL     1       3.175  13.697  19.172  0.00  0.00    +0.000 C 
ATOM     24  C   UNL     1       4.110  14.883  18.870  0.00  0.00    +0.000 C 
ATOM     25  C   UNL     1       3.727  15.628  17.587  0.00  0.00    +0.000 C 
ENDBRANCH  20  24
BRANCH  20  26
ATOM     26  C   UNL     1       3.244  16.052  20.911  0.00  0.00    +0.000 C 
ATOM     27  C   UNL     1       3.453  15.410  22.276  0.00  0.00    +0.000 C 
ATOM     28  C   UNL     1       2.815  17.517  21.038  0.00  0.00    +0.000 C 
ENDBRANCH  20  26
ENDBRANCH   1  21
BRANCH  10  29
ATOM     29  C   UNL     1       8.230   9.052  18.067  0.00  0.00    +0.000 C 
ATOM     30  O   UNL     1       8.311   7.869  18.369  0.00  0.00    +0.000 OA
BRANCH  29  31
ATOM     31  O   UNL     1       7.306   9.489  17.188  0.00  0.00    +0.000 OA
ATOM     32  H   UNL     1       7.656   9.783  16.332  0.00  0.00    +0.000 HD
ENDBRANCH  29  31
ENDBRANCH  10  29
TORSDOF 5
ENDMDL
