MODEL 1
REMARK VINA RESULT:      -7.6      0.000      0.000
REMARK  Name = 
REMARK  6 active torsions:
REMARK  status: ('A' for Active; 'I' for Inactive)
REMARK    1  A    between atoms: C_1  and  C_2
REMARK    2  A    between atoms: C_2  and  C_3
REMARK    3  A    between atoms: C_3  and  N_4
REMARK    4  A    between atoms: C_5  and  C_6
REMARK    5  A    between atoms: C_6  and  C_7
REMARK    6  A    between atoms: C_10  and  C_11
REMARK                            x       y       z     vdW  Elec       q    Type
REMARK                         _______ _______ _______ _____ _____    ______ ____
ROOT
ATOM      1  N   UNL     1       5.243   5.787  17.901  0.00  0.00    +0.000 N 
ATOM      2  C   UNL     1       6.621   5.907  17.839  0.00  0.00    +0.000 A 
ATOM      3  N   UNL     1       7.160   5.043  18.667  0.00  0.00    +0.000 NA
ATOM      4  N   UNL     1       6.154   4.355  19.274  0.00  0.00    +0.000 NA
ATOM      5  C   UNL     1       4.986   4.783  18.822  0.00  0.00    +0.000 A 
ENDROOT
BRANCH   5   6
ATOM      6  C   UNL     1       3.665   4.181  19.290  0.00  0.00    +0.000 C 
ATOM      7  C   UNL     1       3.973   2.785  19.939  0.00  0.00    +0.000 C 
ATOM      8  C   UNL     1       2.698   2.083  20.426  0.00  0.00    +0.000 C 
ATOM      9  C   UNL     1       2.014   2.963  21.480  0.00  0.00    +0.000 C 
ATOM     10  C   UNL     1       1.672   4.331  20.874  0.00  0.00    +0.000 C 
ATOM     11  C   UNL     1       0.718   4.117  19.687  0.00  0.00    +0.000 C 
ATOM     12  C   UNL     1       1.394   3.237  18.619  0.00  0.00    +0.000 C 
ATOM     13  C   UNL     1       1.762   1.879  19.228  0.00  0.00    +0.000 C 
ATOM     14  C   UNL     1       2.671   3.941  18.126  0.00  0.00    +0.000 C 
ATOM     15  C   UNL     1       2.961   5.026  20.380  0.00  0.00    +0.000 C 
ENDBRANCH   5   6
BRANCH   2  16
ATOM     16  C   UNL     1       7.395   6.874  17.008  0.00  0.00    +0.000 C 
ATOM     17  C   UNL     1       7.879   8.075  17.807  0.00  0.00    +0.000 C 
ENDBRANCH   2  16
BRANCH   1  18
ATOM     18  C   UNL     1       4.319   6.557  17.097  0.00  0.00    +0.000 C 
BRANCH  18  20
ATOM     19  C   UNL     1       2.191   7.610  17.913  0.00  0.00    +0.000 C 
ATOM     20  C   UNL     1       3.703   7.744  17.833  0.00  0.00    +0.000 C 
ENDBRANCH  18  20
ENDBRANCH   1  18
TORSDOF 4
ENDMDL
MODEL 2
REMARK VINA RESULT:      -7.6      0.114      1.684
REMARK  Name = 
REMARK  6 active torsions:
REMARK  status: ('A' for Active; 'I' for Inactive)
REMARK    1  A    between atoms: C_1  and  C_2
REMARK    2  A    between atoms: C_2  and  C_3
REMARK    3  A    between atoms: C_3  and  N_4
REMARK    4  A    between atoms: C_5  and  C_6
REMARK    5  A    between atoms: C_6  and  C_7
REMARK    6  A    between atoms: C_10  and  C_11
REMARK                            x       y       z     vdW  Elec       q    Type
REMARK                         _______ _______ _______ _____ _____    ______ ____
ROOT
ATOM      1  N   UNL     1       5.267   5.797  17.882  0.00  0.00    +0.000 N 
ATOM      2  C   UNL     1       6.639   5.970  17.820  0.00  0.00    +0.000 A 
ATOM      3  N   UNL     1       7.211   5.124  18.644  0.00  0.00    +0.000 NA
ATOM      4  N   UNL     1       6.232   4.396  19.249  0.00  0.00    +0.000 NA
ATOM      5  C   UNL     1       5.049   4.779  18.799  0.00  0.00    +0.000 A 
ENDROOT
BRANCH   5   6
ATOM      6  C   UNL     1       3.752   4.125  19.264  0.00  0.00    +0.000 C 
ATOM      7  C   UNL     1       3.091   5.067  20.330  0.00  0.00    +0.000 C 
ATOM      8  C   UNL     1       1.781   4.486  20.880  0.00  0.00    +0.000 C 
ATOM      9  C   UNL     1       0.792   4.303  19.723  0.00  0.00    +0.000 C 
ATOM     10  C   UNL     1       1.392   3.364  18.667  0.00  0.00    +0.000 C 
ATOM     11  C   UNL     1       1.671   2.001  19.325  0.00  0.00    +0.000 C 
ATOM     12  C   UNL     1       2.666   2.170  20.488  0.00  0.00    +0.000 C 
ATOM     13  C   UNL     1       2.081   3.130  21.531  0.00  0.00    +0.000 C 
ATOM     14  C   UNL     1       3.982   2.750  19.939  0.00  0.00    +0.000 C 
ATOM     15  C   UNL     1       2.714   3.955  18.127  0.00  0.00    +0.000 C 
ENDBRANCH   5   6
BRANCH   2  16
ATOM     16  C   UNL     1       7.375   6.970  16.993  0.00  0.00    +0.000 C 
ATOM     17  C   UNL     1       7.856   8.162  17.808  0.00  0.00    +0.000 C 
ENDBRANCH   2  16
BRANCH   1  18
ATOM     18  C   UNL     1       4.314   6.534  17.081  0.00  0.00    +0.000 C 
BRANCH  18  20
ATOM     19  C   UNL     1       2.212   7.633  17.905  0.00  0.00    +0.000 C 
ATOM     20  C   UNL     1       3.723   7.749  17.790  0.00  0.00    +0.000 C 
ENDBRANCH  18  20
ENDBRANCH   1  18
TORSDOF 4
ENDMDL
MODEL 3
REMARK VINA RESULT:      -7.4      0.111      1.667
REMARK  Name = 
REMARK  6 active torsions:
REMARK  status: ('A' for Active; 'I' for Inactive)
REMARK    1  A    between atoms: C_1  and  C_2
REMARK    2  A    between atoms: C_2  and  C_3
REMARK    3  A    between atoms: C_3  and  N_4
REMARK    4  A    between atoms: C_5  and  C_6
REMARK    5  A    between atoms: C_6  and  C_7
REMARK    6  A    between atoms: C_10  and  C_11
REMARK                            x       y       z     vdW  Elec       q    Type
REMARK                         _______ _______ _______ _____ _____    ______ ____
ROOT
ATOM      1  N   UNL     1       5.241   5.785  17.928  0.00  0.00    +0.000 N 
ATOM      2  C   UNL     1       6.613   5.955  17.852  0.00  0.00    +0.000 A 
ATOM      3  N   UNL     1       7.190   5.132  18.695  0.00  0.00    +0.000 NA
ATOM      4  N   UNL     1       6.215   4.422  19.327  0.00  0.00    +0.000 NA
ATOM      5  C   UNL     1       5.029   4.794  18.875  0.00  0.00    +0.000 A 
ENDROOT
BRANCH   5   6
ATOM      6  C   UNL     1       3.735   4.154  19.367  0.00  0.00    +0.000 C 
ATOM      7  C   UNL     1       2.808   3.920  18.121  0.00  0.00    +0.000 C 
ATOM      8  C   UNL     1       1.463   3.296  18.514  0.00  0.00    +0.000 C 
ATOM      9  C   UNL     1       1.718   1.940  19.183  0.00  0.00    +0.000 C 
ATOM     10  C   UNL     1       2.601   2.129  20.424  0.00  0.00    +0.000 C 
ATOM     11  C   UNL     1       1.871   3.059  21.408  0.00  0.00    +0.000 C 
ATOM     12  C   UNL     1       1.611   4.426  20.750  0.00  0.00    +0.000 C 
ATOM     13  C   UNL     1       0.751   4.237  19.494  0.00  0.00    +0.000 C 
ATOM     14  C   UNL     1       2.959   5.057  20.358  0.00  0.00    +0.000 C 
ATOM     15  C   UNL     1       3.950   2.766  20.019  0.00  0.00    +0.000 C 
ENDBRANCH   5   6
BRANCH   2  16
ATOM     16  C   UNL     1       7.345   6.930  16.992  0.00  0.00    +0.000 C 
ATOM     17  C   UNL     1       7.834   8.144  17.770  0.00  0.00    +0.000 C 
ENDBRANCH   2  16
BRANCH   1  18
ATOM     18  C   UNL     1       4.284   6.501  17.113  0.00  0.00    +0.000 C 
BRANCH  18  20
ATOM     19  C   UNL     1       2.203   7.632  17.949  0.00  0.00    +0.000 C 
ATOM     20  C   UNL     1       3.710   7.745  17.787  0.00  0.00    +0.000 C 
ENDBRANCH  18  20
ENDBRANCH   1  18
TORSDOF 4
ENDMDL
MODEL 4
REMARK VINA RESULT:      -7.4      1.180      2.486
REMARK  Name = 
REMARK  6 active torsions:
REMARK  status: ('A' for Active; 'I' for Inactive)
REMARK    1  A    between atoms: C_1  and  C_2
REMARK    2  A    between atoms: C_2  and  C_3
REMARK    3  A    between atoms: C_3  and  N_4
REMARK    4  A    between atoms: C_5  and  C_6
REMARK    5  A    between atoms: C_6  and  C_7
REMARK    6  A    between atoms: C_10  and  C_11
REMARK                            x       y       z     vdW  Elec       q    Type
REMARK                         _______ _______ _______ _____ _____    ______ ____
ROOT
ATOM      1  N   UNL     1       5.666   5.956  17.669  0.00  0.00    +0.000 N 
ATOM      2  C   UNL     1       6.939   6.409  17.970  0.00  0.00    +0.000 A 
ATOM      3  N   UNL     1       7.332   5.856  19.093  0.00  0.00    +0.000 NA
ATOM      4  N   UNL     1       6.333   5.043  19.535  0.00  0.00    +0.000 NA
ATOM      5  C   UNL     1       5.319   5.082  18.687  0.00  0.00    +0.000 A 
ENDROOT
BRANCH   5   6
ATOM      6  C   UNL     1       4.058   4.248  18.891  0.00  0.00    +0.000 C 
ATOM      7  C   UNL     1       2.894   5.223  19.290  0.00  0.00    +0.000 C 
ATOM      8  C   UNL     1       1.577   4.476  19.539  0.00  0.00    +0.000 C 
ATOM      9  C   UNL     1       1.169   3.742  18.256  0.00  0.00    +0.000 C 
ATOM     10  C   UNL     1       2.272   2.757  17.845  0.00  0.00    +0.000 C 
ATOM     11  C   UNL     1       2.467   1.737  18.980  0.00  0.00    +0.000 C 
ATOM     12  C   UNL     1       2.880   2.461  20.275  0.00  0.00    +0.000 C 
ATOM     13  C   UNL     1       1.793   3.466  20.674  0.00  0.00    +0.000 C 
ATOM     14  C   UNL     1       4.203   3.209  20.029  0.00  0.00    +0.000 C 
ATOM     15  C   UNL     1       3.595   3.519  17.605  0.00  0.00    +0.000 C 
ENDBRANCH   5   6
BRANCH   2  16
ATOM     16  C   UNL     1       7.743   7.394  17.190  0.00  0.00    +0.000 C 
ATOM     17  C   UNL     1       8.090   8.637  17.996  0.00  0.00    +0.000 C 
ENDBRANCH   2  16
BRANCH   1  18
ATOM     18  C   UNL     1       4.928   6.327  16.481  0.00  0.00    +0.000 C 
BRANCH  18  20
ATOM     19  C   UNL     1       5.535   4.414  14.971  0.00  0.00    +0.000 C 
ATOM     20  C   UNL     1       5.611   5.918  15.179  0.00  0.00    +0.000 C 
ENDBRANCH  18  20
ENDBRANCH   1  18
TORSDOF 4
ENDMDL
MODEL 5
REMARK VINA RESULT:      -7.3      1.064      1.607
REMARK  Name = 
REMARK  6 active torsions:
REMARK  status: ('A' for Active; 'I' for Inactive)
REMARK    1  A    between atoms: C_1  and  C_2
REMARK    2  A    between atoms: C_2  and  C_3
REMARK    3  A    between atoms: C_3  and  N_4
REMARK    4  A    between atoms: C_5  and  C_6
REMARK    5  A    between atoms: C_6  and  C_7
REMARK    6  A    between atoms: C_10  and  C_11
REMARK                            x       y       z     vdW  Elec       q    Type
REMARK                         _______ _______ _______ _____ _____    ______ ____
ROOT
ATOM      1  N   UNL     1       5.576   5.866  17.798  0.00  0.00    +0.000 N 
ATOM      2  C   UNL     1       6.892   6.186  18.085  0.00  0.00    +0.000 A 
ATOM      3  N   UNL     1       7.248   5.572  19.189  0.00  0.00    +0.000 NA
ATOM      4  N   UNL     1       6.181   4.851  19.633  0.00  0.00    +0.000 NA
ATOM      5  C   UNL     1       5.162   5.007  18.805  0.00  0.00    +0.000 A 
ENDROOT
BRANCH   5   6
ATOM      6  C   UNL     1       3.829   4.297  19.015  0.00  0.00    +0.000 C 
ATOM      7  C   UNL     1       4.012   3.259  20.179  0.00  0.00    +0.000 C 
ATOM      8  C   UNL     1       2.725   2.472  20.457  0.00  0.00    +0.000 C 
ATOM      9  C   UNL     1       1.616   3.452  20.858  0.00  0.00    +0.000 C 
ATOM     10  C   UNL     1       1.387   4.470  19.732  0.00  0.00    +0.000 C 
ATOM     11  C   UNL     1       0.966   3.710  18.463  0.00  0.00    +0.000 C 
ATOM     12  C   UNL     1       2.072   2.723  18.046  0.00  0.00    +0.000 C 
ATOM     13  C   UNL     1       2.323   1.722  19.180  0.00  0.00    +0.000 C 
ATOM     14  C   UNL     1       3.364   3.511  17.764  0.00  0.00    +0.000 C 
ATOM     15  C   UNL     1       2.691   5.251  19.455  0.00  0.00    +0.000 C 
ENDBRANCH   5   6
BRANCH   2  16
ATOM     16  C   UNL     1       7.776   7.104  17.309  0.00  0.00    +0.000 C 
ATOM     17  C   UNL     1       7.832   8.503  17.904  0.00  0.00    +0.000 C 
ENDBRANCH   2  16
BRANCH   1  18
ATOM     18  C   UNL     1       4.858   6.332  16.632  0.00  0.00    +0.000 C 
BRANCH  18  20
ATOM     19  C   UNL     1       5.467   4.399  15.148  0.00  0.00    +0.000 C 
ATOM     20  C   UNL     1       5.493   5.910  15.309  0.00  0.00    +0.000 C 
ENDBRANCH  18  20
ENDBRANCH   1  18
TORSDOF 4
ENDMDL
MODEL 6
REMARK VINA RESULT:      -7.3      1.134      2.170
REMARK  Name = 
REMARK  6 active torsions:
REMARK  status: ('A' for Active; 'I' for Inactive)
REMARK    1  A    between atoms: C_1  and  C_2
REMARK    2  A    between atoms: C_2  and  C_3
REMARK    3  A    between atoms: C_3  and  N_4
REMARK    4  A    between atoms: C_5  and  C_6
REMARK    5  A    between atoms: C_6  and  C_7
REMARK    6  A    between atoms: C_10  and  C_11
REMARK                            x       y       z     vdW  Elec       q    Type
REMARK                         _______ _______ _______ _____ _____    ______ ____
ROOT
ATOM      1  N   UNL     1       5.731   6.142  17.778  0.00  0.00    +0.000 N 
ATOM      2  C   UNL     1       7.042   6.517  18.018  0.00  0.00    +0.000 A 
ATOM      3  N   UNL     1       7.488   5.859  19.061  0.00  0.00    +0.000 NA
ATOM      4  N   UNL     1       6.486   5.054  19.513  0.00  0.00    +0.000 NA
ATOM      5  C   UNL     1       5.417   5.203  18.749  0.00  0.00    +0.000 A 
ENDROOT
BRANCH   5   6
ATOM      6  C   UNL     1       4.136   4.408  18.981  0.00  0.00    +0.000 C 
ATOM      7  C   UNL     1       3.714   3.762  17.615  0.00  0.00    +0.000 C 
ATOM      8  C   UNL     1       2.416   2.952  17.737  0.00  0.00    +0.000 C 
ATOM      9  C   UNL     1       2.624   1.826  18.756  0.00  0.00    +0.000 C 
ATOM     10  C   UNL     1       3.013   2.419  20.117  0.00  0.00    +0.000 C 
ATOM     11  C   UNL     1       1.876   3.340  20.593  0.00  0.00    +0.000 C 
ATOM     12  C   UNL     1       1.659   4.478  19.580  0.00  0.00    +0.000 C 
ATOM     13  C   UNL     1       1.297   3.888  18.211  0.00  0.00    +0.000 C 
ATOM     14  C   UNL     1       2.958   5.294  19.458  0.00  0.00    +0.000 C 
ATOM     15  C   UNL     1       4.316   3.239  19.981  0.00  0.00    +0.000 C 
ENDBRANCH   5   6
BRANCH   2  16
ATOM     16  C   UNL     1       7.833   7.527  17.257  0.00  0.00    +0.000 C 
ATOM     17  C   UNL     1       8.120   8.780  18.073  0.00  0.00    +0.000 C 
ENDBRANCH   2  16
BRANCH   1  18
ATOM     18  C   UNL     1       4.927   6.637  16.681  0.00  0.00    +0.000 C 
BRANCH  18  20
ATOM     19  C   UNL     1       5.826   4.735  15.310  0.00  0.00    +0.000 C 
ATOM     20  C   UNL     1       5.428   6.201  15.306  0.00  0.00    +0.000 C 
ENDBRANCH  18  20
ENDBRANCH   1  18
TORSDOF 4
ENDMDL
MODEL 7
REMARK VINA RESULT:      -7.2      1.213      2.238
REMARK  Name = 
REMARK  6 active torsions:
REMARK  status: ('A' for Active; 'I' for Inactive)
REMARK    1  A    between atoms: C_1  and  C_2
REMARK    2  A    between atoms: C_2  and  C_3
REMARK    3  A    between atoms: C_3  and  N_4
REMARK    4  A    between atoms: C_5  and  C_6
REMARK    5  A    between atoms: C_6  and  C_7
REMARK    6  A    between atoms: C_10  and  C_11
REMARK                            x       y       z     vdW  Elec       q    Type
REMARK                         _______ _______ _______ _____ _____    ______ ____
ROOT
ATOM      1  N   UNL     1       5.494   5.385  17.906  0.00  0.00    +0.000 N 
ATOM      2  C   UNL     1       6.755   5.838  18.254  0.00  0.00    +0.000 A 
ATOM      3  N   UNL     1       6.977   5.551  19.515  0.00  0.00    +0.000 NA
ATOM      4  N   UNL     1       5.877   4.913  20.003  0.00  0.00    +0.000 NA
ATOM      5  C   UNL     1       4.971   4.796  19.047  0.00  0.00    +0.000 A 
ENDROOT
BRANCH   5   6
ATOM      6  C   UNL     1       3.636   4.094  19.276  0.00  0.00    +0.000 C 
ATOM      7  C   UNL     1       3.087   4.544  20.676  0.00  0.00    +0.000 C 
ATOM      8  C   UNL     1       1.748   3.874  21.012  0.00  0.00    +0.000 C 
ATOM      9  C   UNL     1       0.715   4.257  19.945  0.00  0.00    +0.000 C 
ATOM     10  C   UNL     1       1.204   3.809  18.562  0.00  0.00    +0.000 C 
ATOM     11  C   UNL     1       1.384   2.282  18.576  0.00  0.00    +0.000 C 
ATOM     12  C   UNL     1       2.422   1.882  19.641  0.00  0.00    +0.000 C 
ATOM     13  C   UNL     1       1.950   2.353  21.022  0.00  0.00    +0.000 C 
ATOM     14  C   UNL     1       3.767   2.551  19.304  0.00  0.00    +0.000 C 
ATOM     15  C   UNL     1       2.556   4.484  18.236  0.00  0.00    +0.000 C 
ENDBRANCH   5   6
BRANCH   2  16
ATOM     16  C   UNL     1       7.714   6.570  17.376  0.00  0.00    +0.000 C 
ATOM     17  C   UNL     1       7.772   8.059  17.686  0.00  0.00    +0.000 C 
ENDBRANCH   2  16
BRANCH   1  18
ATOM     18  C   UNL     1       4.924   5.496  16.581  0.00  0.00    +0.000 C 
BRANCH  18  20
ATOM     19  C   UNL     1       5.836   4.606  14.417  0.00  0.00    +0.000 C 
ATOM     20  C   UNL     1       5.131   4.254  15.717  0.00  0.00    +0.000 C 
ENDBRANCH  18  20
ENDBRANCH   1  18
TORSDOF 4
ENDMDL
MODEL 8
REMARK VINA RESULT:      -7.2      1.191      1.751
REMARK  Name = 
REMARK  6 active torsions:
REMARK  status: ('A' for Active; 'I' for Inactive)
REMARK    1  A    between atoms: C_1  and  C_2
REMARK    2  A    between atoms: C_2  and  C_3
REMARK    3  A    between atoms: C_3  and  N_4
REMARK    4  A    between atoms: C_5  and  C_6
REMARK    5  A    between atoms: C_6  and  C_7
REMARK    6  A    between atoms: C_10  and  C_11
REMARK                            x       y       z     vdW  Elec       q    Type
REMARK                         _______ _______ _______ _____ _____    ______ ____
ROOT
ATOM      1  N   UNL     1       5.459   5.449  17.942  0.00  0.00    +0.000 N 
ATOM      2  C   UNL     1       6.742   5.857  18.261  0.00  0.00    +0.000 A 
ATOM      3  N   UNL     1       6.988   5.551  19.513  0.00  0.00    +0.000 NA
ATOM      4  N   UNL     1       5.880   4.945  20.024  0.00  0.00    +0.000 NA
ATOM      5  C   UNL     1       4.946   4.866  19.092  0.00  0.00    +0.000 A 
ENDROOT
BRANCH   5   6
ATOM      6  C   UNL     1       3.595   4.206  19.349  0.00  0.00    +0.000 C 
ATOM      7  C   UNL     1       3.788   2.652  19.238  0.00  0.00    +0.000 C 
ATOM      8  C   UNL     1       2.474   1.891  19.462  0.00  0.00    +0.000 C 
ATOM      9  C   UNL     1       1.945   2.210  20.866  0.00  0.00    +0.000 C 
ATOM     10  C   UNL     1       1.718   3.721  21.006  0.00  0.00    +0.000 C 
ATOM     11  C   UNL     1       0.684   4.161  19.956  0.00  0.00    +0.000 C 
ATOM     12  C   UNL     1       1.204   3.850  18.540  0.00  0.00    +0.000 C 
ATOM     13  C   UNL     1       1.459   2.343  18.405  0.00  0.00    +0.000 C 
ATOM     14  C   UNL     1       2.520   4.614  18.312  0.00  0.00    +0.000 C 
ATOM     15  C   UNL     1       3.045   4.478  20.771  0.00  0.00    +0.000 C 
ENDBRANCH   5   6
BRANCH   2  16
ATOM     16  C   UNL     1       7.701   6.566  17.363  0.00  0.00    +0.000 C 
ATOM     17  C   UNL     1       7.746   8.064  17.622  0.00  0.00    +0.000 C 
ENDBRANCH   2  16
BRANCH   1  18
ATOM     18  C   UNL     1       4.858   5.589  16.634  0.00  0.00    +0.000 C 
BRANCH  18  20
ATOM     19  C   UNL     1       6.018   4.709  14.588  0.00  0.00    +0.000 C 
ATOM     20  C   UNL     1       5.067   4.379  15.727  0.00  0.00    +0.000 C 
ENDBRANCH  18  20
ENDBRANCH   1  18
TORSDOF 4
ENDMDL
MODEL 9
REMARK VINA RESULT:      -7.1      2.137      5.523
REMARK  Name = 
REMARK  6 active torsions:
REMARK  status: ('A' for Active; 'I' for Inactive)
REMARK    1  A    between atoms: C_1  and  C_2
REMARK    2  A    between atoms: C_2  and  C_3
REMARK    3  A    between atoms: C_3  and  N_4
REMARK    4  A    between atoms: C_5  and  C_6
REMARK    5  A    between atoms: C_6  and  C_7
REMARK    6  A    between atoms: C_10  and  C_11
REMARK                            x       y       z     vdW  Elec       q    Type
REMARK                         _______ _______ _______ _____ _____    ______ ____
ROOT
ATOM      1  N   UNL     1       2.792   4.059  19.361  0.00  0.00    +0.000 N 
ATOM      2  C   UNL     1       1.868   3.037  19.498  0.00  0.00    +0.000 A 
ATOM      3  N   UNL     1       1.997   2.210  18.488  0.00  0.00    +0.000 NA
ATOM      4  N   UNL     1       2.995   2.674  17.687  0.00  0.00    +0.000 NA
ATOM      5  C   UNL     1       3.496   3.787  18.198  0.00  0.00    +0.000 A 
ENDROOT
BRANCH   5   6
ATOM      6  C   UNL     1       4.656   4.531  17.544  0.00  0.00    +0.000 C 
ATOM      7  C   UNL     1       5.132   3.691  16.307  0.00  0.00    +0.000 C 
ATOM      8  C   UNL     1       6.318   4.349  15.587  0.00  0.00    +0.000 C 
ATOM      9  C   UNL     1       5.894   5.736  15.090  0.00  0.00    +0.000 C 
ATOM     10  C   UNL     1       5.444   6.599  16.277  0.00  0.00    +0.000 C 
ATOM     11  C   UNL     1       6.624   6.742  17.254  0.00  0.00    +0.000 C 
ATOM     12  C   UNL     1       7.058   5.355  17.764  0.00  0.00    +0.000 C 
ATOM     13  C   UNL     1       7.482   4.480  16.578  0.00  0.00    +0.000 C 
ATOM     14  C   UNL     1       5.872   4.695  18.489  0.00  0.00    +0.000 C 
ATOM     15  C   UNL     1       4.256   5.925  16.999  0.00  0.00    +0.000 C 
ENDBRANCH   5   6
BRANCH   2  16
ATOM     16  C   UNL     1       0.853   2.892  20.582  0.00  0.00    +0.000 C 
ATOM     17  C   UNL     1       1.467   2.453  21.903  0.00  0.00    +0.000 C 
ENDBRANCH   2  16
BRANCH   1  18
ATOM     18  C   UNL     1       2.966   5.136  20.312  0.00  0.00    +0.000 C 
BRANCH  18  20
ATOM     19  C   UNL     1       2.236   7.420  19.566  0.00  0.00    +0.000 C 
ATOM     20  C   UNL     1       1.829   6.154  20.302  0.00  0.00    +0.000 C 
ENDBRANCH  18  20
ENDBRANCH   1  18
TORSDOF 4
ENDMDL
