MODEL 1
REMARK VINA RESULT:      -8.6      0.000      0.000
REMARK  Name = 
REMARK  7 active torsions:
REMARK  status: ('A' for Active; 'I' for Inactive)
REMARK    1  A    between atoms: C_2  and  O_3
REMARK    2  A    between atoms: C_2  and  C_4
REMARK    3  A    between atoms: C_7  and  N_8
REMARK    4  A    between atoms: C_14  and  N_15
REMARK    5  A    between atoms: N_15  and  C_16
REMARK    6  A    between atoms: C_21  and  C_22
REMARK    7  A    between atoms: C_22  and  O_24
REMARK                            x       y       z     vdW  Elec       q    Type
REMARK                         _______ _______ _______ _____ _____    ______ ____
ROOT
ATOM      1  N   UNL     1       1.862   5.583  21.062  0.00  0.00    +0.000 N 
ATOM      2  C   UNL     1       2.673   4.476  20.806  0.00  0.00    +0.000 A 
ATOM      3  N   UNL     1       2.288   3.301  21.325  0.00  0.00    +0.000 NA
ATOM      4  C   UNL     1       3.048   2.224  21.019  0.00  0.00    +0.000 A 
ATOM      5  C   UNL     1       4.164   2.284  20.219  0.00  0.00    +0.000 A 
ATOM      6  F   UNL     1       4.884   1.192  19.941  0.00  0.00    +0.000 F 
ATOM      7  C   UNL     1       4.502   3.523  19.726  0.00  0.00    +0.000 A 
ATOM      8  N   UNL     1       3.762   4.601  20.030  0.00  0.00    +0.000 NA
ATOM      9  H   UNL     1       1.036   5.293  21.566  0.00  0.00    +0.000 HD
ENDROOT
BRANCH   1  13
ATOM     10  C   UNL     1       1.518   9.283  19.041  0.00  0.00    +0.000 A 
ATOM     11  C   UNL     1       1.065   9.146  20.357  0.00  0.00    +0.000 A 
ATOM     12  C   UNL     1       1.212   7.923  21.029  0.00  0.00    +0.000 A 
ATOM     13  C   UNL     1       1.806   6.821  20.398  0.00  0.00    +0.000 A 
ATOM     14  C   UNL     1       2.332   7.021  19.113  0.00  0.00    +0.000 A 
ATOM     15  C   UNL     1       2.190   8.229  18.432  0.00  0.00    +0.000 A 
BRANCH  10  17
ATOM     16  O   UNL     1       0.396  11.320  18.589  0.00  0.00    +0.000 OA
ATOM     17  C   UNL     1       1.312  10.565  18.332  0.00  0.00    +0.000 C 
BRANCH  17  18
ATOM     18  O   UNL     1       2.210  10.786  17.346  0.00  0.00    +0.000 OA
ATOM     19  H   UNL     1       3.142  10.813  17.633  0.00  0.00    +0.000 HD
ENDBRANCH  17  18
ENDBRANCH  10  17
ENDBRANCH   1  13
BRANCH   7  20
ATOM     20  N   UNL     1       5.643   3.702  18.921  0.00  0.00    +0.000 N 
ATOM     21  H   UNL     1       6.418   3.084  19.148  0.00  0.00    +0.000 HD
BRANCH  20  22
ATOM     22  C   UNL     1       5.846   4.618  17.864  0.00  0.00    +0.000 A 
ATOM     23  C   UNL     1       5.174   4.454  16.639  0.00  0.00    +0.000 A 
ATOM     24  C   UNL     1       5.313   5.375  15.596  0.00  0.00    +0.000 A 
ATOM     25  C   UNL     1       6.154   6.472  15.740  0.00  0.00    +0.000 A 
ATOM     26  C   UNL     1       6.882   6.628  16.917  0.00  0.00    +0.000 A 
ATOM     27  C   UNL     1       6.749   5.699  17.964  0.00  0.00    +0.000 A 
BRANCH  27  28
ATOM     28  C   UNL     1       7.612   5.925  19.151  0.00  0.00    +0.000 C 
ATOM     29  O   UNL     1       7.539   5.262  20.170  0.00  0.00    +0.000 OA
BRANCH  28  30
ATOM     30  O   UNL     1       8.447   6.978  19.012  0.00  0.00    +0.000 OA
ATOM     31  H   UNL     1       8.978   6.946  18.188  0.00  0.00    +0.000 HD
ENDBRANCH  28  30
ENDBRANCH  27  28
ENDBRANCH  20  22
ENDBRANCH   7  20
TORSDOF 7
ENDMDL
MODEL 2
REMARK VINA RESULT:      -8.5      1.462      2.043
REMARK  Name = 
REMARK  7 active torsions:
REMARK  status: ('A' for Active; 'I' for Inactive)
REMARK    1  A    between atoms: C_2  and  O_3
REMARK    2  A    between atoms: C_2  and  C_4
REMARK    3  A    between atoms: C_7  and  N_8
REMARK    4  A    between atoms: C_14  and  N_15
REMARK    5  A    between atoms: N_15  and  C_16
REMARK    6  A    between atoms: C_21  and  C_22
REMARK    7  A    between atoms: C_22  and  O_24
REMARK                            x       y       z     vdW  Elec       q    Type
REMARK                         _______ _______ _______ _____ _____    ______ ____
ROOT
ATOM      1  N   UNL     1       1.927   5.691  20.892  0.00  0.00    +0.000 N 
ATOM      2  C   UNL     1       2.743   4.597  20.598  0.00  0.00    +0.000 A 
ATOM      3  N   UNL     1       2.388   3.411  21.112  0.00  0.00    +0.000 NA
ATOM      4  C   UNL     1       3.151   2.348  20.769  0.00  0.00    +0.000 A 
ATOM      5  C   UNL     1       4.242   2.431  19.937  0.00  0.00    +0.000 A 
ATOM      6  F   UNL     1       4.967   1.352  19.624  0.00  0.00    +0.000 F 
ATOM      7  C   UNL     1       4.551   3.681  19.451  0.00  0.00    +0.000 A 
ATOM      8  N   UNL     1       3.807   4.746  19.792  0.00  0.00    +0.000 NA
ATOM      9  H   UNL     1       1.121   5.384  21.417  0.00  0.00    +0.000 HD
ENDROOT
BRANCH   1  13
ATOM     10  C   UNL     1       1.478   9.417  18.942  0.00  0.00    +0.000 A 
ATOM     11  C   UNL     1       1.129   9.272  20.288  0.00  0.00    +0.000 A 
ATOM     12  C   UNL     1       1.311   8.040  20.934  0.00  0.00    +0.000 A 
ATOM     13  C   UNL     1       1.837   6.936  20.247  0.00  0.00    +0.000 A 
ATOM     14  C   UNL     1       2.262   7.143  18.926  0.00  0.00    +0.000 A 
ATOM     15  C   UNL     1       2.084   8.360  18.271  0.00  0.00    +0.000 A 
BRANCH  10  17
ATOM     16  O   UNL     1       0.208  11.343  18.402  0.00  0.00    +0.000 OA
ATOM     17  C   UNL     1       1.235  10.709  18.263  0.00  0.00    +0.000 C 
BRANCH  17  18
ATOM     18  O   UNL     1       2.241  11.086  17.444  0.00  0.00    +0.000 OA
ATOM     19  H   UNL     1       3.068  10.578  17.543  0.00  0.00    +0.000 HD
ENDBRANCH  17  18
ENDBRANCH  10  17
ENDBRANCH   1  13
BRANCH   7  20
ATOM     20  N   UNL     1       5.665   3.885  18.616  0.00  0.00    +0.000 N 
ATOM     21  H   UNL     1       5.959   3.060  18.099  0.00  0.00    +0.000 HD
BRANCH  20  22
ATOM     22  C   UNL     1       6.416   5.065  18.413  0.00  0.00    +0.000 A 
ATOM     23  C   UNL     1       7.337   5.500  19.383  0.00  0.00    +0.000 A 
ATOM     24  C   UNL     1       8.134   6.632  19.184  0.00  0.00    +0.000 A 
ATOM     25  C   UNL     1       8.008   7.378  18.018  0.00  0.00    +0.000 A 
ATOM     26  C   UNL     1       7.060   7.010  17.066  0.00  0.00    +0.000 A 
ATOM     27  C   UNL     1       6.253   5.875  17.268  0.00  0.00    +0.000 A 
BRANCH  27  28
ATOM     28  C   UNL     1       5.236   5.604  16.222  0.00  0.00    +0.000 C 
ATOM     29  O   UNL     1       4.653   4.540  16.113  0.00  0.00    +0.000 OA
BRANCH  28  30
ATOM     30  O   UNL     1       5.062   6.634  15.364  0.00  0.00    +0.000 OA
ATOM     31  H   UNL     1       4.345   6.480  14.714  0.00  0.00    +0.000 HD
ENDBRANCH  28  30
ENDBRANCH  27  28
ENDBRANCH  20  22
ENDBRANCH   7  20
TORSDOF 7
ENDMDL
MODEL 3
REMARK VINA RESULT:      -8.4      0.583      1.009
REMARK  Name = 
REMARK  7 active torsions:
REMARK  status: ('A' for Active; 'I' for Inactive)
REMARK    1  A    between atoms: C_2  and  O_3
REMARK    2  A    between atoms: C_2  and  C_4
REMARK    3  A    between atoms: C_7  and  N_8
REMARK    4  A    between atoms: C_14  and  N_15
REMARK    5  A    between atoms: N_15  and  C_16
REMARK    6  A    between atoms: C_21  and  C_22
REMARK    7  A    between atoms: C_22  and  O_24
REMARK                            x       y       z     vdW  Elec       q    Type
REMARK                         _______ _______ _______ _____ _____    ______ ____
ROOT
ATOM      1  N   UNL     1       1.726   5.796  20.868  0.00  0.00    +0.000 N 
ATOM      2  C   UNL     1       2.531   4.677  20.645  0.00  0.00    +0.000 A 
ATOM      3  N   UNL     1       2.079   3.498  21.096  0.00  0.00    +0.000 NA
ATOM      4  C   UNL     1       2.837   2.412  20.818  0.00  0.00    +0.000 A 
ATOM      5  C   UNL     1       4.015   2.466  20.112  0.00  0.00    +0.000 A 
ATOM      6  F   UNL     1       4.731   1.365  19.860  0.00  0.00    +0.000 F 
ATOM      7  C   UNL     1       4.419   3.710  19.685  0.00  0.00    +0.000 A 
ATOM      8  N   UNL     1       3.681   4.797  19.962  0.00  0.00    +0.000 NA
ATOM      9  H   UNL     1       0.857   5.512  21.297  0.00  0.00    +0.000 HD
ENDROOT
BRANCH   1  13
ATOM     10  C   UNL     1       1.626   9.566  18.953  0.00  0.00    +0.000 A 
ATOM     11  C   UNL     1       1.155   9.420  20.262  0.00  0.00    +0.000 A 
ATOM     12  C   UNL     1       1.222   8.172  20.899  0.00  0.00    +0.000 A 
ATOM     13  C   UNL     1       1.752   7.053  20.240  0.00  0.00    +0.000 A 
ATOM     14  C   UNL     1       2.298   7.256  18.964  0.00  0.00    +0.000 A 
ATOM     15  C   UNL     1       2.235   8.489  18.317  0.00  0.00    +0.000 A 
BRANCH  10  17
ATOM     16  O   UNL     1       2.466  11.527  17.921  0.00  0.00    +0.000 OA
ATOM     17  C   UNL     1       1.504  10.877  18.279  0.00  0.00    +0.000 C 
BRANCH  17  18
ATOM     18  O   UNL     1       0.226  11.297  18.145  0.00  0.00    +0.000 OA
ATOM     19  H   UNL     1      -0.297  11.300  18.968  0.00  0.00    +0.000 HD
ENDBRANCH  17  18
ENDBRANCH  10  17
ENDBRANCH   1  13
BRANCH   7  20
ATOM     20  N   UNL     1       5.624   3.884  18.980  0.00  0.00    +0.000 N 
ATOM     21  H   UNL     1       6.458   3.626  19.502  0.00  0.00    +0.000 HD
BRANCH  20  22
ATOM     22  C   UNL     1       5.821   4.369  17.666  0.00  0.00    +0.000 A 
ATOM     23  C   UNL     1       5.105   3.816  16.588  0.00  0.00    +0.000 A 
ATOM     24  C   UNL     1       5.237   4.313  15.288  0.00  0.00    +0.000 A 
ATOM     25  C   UNL     1       6.114   5.360  15.026  0.00  0.00    +0.000 A 
ATOM     26  C   UNL     1       6.883   5.886  16.060  0.00  0.00    +0.000 A 
ATOM     27  C   UNL     1       6.756   5.382  17.368  0.00  0.00    +0.000 A 
BRANCH  27  28
ATOM     28  C   UNL     1       7.663   5.972  18.384  0.00  0.00    +0.000 C 
ATOM     29  O   UNL     1       7.978   7.149  18.400  0.00  0.00    +0.000 OA
BRANCH  28  30
ATOM     30  O   UNL     1       8.152   5.063  19.256  0.00  0.00    +0.000 OA
ATOM     31  H   UNL     1       9.082   4.813  19.074  0.00  0.00    +0.000 HD
ENDBRANCH  28  30
ENDBRANCH  27  28
ENDBRANCH  20  22
ENDBRANCH   7  20
TORSDOF 7
ENDMDL
MODEL 4
REMARK VINA RESULT:      -8.3      2.627      4.767
REMARK  Name = 
REMARK  7 active torsions:
REMARK  status: ('A' for Active; 'I' for Inactive)
REMARK    1  A    between atoms: C_2  and  O_3
REMARK    2  A    between atoms: C_2  and  C_4
REMARK    3  A    between atoms: C_7  and  N_8
REMARK    4  A    between atoms: C_14  and  N_15
REMARK    5  A    between atoms: N_15  and  C_16
REMARK    6  A    between atoms: C_21  and  C_22
REMARK    7  A    between atoms: C_22  and  O_24
REMARK                            x       y       z     vdW  Elec       q    Type
REMARK                         _______ _______ _______ _____ _____    ______ ____
ROOT
ATOM      1  N   UNL     1       3.027   8.153  17.682  0.00  0.00    +0.000 N 
ATOM      2  C   UNL     1       3.592   6.951  17.249  0.00  0.00    +0.000 A 
ATOM      3  N   UNL     1       4.614   7.030  16.385  0.00  0.00    +0.000 NA
ATOM      4  C   UNL     1       5.193   5.862  16.021  0.00  0.00    +0.000 A 
ATOM      5  C   UNL     1       4.788   4.635  16.489  0.00  0.00    +0.000 A 
ATOM      6  F   UNL     1       5.392   3.506  16.103  0.00  0.00    +0.000 F 
ATOM      7  C   UNL     1       3.730   4.630  17.368  0.00  0.00    +0.000 A 
ATOM      8  N   UNL     1       3.141   5.781  17.730  0.00  0.00    +0.000 NA
ATOM      9  H   UNL     1       3.552   8.930  17.307  0.00  0.00    +0.000 HD
ENDROOT
BRANCH   1  13
ATOM     10  C   UNL     1       0.697   9.041  21.097  0.00  0.00    +0.000 A 
ATOM     11  C   UNL     1       0.678   9.887  19.984  0.00  0.00    +0.000 A 
ATOM     12  C   UNL     1       1.431   9.567  18.844  0.00  0.00    +0.000 A 
ATOM     13  C   UNL     1       2.216   8.405  18.800  0.00  0.00    +0.000 A 
ATOM     14  C   UNL     1       2.137   7.534  19.898  0.00  0.00    +0.000 A 
ATOM     15  C   UNL     1       1.398   7.842  21.039  0.00  0.00    +0.000 A 
BRANCH  10  17
ATOM     16  O   UNL     1       0.132  10.453  22.915  0.00  0.00    +0.000 OA
ATOM     17  C   UNL     1      -0.064   9.419  22.308  0.00  0.00    +0.000 C 
BRANCH  17  18
ATOM     18  O   UNL     1      -0.960   8.484  22.696  0.00  0.00    +0.000 OA
ATOM     19  H   UNL     1      -1.678   8.309  22.059  0.00  0.00    +0.000 HD
ENDBRANCH  17  18
ENDBRANCH  10  17
ENDBRANCH   1  13
BRANCH   7  20
ATOM     20  N   UNL     1       3.216   3.426  17.885  0.00  0.00    +0.000 N 
ATOM     21  H   UNL     1       3.311   2.627  17.264  0.00  0.00    +0.000 HD
BRANCH  20  22
ATOM     22  C   UNL     1       2.590   3.192  19.132  0.00  0.00    +0.000 A 
ATOM     23  C   UNL     1       1.214   3.429  19.294  0.00  0.00    +0.000 A 
ATOM     24  C   UNL     1       0.558   3.153  20.499  0.00  0.00    +0.000 A 
ATOM     25  C   UNL     1       1.271   2.660  21.585  0.00  0.00    +0.000 A 
ATOM     26  C   UNL     1       2.647   2.475  21.475  0.00  0.00    +0.000 A 
ATOM     27  C   UNL     1       3.309   2.758  20.267  0.00  0.00    +0.000 A 
BRANCH  27  28
ATOM     28  C   UNL     1       4.783   2.582  20.273  0.00  0.00    +0.000 C 
ATOM     29  O   UNL     1       5.541   3.247  19.589  0.00  0.00    +0.000 OA
BRANCH  28  30
ATOM     30  O   UNL     1       5.197   1.572  21.069  0.00  0.00    +0.000 OA
ATOM     31  H   UNL     1       5.093   1.763  22.025  0.00  0.00    +0.000 HD
ENDBRANCH  28  30
ENDBRANCH  27  28
ENDBRANCH  20  22
ENDBRANCH   7  20
TORSDOF 7
ENDMDL
MODEL 5
REMARK VINA RESULT:      -8.3      0.197      1.121
REMARK  Name = 
REMARK  7 active torsions:
REMARK  status: ('A' for Active; 'I' for Inactive)
REMARK    1  A    between atoms: C_2  and  O_3
REMARK    2  A    between atoms: C_2  and  C_4
REMARK    3  A    between atoms: C_7  and  N_8
REMARK    4  A    between atoms: C_14  and  N_15
REMARK    5  A    between atoms: N_15  and  C_16
REMARK    6  A    between atoms: C_21  and  C_22
REMARK    7  A    between atoms: C_22  and  O_24
REMARK                            x       y       z     vdW  Elec       q    Type
REMARK                         _______ _______ _______ _____ _____    ______ ____
ROOT
ATOM      1  N   UNL     1       1.845   5.611  21.055  0.00  0.00    +0.000 N 
ATOM      2  C   UNL     1       2.675   4.511  20.828  0.00  0.00    +0.000 A 
ATOM      3  N   UNL     1       2.341   3.358  21.425  0.00  0.00    +0.000 NA
ATOM      4  C   UNL     1       3.117   2.284  21.148  0.00  0.00    +0.000 A 
ATOM      5  C   UNL     1       4.199   2.326  20.301  0.00  0.00    +0.000 A 
ATOM      6  F   UNL     1       4.937   1.238  20.055  0.00  0.00    +0.000 F 
ATOM      7  C   UNL     1       4.485   3.543  19.728  0.00  0.00    +0.000 A 
ATOM      8  N   UNL     1       3.729   4.619  20.002  0.00  0.00    +0.000 NA
ATOM      9  H   UNL     1       1.048   5.329  21.607  0.00  0.00    +0.000 HD
ENDROOT
BRANCH   1  13
ATOM     10  C   UNL     1       1.677   9.236  18.882  0.00  0.00    +0.000 A 
ATOM     11  C   UNL     1       2.188   8.075  18.292  0.00  0.00    +0.000 A 
ATOM     12  C   UNL     1       2.210   6.870  19.011  0.00  0.00    +0.000 A 
ATOM     13  C   UNL     1       1.731   6.807  20.327  0.00  0.00    +0.000 A 
ATOM     14  C   UNL     1       1.141   7.967  20.854  0.00  0.00    +0.000 A 
ATOM     15  C   UNL     1       1.116   9.171  20.153  0.00  0.00    +0.000 A 
BRANCH  10  17
ATOM     16  O   UNL     1       2.679  10.883  17.504  0.00  0.00    +0.000 OA
ATOM     17  C   UNL     1       1.705  10.507  18.127  0.00  0.00    +0.000 C 
BRANCH  17  18
ATOM     18  O   UNL     1       0.566  11.226  18.238  0.00  0.00    +0.000 OA
ATOM     19  H   UNL     1       0.589  11.938  18.904  0.00  0.00    +0.000 HD
ENDBRANCH  17  18
ENDBRANCH  10  17
ENDBRANCH   1  13
BRANCH   7  20
ATOM     20  N   UNL     1       5.588   3.705  18.869  0.00  0.00    +0.000 N 
ATOM     21  H   UNL     1       6.339   3.035  19.018  0.00  0.00    +0.000 HD
BRANCH  20  22
ATOM     22  C   UNL     1       5.785   4.666  17.851  0.00  0.00    +0.000 A 
ATOM     23  C   UNL     1       5.096   4.562  16.630  0.00  0.00    +0.000 A 
ATOM     24  C   UNL     1       5.228   5.528  15.627  0.00  0.00    +0.000 A 
ATOM     25  C   UNL     1       6.080   6.611  15.809  0.00  0.00    +0.000 A 
ATOM     26  C   UNL     1       6.825   6.709  16.981  0.00  0.00    +0.000 A 
ATOM     27  C   UNL     1       6.698   5.734  17.988  0.00  0.00    +0.000 A 
BRANCH  27  28
ATOM     28  C   UNL     1       7.579   5.901  19.171  0.00  0.00    +0.000 C 
ATOM     29  O   UNL     1       7.492   5.213  20.173  0.00  0.00    +0.000 OA
BRANCH  28  30
ATOM     30  O   UNL     1       8.446   6.930  19.052  0.00  0.00    +0.000 OA
ATOM     31  H   UNL     1       9.381   6.665  19.182  0.00  0.00    +0.000 HD
ENDBRANCH  28  30
ENDBRANCH  27  28
ENDBRANCH  20  22
ENDBRANCH   7  20
TORSDOF 7
ENDMDL
MODEL 6
REMARK VINA RESULT:      -8.2      2.600      4.645
REMARK  Name = 
REMARK  7 active torsions:
REMARK  status: ('A' for Active; 'I' for Inactive)
REMARK    1  A    between atoms: C_2  and  O_3
REMARK    2  A    between atoms: C_2  and  C_4
REMARK    3  A    between atoms: C_7  and  N_8
REMARK    4  A    between atoms: C_14  and  N_15
REMARK    5  A    between atoms: N_15  and  C_16
REMARK    6  A    between atoms: C_21  and  C_22
REMARK    7  A    between atoms: C_22  and  O_24
REMARK                            x       y       z     vdW  Elec       q    Type
REMARK                         _______ _______ _______ _____ _____    ______ ____
ROOT
ATOM      1  N   UNL     1       3.608   7.895  17.095  0.00  0.00    +0.000 N 
ATOM      2  C   UNL     1       4.159   6.676  16.695  0.00  0.00    +0.000 A 
ATOM      3  N   UNL     1       5.235   6.722  15.897  0.00  0.00    +0.000 NA
ATOM      4  C   UNL     1       5.797   5.536  15.567  0.00  0.00    +0.000 A 
ATOM      5  C   UNL     1       5.325   4.322  16.008  0.00  0.00    +0.000 A 
ATOM      6  F   UNL     1       5.914   3.174  15.657  0.00  0.00    +0.000 F 
ATOM      7  C   UNL     1       4.215   4.351  16.820  0.00  0.00    +0.000 A 
ATOM      8  N   UNL     1       3.642   5.521  17.146  0.00  0.00    +0.000 NA
ATOM      9  H   UNL     1       4.179   8.656  16.755  0.00  0.00    +0.000 HD
ENDROOT
BRANCH   1  13
ATOM     10  C   UNL     1       1.097   8.865  20.357  0.00  0.00    +0.000 A 
ATOM     11  C   UNL     1       1.138   9.682  19.223  0.00  0.00    +0.000 A 
ATOM     12  C   UNL     1       1.950   9.335  18.133  0.00  0.00    +0.000 A 
ATOM     13  C   UNL     1       2.737   8.174  18.162  0.00  0.00    +0.000 A 
ATOM     14  C   UNL     1       2.601   7.332  19.276  0.00  0.00    +0.000 A 
ATOM     15  C   UNL     1       1.801   7.666  20.367  0.00  0.00    +0.000 A 
BRANCH  10  17
ATOM     16  O   UNL     1      -0.677   8.623  21.909  0.00  0.00    +0.000 OA
ATOM     17  C   UNL     1       0.272   9.272  21.516  0.00  0.00    +0.000 C 
BRANCH  17  18
ATOM     18  O   UNL     1       0.648  10.451  22.059  0.00  0.00    +0.000 OA
ATOM     19  H   UNL     1      -0.084  11.035  22.329  0.00  0.00    +0.000 HD
ENDBRANCH  17  18
ENDBRANCH  10  17
ENDBRANCH   1  13
BRANCH   7  20
ATOM     20  N   UNL     1       3.631   3.165  17.302  0.00  0.00    +0.000 N 
ATOM     21  H   UNL     1       3.819   2.343  16.734  0.00  0.00    +0.000 HD
BRANCH  20  22
ATOM     22  C   UNL     1       2.828   2.976  18.451  0.00  0.00    +0.000 A 
ATOM     23  C   UNL     1       1.427   3.058  18.362  0.00  0.00    +0.000 A 
ATOM     24  C   UNL     1       0.606   2.820  19.469  0.00  0.00    +0.000 A 
ATOM     25  C   UNL     1       1.168   2.521  20.704  0.00  0.00    +0.000 A 
ATOM     26  C   UNL     1       2.554   2.495  20.839  0.00  0.00    +0.000 A 
ATOM     27  C   UNL     1       3.381   2.741  19.728  0.00  0.00    +0.000 A 
BRANCH  27  28
ATOM     28  C   UNL     1       4.842   2.747  19.991  0.00  0.00    +0.000 C 
ATOM     29  O   UNL     1       5.570   3.682  19.712  0.00  0.00    +0.000 OA
BRANCH  28  30
ATOM     30  O   UNL     1       5.295   1.587  20.516  0.00  0.00    +0.000 OA
ATOM     31  H   UNL     1       4.577   0.974  20.779  0.00  0.00    +0.000 HD
ENDBRANCH  28  30
ENDBRANCH  27  28
ENDBRANCH  20  22
ENDBRANCH   7  20
TORSDOF 7
ENDMDL
MODEL 7
REMARK VINA RESULT:      -8.1      2.544      4.642
REMARK  Name = 
REMARK  7 active torsions:
REMARK  status: ('A' for Active; 'I' for Inactive)
REMARK    1  A    between atoms: C_2  and  O_3
REMARK    2  A    between atoms: C_2  and  C_4
REMARK    3  A    between atoms: C_7  and  N_8
REMARK    4  A    between atoms: C_14  and  N_15
REMARK    5  A    between atoms: N_15  and  C_16
REMARK    6  A    between atoms: C_21  and  C_22
REMARK    7  A    between atoms: C_22  and  O_24
REMARK                            x       y       z     vdW  Elec       q    Type
REMARK                         _______ _______ _______ _____ _____    ______ ____
ROOT
ATOM      1  N   UNL     1       3.497   7.951  17.141  0.00  0.00    +0.000 N 
ATOM      2  C   UNL     1       4.033   6.707  16.800  0.00  0.00    +0.000 A 
ATOM      3  N   UNL     1       5.095   6.701  15.982  0.00  0.00    +0.000 NA
ATOM      4  C   UNL     1       5.643   5.494  15.709  0.00  0.00    +0.000 A 
ATOM      5  C   UNL     1       5.170   4.310  16.222  0.00  0.00    +0.000 A 
ATOM      6  F   UNL     1       5.746   3.140  15.925  0.00  0.00    +0.000 F 
ATOM      7  C   UNL     1       4.074   4.393  17.050  0.00  0.00    +0.000 A 
ATOM      8  N   UNL     1       3.515   5.583  17.321  0.00  0.00    +0.000 NA
ATOM      9  H   UNL     1       4.068   8.687  16.751  0.00  0.00    +0.000 HD
ENDROOT
BRANCH   1  13
ATOM     10  C   UNL     1       0.828   8.852  20.296  0.00  0.00    +0.000 A 
ATOM     11  C   UNL     1       1.667   7.736  20.370  0.00  0.00    +0.000 A 
ATOM     12  C   UNL     1       2.571   7.463  19.333  0.00  0.00    +0.000 A 
ATOM     13  C   UNL     1       2.647   8.294  18.206  0.00  0.00    +0.000 A 
ATOM     14  C   UNL     1       1.858   9.455  18.208  0.00  0.00    +0.000 A 
ATOM     15  C   UNL     1       0.952   9.736  19.229  0.00  0.00    +0.000 A 
BRANCH  10  17
ATOM     16  O   UNL     1      -0.765   8.203  21.926  0.00  0.00    +0.000 OA
ATOM     17  C   UNL     1      -0.152   9.097  21.376  0.00  0.00    +0.000 C 
BRANCH  17  18
ATOM     18  O   UNL     1      -0.330  10.407  21.655  0.00  0.00    +0.000 OA
ATOM     19  H   UNL     1      -0.914  10.887  21.039  0.00  0.00    +0.000 HD
ENDBRANCH  17  18
ENDBRANCH  10  17
ENDBRANCH   1  13
BRANCH   7  20
ATOM     20  N   UNL     1       3.491   3.239  17.606  0.00  0.00    +0.000 N 
ATOM     21  H   UNL     1       3.622   2.395  17.055  0.00  0.00    +0.000 HD
BRANCH  20  22
ATOM     22  C   UNL     1       2.755   3.109  18.806  0.00  0.00    +0.000 A 
ATOM     23  C   UNL     1       1.389   3.441  18.844  0.00  0.00    +0.000 A 
ATOM     24  C   UNL     1       0.623   3.268  20.002  0.00  0.00    +0.000 A 
ATOM     25  C   UNL     1       1.214   2.786  21.164  0.00  0.00    +0.000 A 
ATOM     26  C   UNL     1       2.578   2.508  21.176  0.00  0.00    +0.000 A 
ATOM     27  C   UNL     1       3.350   2.688  20.014  0.00  0.00    +0.000 A 
BRANCH  27  28
ATOM     28  C   UNL     1       4.804   2.419  20.150  0.00  0.00    +0.000 C 
ATOM     29  O   UNL     1       5.258   1.502  20.811  0.00  0.00    +0.000 OA
BRANCH  28  30
ATOM     30  O   UNL     1       5.578   3.327  19.516  0.00  0.00    +0.000 OA
ATOM     31  H   UNL     1       5.144   3.727  18.733  0.00  0.00    +0.000 HD
ENDBRANCH  28  30
ENDBRANCH  27  28
ENDBRANCH  20  22
ENDBRANCH   7  20
TORSDOF 7
ENDMDL
MODEL 8
REMARK VINA RESULT:      -8.0      4.497      7.372
REMARK  Name = 
REMARK  7 active torsions:
REMARK  status: ('A' for Active; 'I' for Inactive)
REMARK    1  A    between atoms: C_2  and  O_3
REMARK    2  A    between atoms: C_2  and  C_4
REMARK    3  A    between atoms: C_7  and  N_8
REMARK    4  A    between atoms: C_14  and  N_15
REMARK    5  A    between atoms: N_15  and  C_16
REMARK    6  A    between atoms: C_21  and  C_22
REMARK    7  A    between atoms: C_22  and  O_24
REMARK                            x       y       z     vdW  Elec       q    Type
REMARK                         _______ _______ _______ _____ _____    ______ ____
ROOT
ATOM      1  N   UNL     1       7.584   5.523  14.937  0.00  0.00    +0.000 N 
ATOM      2  C   UNL     1       7.356   5.549  16.315  0.00  0.00    +0.000 A 
ATOM      3  N   UNL     1       7.890   6.567  17.005  0.00  0.00    +0.000 NA
ATOM      4  C   UNL     1       7.610   6.616  18.328  0.00  0.00    +0.000 A 
ATOM      5  C   UNL     1       6.822   5.693  18.973  0.00  0.00    +0.000 A 
ATOM      6  F   UNL     1       6.571   5.782  20.284  0.00  0.00    +0.000 F 
ATOM      7  C   UNL     1       6.313   4.673  18.203  0.00  0.00    +0.000 A 
ATOM      8  N   UNL     1       6.591   4.607  16.891  0.00  0.00    +0.000 NA
ATOM      9  H   UNL     1       8.084   6.355  14.658  0.00  0.00    +0.000 HD
ENDROOT
BRANCH   1  13
ATOM     10  C   UNL     1       5.536   3.252  12.015  0.00  0.00    +0.000 A 
ATOM     11  C   UNL     1       4.891   3.646  13.191  0.00  0.00    +0.000 A 
ATOM     12  C   UNL     1       5.570   4.425  14.140  0.00  0.00    +0.000 A 
ATOM     13  C   UNL     1       6.900   4.817  13.933  0.00  0.00    +0.000 A 
ATOM     14  C   UNL     1       7.485   4.484  12.701  0.00  0.00    +0.000 A 
ATOM     15  C   UNL     1       6.824   3.706  11.752  0.00  0.00    +0.000 A 
BRANCH  10  17
ATOM     16  O   UNL     1       3.749   2.693  10.562  0.00  0.00    +0.000 OA
ATOM     17  C   UNL     1       4.822   2.391  11.048  0.00  0.00    +0.000 C 
BRANCH  17  18
ATOM     18  O   UNL     1       5.454   1.223  10.797  0.00  0.00    +0.000 OA
ATOM     19  H   UNL     1       5.155   0.466  11.334  0.00  0.00    +0.000 HD
ENDBRANCH  17  18
ENDBRANCH  10  17
ENDBRANCH   1  13
BRANCH   7  20
ATOM     20  N   UNL     1       5.519   3.657  18.768  0.00  0.00    +0.000 N 
ATOM     21  H   UNL     1       6.040   2.965  19.301  0.00  0.00    +0.000 HD
BRANCH  20  22
ATOM     22  C   UNL     1       4.120   3.476  18.684  0.00  0.00    +0.000 A 
ATOM     23  C   UNL     1       3.378   4.113  17.673  0.00  0.00    +0.000 A 
ATOM     24  C   UNL     1       2.001   3.907  17.532  0.00  0.00    +0.000 A 
ATOM     25  C   UNL     1       1.325   3.080  18.421  0.00  0.00    +0.000 A 
ATOM     26  C   UNL     1       2.020   2.486  19.471  0.00  0.00    +0.000 A 
ATOM     27  C   UNL     1       3.403   2.697  19.618  0.00  0.00    +0.000 A 
BRANCH  27  28
ATOM     28  C   UNL     1       4.036   2.066  20.802  0.00  0.00    +0.000 C 
ATOM     29  O   UNL     1       3.536   2.071  21.913  0.00  0.00    +0.000 OA
BRANCH  28  30
ATOM     30  O   UNL     1       5.251   1.536  20.540  0.00  0.00    +0.000 OA
ATOM     31  H   UNL     1       5.243   0.897  19.797  0.00  0.00    +0.000 HD
ENDBRANCH  28  30
ENDBRANCH  27  28
ENDBRANCH  20  22
ENDBRANCH   7  20
TORSDOF 7
ENDMDL
MODEL 9
REMARK VINA RESULT:      -8.0      1.599      2.378
REMARK  Name = 
REMARK  7 active torsions:
REMARK  status: ('A' for Active; 'I' for Inactive)
REMARK    1  A    between atoms: C_2  and  O_3
REMARK    2  A    between atoms: C_2  and  C_4
REMARK    3  A    between atoms: C_7  and  N_8
REMARK    4  A    between atoms: C_14  and  N_15
REMARK    5  A    between atoms: N_15  and  C_16
REMARK    6  A    between atoms: C_21  and  C_22
REMARK    7  A    between atoms: C_22  and  O_24
REMARK                            x       y       z     vdW  Elec       q    Type
REMARK                         _______ _______ _______ _____ _____    ______ ____
ROOT
ATOM      1  N   UNL     1       1.692   6.074  21.156  0.00  0.00    +0.000 N 
ATOM      2  C   UNL     1       2.470   4.984  20.761  0.00  0.00    +0.000 A 
ATOM      3  N   UNL     1       2.180   3.794  21.306  0.00  0.00    +0.000 NA
ATOM      4  C   UNL     1       2.900   2.735  20.869  0.00  0.00    +0.000 A 
ATOM      5  C   UNL     1       3.884   2.826  19.914  0.00  0.00    +0.000 A 
ATOM      6  F   UNL     1       4.569   1.751  19.511  0.00  0.00    +0.000 F 
ATOM      7  C   UNL     1       4.131   4.079  19.402  0.00  0.00    +0.000 A 
ATOM      8  N   UNL     1       3.431   5.140  19.835  0.00  0.00    +0.000 NA
ATOM      9  H   UNL     1       0.954   5.762  21.771  0.00  0.00    +0.000 HD
ENDROOT
BRANCH   1  13
ATOM     10  C   UNL     1       1.359   9.862  19.303  0.00  0.00    +0.000 A 
ATOM     11  C   UNL     1       1.927   8.782  18.619  0.00  0.00    +0.000 A 
ATOM     12  C   UNL     1       2.004   7.522  19.232  0.00  0.00    +0.000 A 
ATOM     13  C   UNL     1       1.523   7.323  20.534  0.00  0.00    +0.000 A 
ATOM     14  C   UNL     1       0.877   8.403  21.154  0.00  0.00    +0.000 A 
ATOM     15  C   UNL     1       0.796   9.661  20.559  0.00  0.00    +0.000 A 
BRANCH  10  17
ATOM     16  O   UNL     1       0.514  12.048  18.952  0.00  0.00    +0.000 OA
ATOM     17  C   UNL     1       1.329  11.194  18.661  0.00  0.00    +0.000 C 
BRANCH  17  18
ATOM     18  O   UNL     1       2.261  11.348  17.695  0.00  0.00    +0.000 OA
ATOM     19  H   UNL     1       2.985  11.965  17.911  0.00  0.00    +0.000 HD
ENDBRANCH  17  18
ENDBRANCH  10  17
ENDBRANCH   1  13
BRANCH   7  20
ATOM     20  N   UNL     1       5.137   4.291  18.442  0.00  0.00    +0.000 N 
ATOM     21  H   UNL     1       5.153   3.605  17.691  0.00  0.00    +0.000 HD
BRANCH  20  22
ATOM     22  C   UNL     1       6.114   5.312  18.392  0.00  0.00    +0.000 A 
ATOM     23  C   UNL     1       7.124   5.380  19.369  0.00  0.00    +0.000 A 
ATOM     24  C   UNL     1       8.136   6.345  19.312  0.00  0.00    +0.000 A 
ATOM     25  C   UNL     1       8.145   7.288  18.291  0.00  0.00    +0.000 A 
ATOM     26  C   UNL     1       7.123   7.286  17.346  0.00  0.00    +0.000 A 
ATOM     27  C   UNL     1       6.102   6.321  17.405  0.00  0.00    +0.000 A 
BRANCH  27  28
ATOM     28  C   UNL     1       5.030   6.442  16.385  0.00  0.00    +0.000 C 
ATOM     29  O   UNL     1       5.248   6.651  15.205  0.00  0.00    +0.000 OA
BRANCH  28  30
ATOM     30  O   UNL     1       3.785   6.358  16.904  0.00  0.00    +0.000 OA
ATOM     31  H   UNL     1       3.285   7.199  16.849  0.00  0.00    +0.000 HD
ENDBRANCH  28  30
ENDBRANCH  27  28
ENDBRANCH  20  22
ENDBRANCH   7  20
TORSDOF 7
ENDMDL
