MODEL 1
REMARK VINA RESULT:      -6.8      0.000      0.000
REMARK  Name = 
REMARK  6 active torsions:
REMARK  status: ('A' for Active; 'I' for Inactive)
REMARK    1  A    between atoms: C_1  and  C_2
REMARK    2  A    between atoms: C_2  and  N_3
REMARK    3  A    between atoms: N_16  and  C_17
REMARK    4  A    between atoms: C_20  and  C_21
REMARK    5  A    between atoms: N_25  and  C_26
REMARK    6  A    between atoms: C_26  and  C_27
REMARK                            x       y       z     vdW  Elec       q    Type
REMARK                         _______ _______ _______ _____ _____    ______ ____
ROOT
ATOM      1  N   UNL     1      -2.872  13.107  23.168  0.00  0.00    +0.000 N 
ATOM      2  C   UNL     1      -1.999  12.037  22.907  0.00  0.00    +0.000 A 
ATOM      3  O   UNL     1      -1.676  11.210  23.750  0.00  0.00    +0.000 OA
ATOM      4  C   UNL     1      -1.533  12.078  21.474  0.00  0.00    +0.000 A 
ATOM      5  C   UNL     1      -0.726  11.201  20.822  0.00  0.00    +0.000 C 
ATOM      6  S   UNL     1      -0.059   9.792  21.721  0.00  0.00    +0.000 S 
ATOM      7  C   UNL     1       0.794   9.263  20.255  0.00  0.00    +0.000 A 
ATOM      8  C   UNL     1       1.604   8.137  20.163  0.00  0.00    +0.000 A 
ATOM      9  C   UNL     1       2.200   7.855  18.942  0.00  0.00    +0.000 A 
ATOM     10 CL   UNL     1       3.212   6.474  18.782  0.00  0.00    +0.000 Cl
ATOM     11  C   UNL     1       1.987   8.684  17.838  0.00  0.00    +0.000 A 
ATOM     12  C   UNL     1       1.168   9.817  17.946  0.00  0.00    +0.000 A 
ATOM     13  C   UNL     1       0.560  10.122  19.164  0.00  0.00    +0.000 A 
ATOM     14  N   UNL     1      -0.284  11.215  19.465  0.00  0.00    +0.000 N 
ATOM     15  C   UNL     1      -0.658  12.138  18.407  0.00  0.00    +0.000 C 
ATOM     16  S   UNL     1      -2.202  13.490  20.721  0.00  0.00    +0.000 S 
ATOM     17  C   UNL     1      -3.081  13.984  22.132  0.00  0.00    +0.000 A 
ATOM     18  C   UNL     1      -3.851  15.090  22.137  0.00  0.00    +0.000 C 
ENDROOT
BRANCH  18  19
ATOM     19  C   UNL     1      -4.019  15.838  20.938  0.00  0.00    +0.000 A 
ATOM     20  S   UNL     1      -2.826  16.982  20.438  0.00  0.00    +0.000 S 
ATOM     21  C   UNL     1      -3.940  17.762  19.393  0.00  0.00    +0.000 A 
ATOM     22  C   UNL     1      -5.115  17.047  19.339  0.00  0.00    +0.000 A 
ATOM     23  N   UNL     1      -5.114  15.956  20.196  0.00  0.00    +0.000 N 
BRANCH  23  24
ATOM     24  C   UNL     1      -6.309  15.110  20.324  0.00  0.00    +0.000 C 
BRANCH  24  25
ATOM     25  C   UNL     1      -6.242  13.973  19.333  0.00  0.00    +0.000 A 
ATOM     26  C   UNL     1      -5.606  12.768  19.674  0.00  0.00    +0.000 A 
ATOM     27  C   UNL     1      -5.525  11.724  18.751  0.00  0.00    +0.000 A 
ATOM     28  C   UNL     1      -6.077  11.867  17.480  0.00  0.00    +0.000 A 
ATOM     29  C   UNL     1      -6.724  13.049  17.134  0.00  0.00    +0.000 A 
ATOM     30  C   UNL     1      -6.811  14.098  18.054  0.00  0.00    +0.000 A 
ENDBRANCH  24  25
ENDBRANCH  23  24
ENDBRANCH  18  19
BRANCH   1  32
ATOM     31  C   UNL     1      -4.811  12.450  24.574  0.00  0.00    +0.000 C 
ATOM     32  C   UNL     1      -3.497  13.212  24.487  0.00  0.00    +0.000 C 
ENDBRANCH   1  32
TORSDOF 4
ENDMDL
MODEL 2
REMARK VINA RESULT:      -6.7      9.143     12.481
REMARK  Name = 
REMARK  6 active torsions:
REMARK  status: ('A' for Active; 'I' for Inactive)
REMARK    1  A    between atoms: C_1  and  C_2
REMARK    2  A    between atoms: C_2  and  N_3
REMARK    3  A    between atoms: N_16  and  C_17
REMARK    4  A    between atoms: C_20  and  C_21
REMARK    5  A    between atoms: N_25  and  C_26
REMARK    6  A    between atoms: C_26  and  C_27
REMARK                            x       y       z     vdW  Elec       q    Type
REMARK                         _______ _______ _______ _____ _____    ______ ____
ROOT
ATOM      1  N   UNL     1       8.943  15.478  22.222  0.00  0.00    +0.000 N 
ATOM      2  C   UNL     1       7.564  15.225  22.307  0.00  0.00    +0.000 A 
ATOM      3  O   UNL     1       6.958  15.142  23.368  0.00  0.00    +0.000 OA
ATOM      4  C   UNL     1       6.973  15.066  20.929  0.00  0.00    +0.000 A 
ATOM      5  C   UNL     1       5.675  14.861  20.584  0.00  0.00    +0.000 C 
ATOM      6  S   UNL     1       4.437  14.718  21.883  0.00  0.00    +0.000 S 
ATOM      7  C   UNL     1       3.178  14.474  20.653  0.00  0.00    +0.000 A 
ATOM      8  C   UNL     1       1.830  14.270  20.918  0.00  0.00    +0.000 A 
ATOM      9  C   UNL     1       0.967  14.099  19.844  0.00  0.00    +0.000 A 
ATOM     10 CL   UNL     1      -0.709  13.839  20.125  0.00  0.00    +0.000 Cl
ATOM     11  C   UNL     1       1.449  14.133  18.533  0.00  0.00    +0.000 A 
ATOM     12  C   UNL     1       2.812  14.339  18.281  0.00  0.00    +0.000 A 
ATOM     13  C   UNL     1       3.698  14.512  19.344  0.00  0.00    +0.000 A 
ATOM     14  N   UNL     1       5.095  14.723  19.288  0.00  0.00    +0.000 N 
ATOM     15  C   UNL     1       5.744  14.849  17.993  0.00  0.00    +0.000 C 
ATOM     16  S   UNL     1       8.255  15.183  19.767  0.00  0.00    +0.000 S 
ATOM     17  C   UNL     1       9.481  15.475  20.958  0.00  0.00    +0.000 A 
ATOM     18  C   UNL     1      10.771  15.670  20.616  0.00  0.00    +0.000 C 
ENDROOT
BRANCH  18  19
ATOM     19  C   UNL     1      11.136  15.718  19.242  0.00  0.00    +0.000 A 
ATOM     20  S   UNL     1      10.622  17.026  18.238  0.00  0.00    +0.000 S 
ATOM     21  C   UNL     1      10.924  16.118  16.815  0.00  0.00    +0.000 A 
ATOM     22  C   UNL     1      11.541  14.931  17.136  0.00  0.00    +0.000 A 
ATOM     23  N   UNL     1      11.672  14.751  18.505  0.00  0.00    +0.000 N 
BRANCH  23  24
ATOM     24  C   UNL     1      12.249  13.510  19.041  0.00  0.00    +0.000 C 
BRANCH  24  25
ATOM     25  C   UNL     1      11.178  12.452  19.151  0.00  0.00    +0.000 A 
ATOM     26  C   UNL     1      10.720  12.031  20.410  0.00  0.00    +0.000 A 
ATOM     27  C   UNL     1       9.744  11.038  20.513  0.00  0.00    +0.000 A 
ATOM     28  C   UNL     1       9.213  10.455  19.365  0.00  0.00    +0.000 A 
ATOM     29  C   UNL     1       9.645  10.874  18.110  0.00  0.00    +0.000 A 
ATOM     30  C   UNL     1      10.620  11.869  18.000  0.00  0.00    +0.000 A 
ENDBRANCH  24  25
ENDBRANCH  23  24
ENDBRANCH  18  19
BRANCH   1  32
ATOM     31  C   UNL     1       9.747  17.210  23.809  0.00  0.00    +0.000 C 
ATOM     32  C   UNL     1       9.699  15.733  23.449  0.00  0.00    +0.000 C 
ENDBRANCH   1  32
TORSDOF 4
ENDMDL
MODEL 3
REMARK VINA RESULT:      -6.6      5.489     11.659
REMARK  Name = 
REMARK  6 active torsions:
REMARK  status: ('A' for Active; 'I' for Inactive)
REMARK    1  A    between atoms: C_1  and  C_2
REMARK    2  A    between atoms: C_2  and  N_3
REMARK    3  A    between atoms: N_16  and  C_17
REMARK    4  A    between atoms: C_20  and  C_21
REMARK    5  A    between atoms: N_25  and  C_26
REMARK    6  A    between atoms: C_26  and  C_27
REMARK                            x       y       z     vdW  Elec       q    Type
REMARK                         _______ _______ _______ _____ _____    ______ ____
ROOT
ATOM      1  N   UNL     1       3.043   4.181  19.732  0.00  0.00    +0.000 N 
ATOM      2  C   UNL     1       2.213   5.200  20.227  0.00  0.00    +0.000 A 
ATOM      3  O   UNL     1       1.459   5.051  21.182  0.00  0.00    +0.000 OA
ATOM      4  C   UNL     1       2.385   6.459  19.416  0.00  0.00    +0.000 A 
ATOM      5  C   UNL     1       1.801   7.672  19.603  0.00  0.00    +0.000 C 
ATOM      6  S   UNL     1       0.633   7.881  20.956  0.00  0.00    +0.000 S 
ATOM      7  C   UNL     1       0.390   9.576  20.481  0.00  0.00    +0.000 A 
ATOM      8  C   UNL     1      -0.460  10.471  21.118  0.00  0.00    +0.000 A 
ATOM      9  C   UNL     1      -0.537  11.768  20.628  0.00  0.00    +0.000 A 
ATOM     10 CL   UNL     1      -1.578  12.908  21.383  0.00  0.00    +0.000 Cl
ATOM     11  C   UNL     1       0.224  12.156  19.522  0.00  0.00    +0.000 A 
ATOM     12  C   UNL     1       1.077  11.241  18.889  0.00  0.00    +0.000 A 
ATOM     13  C   UNL     1       1.170   9.932  19.363  0.00  0.00    +0.000 A 
ATOM     14  N   UNL     1       1.961   8.877  18.856  0.00  0.00    +0.000 N 
ATOM     15  C   UNL     1       2.862   9.134  17.744  0.00  0.00    +0.000 C 
ATOM     16  S   UNL     1       3.496   6.131  18.126  0.00  0.00    +0.000 S 
ATOM     17  C   UNL     1       3.779   4.491  18.614  0.00  0.00    +0.000 A 
ATOM     18  C   UNL     1       4.627   3.687  17.942  0.00  0.00    +0.000 C 
ENDROOT
BRANCH  18  19
ATOM     19  C   UNL     1       5.375   4.207  16.849  0.00  0.00    +0.000 A 
ATOM     20  S   UNL     1       4.857   3.946  15.223  0.00  0.00    +0.000 S 
ATOM     21  C   UNL     1       6.418   4.312  14.615  0.00  0.00    +0.000 A 
ATOM     22  C   UNL     1       7.226   4.765  15.632  0.00  0.00    +0.000 A 
ATOM     23  N   UNL     1       6.600   4.721  16.869  0.00  0.00    +0.000 N 
BRANCH  23  24
ATOM     24  C   UNL     1       7.329   5.105  18.086  0.00  0.00    +0.000 C 
BRANCH  24  25
ATOM     25  C   UNL     1       7.580   6.594  18.085  0.00  0.00    +0.000 A 
ATOM     26  C   UNL     1       6.856   7.438  17.228  0.00  0.00    +0.000 A 
ATOM     27  C   UNL     1       7.103   8.813  17.213  0.00  0.00    +0.000 A 
ATOM     28  C   UNL     1       8.072   9.360  18.050  0.00  0.00    +0.000 A 
ATOM     29  C   UNL     1       8.785   8.538  18.917  0.00  0.00    +0.000 A 
ATOM     30  C   UNL     1       8.542   7.162  18.939  0.00  0.00    +0.000 A 
ENDBRANCH  24  25
ENDBRANCH  23  24
ENDBRANCH  18  19
BRANCH   1  32
ATOM     31  C   UNL     1       1.993   1.942  19.945  0.00  0.00    +0.000 C 
ATOM     32  C   UNL     1       3.080   2.892  20.423  0.00  0.00    +0.000 C 
ENDBRANCH   1  32
TORSDOF 4
ENDMDL
MODEL 4
REMARK VINA RESULT:      -6.4      2.405      3.928
REMARK  Name = 
REMARK  6 active torsions:
REMARK  status: ('A' for Active; 'I' for Inactive)
REMARK    1  A    between atoms: C_1  and  C_2
REMARK    2  A    between atoms: C_2  and  N_3
REMARK    3  A    between atoms: N_16  and  C_17
REMARK    4  A    between atoms: C_20  and  C_21
REMARK    5  A    between atoms: N_25  and  C_26
REMARK    6  A    between atoms: C_26  and  C_27
REMARK                            x       y       z     vdW  Elec       q    Type
REMARK                         _______ _______ _______ _____ _____    ______ ____
ROOT
ATOM      1  N   UNL     1      -0.353  13.782  19.237  0.00  0.00    +0.000 N 
ATOM      2  C   UNL     1       0.429  12.709  18.777  0.00  0.00    +0.000 A 
ATOM      3  O   UNL     1       1.190  12.792  17.821  0.00  0.00    +0.000 OA
ATOM      4  C   UNL     1       0.181  11.481  19.614  0.00  0.00    +0.000 A 
ATOM      5  C   UNL     1       0.772  10.261  19.522  0.00  0.00    +0.000 C 
ATOM      6  S   UNL     1       2.005   9.981  18.241  0.00  0.00    +0.000 S 
ATOM      7  C   UNL     1       2.200   8.305  18.798  0.00  0.00    +0.000 A 
ATOM      8  C   UNL     1       3.063   7.372  18.238  0.00  0.00    +0.000 A 
ATOM      9  C   UNL     1       3.104   6.099  18.792  0.00  0.00    +0.000 A 
ATOM     10 CL   UNL     1       4.155   4.911  18.129  0.00  0.00    +0.000 Cl
ATOM     11  C   UNL     1       2.296   5.773  19.884  0.00  0.00    +0.000 A 
ATOM     12  C   UNL     1       1.430   6.725  20.438  0.00  0.00    +0.000 A 
ATOM     13  C   UNL     1       1.370   8.010  19.898  0.00  0.00    +0.000 A 
ATOM     14  N   UNL     1       0.560   9.092  20.312  0.00  0.00    +0.000 N 
ATOM     15  C   UNL     1      -0.292   8.936  21.479  0.00  0.00    +0.000 C 
ATOM     16  S   UNL     1      -1.045  11.854  20.783  0.00  0.00    +0.000 S 
ATOM     17  C   UNL     1      -1.204  13.506  20.279  0.00  0.00    +0.000 A 
ATOM     18  C   UNL     1      -2.064  14.351  20.881  0.00  0.00    +0.000 C 
ENDROOT
BRANCH  18  19
ATOM     19  C   UNL     1      -2.810  13.912  22.010  0.00  0.00    +0.000 A 
ATOM     20  S   UNL     1      -2.010  13.391  23.449  0.00  0.00    +0.000 S 
ATOM     21  C   UNL     1      -3.414  12.570  23.992  0.00  0.00    +0.000 A 
ATOM     22  C   UNL     1      -4.473  12.844  23.157  0.00  0.00    +0.000 A 
ATOM     23  N   UNL     1      -4.106  13.625  22.070  0.00  0.00    +0.000 N 
BRANCH  23  24
ATOM     24  C   UNL     1      -5.090  13.966  21.033  0.00  0.00    +0.000 C 
BRANCH  24  25
ATOM     25  C   UNL     1      -5.567  12.709  20.345  0.00  0.00    +0.000 A 
ATOM     26  C   UNL     1      -4.862  12.188  19.247  0.00  0.00    +0.000 A 
ATOM     27  C   UNL     1      -5.314  11.037  18.598  0.00  0.00    +0.000 A 
ATOM     28  C   UNL     1      -6.469  10.394  19.034  0.00  0.00    +0.000 A 
ATOM     29  C   UNL     1      -7.168  10.889  20.131  0.00  0.00    +0.000 A 
ATOM     30  C   UNL     1      -6.721  12.039  20.787  0.00  0.00    +0.000 A 
ENDBRANCH  24  25
ENDBRANCH  23  24
ENDBRANCH  18  19
BRANCH   1  32
ATOM     31  C   UNL     1       0.784  15.988  19.329  0.00  0.00    +0.000 C 
ATOM     32  C   UNL     1      -0.209  15.093  18.603  0.00  0.00    +0.000 C 
ENDBRANCH   1  32
TORSDOF 4
ENDMDL
MODEL 5
REMARK VINA RESULT:      -6.2      2.470      4.178
REMARK  Name = 
REMARK  6 active torsions:
REMARK  status: ('A' for Active; 'I' for Inactive)
REMARK    1  A    between atoms: C_1  and  C_2
REMARK    2  A    between atoms: C_2  and  N_3
REMARK    3  A    between atoms: N_16  and  C_17
REMARK    4  A    between atoms: C_20  and  C_21
REMARK    5  A    between atoms: N_25  and  C_26
REMARK    6  A    between atoms: C_26  and  C_27
REMARK                            x       y       z     vdW  Elec       q    Type
REMARK                         _______ _______ _______ _____ _____    ______ ____
ROOT
ATOM      1  N   UNL     1       0.106  13.134  19.184  0.00  0.00    +0.000 N 
ATOM      2  C   UNL     1       0.849  11.995  18.831  0.00  0.00    +0.000 A 
ATOM      3  O   UNL     1       1.665  11.980  17.918  0.00  0.00    +0.000 OA
ATOM      4  C   UNL     1       0.484  10.833  19.719  0.00  0.00    +0.000 A 
ATOM      5  C   UNL     1       1.009   9.580  19.731  0.00  0.00    +0.000 C 
ATOM      6  S   UNL     1       2.293   9.159  18.542  0.00  0.00    +0.000 S 
ATOM      7  C   UNL     1       2.361   7.511  19.202  0.00  0.00    +0.000 A 
ATOM      8  C   UNL     1       3.199   6.501  18.747  0.00  0.00    +0.000 A 
ATOM      9  C   UNL     1       3.136   5.263  19.373  0.00  0.00    +0.000 A 
ATOM     10 CL   UNL     1       4.153   3.982  18.840  0.00  0.00    +0.000 Cl
ATOM     11  C   UNL     1       2.252   5.045  20.432  0.00  0.00    +0.000 A 
ATOM     12  C   UNL     1       1.412   6.074  20.880  0.00  0.00    +0.000 A 
ATOM     13  C   UNL     1       1.456   7.326  20.266  0.00  0.00    +0.000 A 
ATOM     14  N   UNL     1       0.688   8.473  20.571  0.00  0.00    +0.000 N 
ATOM     15  C   UNL     1      -0.236   8.433  21.693  0.00  0.00    +0.000 C 
ATOM     16  S   UNL     1      -0.781  11.341  20.792  0.00  0.00    +0.000 S 
ATOM     17  C   UNL     1      -0.816  12.966  20.189  0.00  0.00    +0.000 A 
ATOM     18  C   UNL     1      -1.659  13.891  20.691  0.00  0.00    +0.000 C 
ENDROOT
BRANCH  18  19
ATOM     19  C   UNL     1      -2.491  13.560  21.796  0.00  0.00    +0.000 A 
ATOM     20  S   UNL     1      -1.809  12.956  23.264  0.00  0.00    +0.000 S 
ATOM     21  C   UNL     1      -3.322  12.324  23.765  0.00  0.00    +0.000 A 
ATOM     22  C   UNL     1      -4.310  12.721  22.894  0.00  0.00    +0.000 A 
ATOM     23  N   UNL     1      -3.813  13.439  21.816  0.00  0.00    +0.000 N 
BRANCH  23  24
ATOM     24  C   UNL     1      -4.713  13.891  20.744  0.00  0.00    +0.000 C 
BRANCH  24  25
ATOM     25  C   UNL     1      -5.351  12.699  20.073  0.00  0.00    +0.000 A 
ATOM     26  C   UNL     1      -6.605  12.229  20.497  0.00  0.00    +0.000 A 
ATOM     27  C   UNL     1      -7.186  11.115  19.889  0.00  0.00    +0.000 A 
ATOM     28  C   UNL     1      -6.526  10.457  18.854  0.00  0.00    +0.000 A 
ATOM     29  C   UNL     1      -5.291  10.922  18.412  0.00  0.00    +0.000 A 
ATOM     30  C   UNL     1      -4.705  12.038  19.014  0.00  0.00    +0.000 A 
ENDBRANCH  24  25
ENDBRANCH  23  24
ENDBRANCH  18  19
BRANCH   1  32
ATOM     31  C   UNL     1       1.552  15.148  19.056  0.00  0.00    +0.000 C 
ATOM     32  C   UNL     1       0.359  14.396  18.487  0.00  0.00    +0.000 C 
ENDBRANCH   1  32
TORSDOF 4
ENDMDL
MODEL 6
REMARK VINA RESULT:      -6.1      2.589      4.464
REMARK  Name = 
REMARK  6 active torsions:
REMARK  status: ('A' for Active; 'I' for Inactive)
REMARK    1  A    between atoms: C_1  and  C_2
REMARK    2  A    between atoms: C_2  and  N_3
REMARK    3  A    between atoms: N_16  and  C_17
REMARK    4  A    between atoms: C_20  and  C_21
REMARK    5  A    between atoms: N_25  and  C_26
REMARK    6  A    between atoms: C_26  and  C_27
REMARK                            x       y       z     vdW  Elec       q    Type
REMARK                         _______ _______ _______ _____ _____    ______ ____
ROOT
ATOM      1  N   UNL     1       0.641  12.757  19.038  0.00  0.00    +0.000 N 
ATOM      2  C   UNL     1       1.332  11.579  18.708  0.00  0.00    +0.000 A 
ATOM      3  O   UNL     1       2.165  11.515  17.812  0.00  0.00    +0.000 OA
ATOM      4  C   UNL     1       0.890  10.445  19.596  0.00  0.00    +0.000 A 
ATOM      5  C   UNL     1       1.348   9.166  19.627  0.00  0.00    +0.000 C 
ATOM      6  S   UNL     1       2.633   8.670  18.468  0.00  0.00    +0.000 S 
ATOM      7  C   UNL     1       2.602   7.026  19.141  0.00  0.00    +0.000 A 
ATOM      8  C   UNL     1       3.396   5.970  18.710  0.00  0.00    +0.000 A 
ATOM      9  C   UNL     1       3.256   4.742  19.342  0.00  0.00    +0.000 A 
ATOM     10 CL   UNL     1       4.216   3.407  18.840  0.00  0.00    +0.000 Cl
ATOM     11  C   UNL     1       2.340   4.579  20.384  0.00  0.00    +0.000 A 
ATOM     12  C   UNL     1       1.546   5.653  20.808  0.00  0.00    +0.000 A 
ATOM     13  C   UNL     1       1.667   6.897  20.187  0.00  0.00    +0.000 A 
ATOM     14  N   UNL     1       0.953   8.084  20.468  0.00  0.00    +0.000 N 
ATOM     15  C   UNL     1       0.006   8.100  21.571  0.00  0.00    +0.000 C 
ATOM     16  S   UNL     1      -0.369  11.025  20.639  0.00  0.00    +0.000 S 
ATOM     17  C   UNL     1      -0.308  12.645  20.024  0.00  0.00    +0.000 A 
ATOM     18  C   UNL     1      -1.112  13.616  20.502  0.00  0.00    +0.000 C 
ENDROOT
BRANCH  18  19
ATOM     19  C   UNL     1      -1.982  13.337  21.593  0.00  0.00    +0.000 A 
ATOM     20  S   UNL     1      -1.365  12.696  23.072  0.00  0.00    +0.000 S 
ATOM     21  C   UNL     1      -2.922  12.156  23.546  0.00  0.00    +0.000 A 
ATOM     22  C   UNL     1      -3.868  12.610  22.657  0.00  0.00    +0.000 A 
ATOM     23  N   UNL     1      -3.310  13.295  21.588  0.00  0.00    +0.000 N 
BRANCH  23  24
ATOM     24  C   UNL     1      -4.161  13.799  20.500  0.00  0.00    +0.000 C 
BRANCH  24  25
ATOM     25  C   UNL     1      -4.933  12.658  19.882  0.00  0.00    +0.000 A 
ATOM     26  C   UNL     1      -4.385  11.919  18.821  0.00  0.00    +0.000 A 
ATOM     27  C   UNL     1      -5.107  10.877  18.237  0.00  0.00    +0.000 A 
ATOM     28  C   UNL     1      -6.381  10.559  18.702  0.00  0.00    +0.000 A 
ATOM     29  C   UNL     1      -6.930  11.272  19.764  0.00  0.00    +0.000 A 
ATOM     30  C   UNL     1      -6.212  12.314  20.355  0.00  0.00    +0.000 A 
ENDBRANCH  24  25
ENDBRANCH  23  24
ENDBRANCH  18  19
BRANCH   1  32
ATOM     31  C   UNL     1       2.048  14.803  19.053  0.00  0.00    +0.000 C 
ATOM     32  C   UNL     1       0.973  13.999  18.338  0.00  0.00    +0.000 C 
ENDBRANCH   1  32
TORSDOF 4
ENDMDL
MODEL 7
REMARK VINA RESULT:      -6.1      3.328      5.694
REMARK  Name = 
REMARK  6 active torsions:
REMARK  status: ('A' for Active; 'I' for Inactive)
REMARK    1  A    between atoms: C_1  and  C_2
REMARK    2  A    between atoms: C_2  and  N_3
REMARK    3  A    between atoms: N_16  and  C_17
REMARK    4  A    between atoms: C_20  and  C_21
REMARK    5  A    between atoms: N_25  and  C_26
REMARK    6  A    between atoms: C_26  and  C_27
REMARK                            x       y       z     vdW  Elec       q    Type
REMARK                         _______ _______ _______ _____ _____    ______ ____
ROOT
ATOM      1  N   UNL     1      -0.498  13.715  19.384  0.00  0.00    +0.000 N 
ATOM      2  C   UNL     1       0.294  12.671  18.877  0.00  0.00    +0.000 A 
ATOM      3  O   UNL     1       1.001  12.783  17.883  0.00  0.00    +0.000 OA
ATOM      4  C   UNL     1       0.130  11.432  19.719  0.00  0.00    +0.000 A 
ATOM      5  C   UNL     1       0.757  10.233  19.590  0.00  0.00    +0.000 C 
ATOM      6  S   UNL     1       1.930  10.000  18.246  0.00  0.00    +0.000 S 
ATOM      7  C   UNL     1       2.210   8.329  18.783  0.00  0.00    +0.000 A 
ATOM      8  C   UNL     1       3.074   7.428  18.173  0.00  0.00    +0.000 A 
ATOM      9  C   UNL     1       3.186   6.155  18.718  0.00  0.00    +0.000 A 
ATOM     10 CL   UNL     1       4.240   5.005  17.995  0.00  0.00    +0.000 Cl
ATOM     11  C   UNL     1       2.447   5.797  19.848  0.00  0.00    +0.000 A 
ATOM     12  C   UNL     1       1.580   6.718  20.451  0.00  0.00    +0.000 A 
ATOM     13  C   UNL     1       1.449   8.002  19.922  0.00  0.00    +0.000 A 
ATOM     14  N   UNL     1       0.626   9.055  20.384  0.00  0.00    +0.000 N 
ATOM     15  C   UNL     1      -0.159   8.866  21.592  0.00  0.00    +0.000 C 
ATOM     16  S   UNL     1      -1.044  11.759  20.952  0.00  0.00    +0.000 S 
ATOM     17  C   UNL     1      -1.284  13.407  20.467  0.00  0.00    +0.000 A 
ATOM     18  C   UNL     1      -2.140  14.221  21.117  0.00  0.00    +0.000 C 
ENDROOT
BRANCH  18  19
ATOM     19  C   UNL     1      -2.811  13.752  22.281  0.00  0.00    +0.000 A 
ATOM     20  S   UNL     1      -4.416  13.123  22.180  0.00  0.00    +0.000 S 
ATOM     21  C   UNL     1      -4.660  13.338  23.863  0.00  0.00    +0.000 A 
ATOM     22  C   UNL     1      -3.485  13.726  24.464  0.00  0.00    +0.000 A 
ATOM     23  N   UNL     1      -2.459  13.921  23.551  0.00  0.00    +0.000 N 
BRANCH  23  24
ATOM     24  C   UNL     1      -1.144  14.401  24.000  0.00  0.00    +0.000 C 
BRANCH  24  25
ATOM     25  C   UNL     1      -1.288  15.755  24.653  0.00  0.00    +0.000 A 
ATOM     26  C   UNL     1      -0.948  15.934  26.003  0.00  0.00    +0.000 A 
ATOM     27  C   UNL     1      -1.100  17.181  26.613  0.00  0.00    +0.000 A 
ATOM     28  C   UNL     1      -1.591  18.262  25.885  0.00  0.00    +0.000 A 
ATOM     29  C   UNL     1      -1.915  18.103  24.541  0.00  0.00    +0.000 A 
ATOM     30  C   UNL     1      -1.764  16.859  23.924  0.00  0.00    +0.000 A 
ENDBRANCH  24  25
ENDBRANCH  23  24
ENDBRANCH  18  19
BRANCH   1  32
ATOM     31  C   UNL     1       0.644  15.920  19.357  0.00  0.00    +0.000 C 
ATOM     32  C   UNL     1      -0.432  15.033  18.750  0.00  0.00    +0.000 C 
ENDBRANCH   1  32
TORSDOF 4
ENDMDL
MODEL 8
REMARK VINA RESULT:      -6.0      8.524     12.013
REMARK  Name = 
REMARK  6 active torsions:
REMARK  status: ('A' for Active; 'I' for Inactive)
REMARK    1  A    between atoms: C_1  and  C_2
REMARK    2  A    between atoms: C_2  and  N_3
REMARK    3  A    between atoms: N_16  and  C_17
REMARK    4  A    between atoms: C_20  and  C_21
REMARK    5  A    between atoms: N_25  and  C_26
REMARK    6  A    between atoms: C_26  and  C_27
REMARK                            x       y       z     vdW  Elec       q    Type
REMARK                         _______ _______ _______ _____ _____    ______ ____
ROOT
ATOM      1  N   UNL     1       7.317  13.729  22.885  0.00  0.00    +0.000 N 
ATOM      2  C   UNL     1       5.991  13.986  22.499  0.00  0.00    +0.000 A 
ATOM      3  O   UNL     1       5.018  13.589  23.128  0.00  0.00    +0.000 OA
ATOM      4  C   UNL     1       5.962  14.791  21.225  0.00  0.00    +0.000 A 
ATOM      5  C   UNL     1       4.884  15.278  20.558  0.00  0.00    +0.000 C 
ATOM      6  S   UNL     1       3.235  14.940  21.194  0.00  0.00    +0.000 S 
ATOM      7  C   UNL     1       2.527  15.842  19.837  0.00  0.00    +0.000 A 
ATOM      8  C   UNL     1       1.168  16.032  19.625  0.00  0.00    +0.000 A 
ATOM      9  C   UNL     1       0.772  16.768  18.516  0.00  0.00    +0.000 A 
ATOM     10 CL   UNL     1      -0.901  17.025  18.211  0.00  0.00    +0.000 Cl
ATOM     11  C   UNL     1       1.721  17.301  17.640  0.00  0.00    +0.000 A 
ATOM     12  C   UNL     1       3.090  17.101  17.867  0.00  0.00    +0.000 A 
ATOM     13  C   UNL     1       3.512  16.364  18.974  0.00  0.00    +0.000 A 
ATOM     14  N   UNL     1       4.835  16.052  19.360  0.00  0.00    +0.000 N 
ATOM     15  C   UNL     1       5.945  16.588  18.590  0.00  0.00    +0.000 C 
ATOM     16  S   UNL     1       7.594  15.022  20.686  0.00  0.00    +0.000 S 
ATOM     17  C   UNL     1       8.294  14.188  22.036  0.00  0.00    +0.000 A 
ATOM     18  C   UNL     1       9.629  14.053  22.171  0.00  0.00    +0.000 C 
ENDROOT
BRANCH  18  19
ATOM     19  C   UNL     1      10.499  14.671  21.231  0.00  0.00    +0.000 A 
ATOM     20  S   UNL     1      10.534  16.389  21.059  0.00  0.00    +0.000 S 
ATOM     21  C   UNL     1      11.279  16.270  19.519  0.00  0.00    +0.000 A 
ATOM     22  C   UNL     1      11.614  14.962  19.258  0.00  0.00    +0.000 A 
ATOM     23  N   UNL     1      11.189  14.094  20.254  0.00  0.00    +0.000 N 
BRANCH  23  24
ATOM     24  C   UNL     1      11.400  12.645  20.119  0.00  0.00    +0.000 C 
BRANCH  24  25
ATOM     25  C   UNL     1      10.281  12.037  19.307  0.00  0.00    +0.000 A 
ATOM     26  C   UNL     1       9.935  10.687  19.472  0.00  0.00    +0.000 A 
ATOM     27  C   UNL     1       8.914  10.119  18.707  0.00  0.00    +0.000 A 
ATOM     28  C   UNL     1       8.228  10.889  17.772  0.00  0.00    +0.000 A 
ATOM     29  C   UNL     1       8.549  12.234  17.610  0.00  0.00    +0.000 A 
ATOM     30  C   UNL     1       9.568  12.809  18.373  0.00  0.00    +0.000 A 
ENDBRANCH  24  25
ENDBRANCH  23  24
ENDBRANCH  18  19
BRANCH   1  32
ATOM     31  C   UNL     1       7.747  11.521  23.936  0.00  0.00    +0.000 C 
ATOM     32  C   UNL     1       7.571  13.018  24.139  0.00  0.00    +0.000 C 
ENDBRANCH   1  32
TORSDOF 4
ENDMDL
MODEL 9
REMARK VINA RESULT:      -6.0      3.074      4.528
REMARK  Name = 
REMARK  6 active torsions:
REMARK  status: ('A' for Active; 'I' for Inactive)
REMARK    1  A    between atoms: C_1  and  C_2
REMARK    2  A    between atoms: C_2  and  N_3
REMARK    3  A    between atoms: N_16  and  C_17
REMARK    4  A    between atoms: C_20  and  C_21
REMARK    5  A    between atoms: N_25  and  C_26
REMARK    6  A    between atoms: C_26  and  C_27
REMARK                            x       y       z     vdW  Elec       q    Type
REMARK                         _______ _______ _______ _____ _____    ______ ____
ROOT
ATOM      1  N   UNL     1      -0.312  14.838  19.490  0.00  0.00    +0.000 N 
ATOM      2  C   UNL     1       0.255  13.646  19.009  0.00  0.00    +0.000 A 
ATOM      3  O   UNL     1       0.779  13.547  17.906  0.00  0.00    +0.000 OA
ATOM      4  C   UNL     1       0.111  12.546  20.029  0.00  0.00    +0.000 A 
ATOM      5  C   UNL     1       0.567  11.268  19.965  0.00  0.00    +0.000 C 
ATOM      6  S   UNL     1       1.445  10.726  18.491  0.00  0.00    +0.000 S 
ATOM      7  C   UNL     1       1.631   9.107  19.199  0.00  0.00    +0.000 A 
ATOM      8  C   UNL     1       2.265   8.034  18.586  0.00  0.00    +0.000 A 
ATOM      9  C   UNL     1       2.332   6.830  19.274  0.00  0.00    +0.000 A 
ATOM     10 CL   UNL     1       3.105   5.474  18.552  0.00  0.00    +0.000 Cl
ATOM     11  C   UNL     1       1.776   6.708  20.549  0.00  0.00    +0.000 A 
ATOM     12  C   UNL     1       1.139   7.800  21.155  0.00  0.00    +0.000 A 
ATOM     13  C   UNL     1       1.057   9.019  20.483  0.00  0.00    +0.000 A 
ATOM     14  N   UNL     1       0.453  10.218  20.924  0.00  0.00    +0.000 N 
ATOM     15  C   UNL     1      -0.117  10.278  22.260  0.00  0.00    +0.000 C 
ATOM     16  S   UNL     1      -0.778  13.168  21.382  0.00  0.00    +0.000 S 
ATOM     17  C   UNL     1      -0.918  14.765  20.721  0.00  0.00    +0.000 A 
ATOM     18  C   UNL     1      -1.547  15.756  21.385  0.00  0.00    +0.000 C 
ENDROOT
BRANCH  18  19
ATOM     19  C   UNL     1      -2.044  15.520  22.696  0.00  0.00    +0.000 A 
ATOM     20  S   UNL     1      -1.094  15.912  24.084  0.00  0.00    +0.000 S 
ATOM     21  C   UNL     1      -2.040  14.887  25.083  0.00  0.00    +0.000 A 
ATOM     22  C   UNL     1      -3.121  14.411  24.379  0.00  0.00    +0.000 A 
ATOM     23  N   UNL     1      -3.110  14.810  23.050  0.00  0.00    +0.000 N 
BRANCH  23  24
ATOM     24  C   UNL     1      -4.153  14.344  22.124  0.00  0.00    +0.000 C 
BRANCH  24  25
ATOM     25  C   UNL     1      -5.472  14.235  22.851  0.00  0.00    +0.000 A 
ATOM     26  C   UNL     1      -6.267  15.374  23.058  0.00  0.00    +0.000 A 
ATOM     27  C   UNL     1      -7.478  15.277  23.747  0.00  0.00    +0.000 A 
ATOM     28  C   UNL     1      -7.909  14.047  24.236  0.00  0.00    +0.000 A 
ATOM     29  C   UNL     1      -7.140  12.907  24.024  0.00  0.00    +0.000 A 
ATOM     30  C   UNL     1      -5.928  12.996  23.333  0.00  0.00    +0.000 A 
ENDBRANCH  24  25
ENDBRANCH  23  24
ENDBRANCH  18  19
BRANCH   1  32
ATOM     31  C   UNL     1       1.048  16.848  18.965  0.00  0.00    +0.000 C 
ATOM     32  C   UNL     1      -0.217  16.053  18.679  0.00  0.00    +0.000 C 
ENDBRANCH   1  32
TORSDOF 4
ENDMDL
