MODEL 1
REMARK VINA RESULT:      -8.8      0.000      0.000
REMARK  Name = 
REMARK  9 active torsions:
REMARK  status: ('A' for Active; 'I' for Inactive)
REMARK    1  A    between atoms: C_1  and  O_2
REMARK    2  A    between atoms: O_2  and  C_3
REMARK    3  A    between atoms: C_7  and  C_8
REMARK    4  A    between atoms: C_8  and  N_9
REMARK    5  A    between atoms: C_12  and  C_13
REMARK    6  A    between atoms: N_15  and  C_16
REMARK    7  A    between atoms: C_16  and  C_17
REMARK    8  A    between atoms: C_17  and  C_18
REMARK    9  A    between atoms: C_26  and  N_27
REMARK                            x       y       z     vdW  Elec       q    Type
REMARK                         _______ _______ _______ _____ _____    ______ ____
ROOT
ATOM      1  N   UNL     1       5.262   4.938  16.751  0.00  0.00    +0.000 N 
ATOM      2  C   UNL     1       6.013   5.592  17.754  0.00  0.00    +0.000 A 
ATOM      3  O   UNL     1       7.128   6.077  17.639  0.00  0.00    +0.000 OA
ATOM      4  C   UNL     1       5.246   5.652  19.031  0.00  0.00    +0.000 A 
ATOM      5  C   UNL     1       5.433   4.379  19.451  0.00  0.00    +0.000 A 
ATOM      6  C   UNL     1       4.572   3.470  18.640  0.00  0.00    +0.000 A 
ATOM      7  C   UNL     1       3.873   2.456  19.321  0.00  0.00    +0.000 A 
ATOM      8  C   UNL     1       2.719   1.928  18.765  0.00  0.00    +0.000 A 
ATOM      9  C   UNL     1       2.346   2.416  17.500  0.00  0.00    +0.000 A 
ATOM     10  C   UNL     1       3.138   3.353  16.737  0.00  0.00    +0.000 A 
ATOM     11  C   UNL     1       4.305   3.893  17.281  0.00  0.00    +0.000 A 
ENDROOT
BRANCH   4  12
ATOM     12  C   UNL     1       3.803   6.195  19.002  0.00  0.00    +0.000 C 
ATOM     13  O   UNL     1       2.937   5.727  19.737  0.00  0.00    +0.000 OA
ATOM     14  N   UNL     1       3.517   7.183  18.078  0.00  0.00    +0.000 N 
ATOM     15  H   UNL     1       4.235   7.516  17.451  0.00  0.00    +0.000 HD
BRANCH  14  16
ATOM     16  C   UNL     1       2.156   7.664  17.817  0.00  0.00    +0.000 C 
BRANCH  16  17
ATOM     17  C   UNL     1       2.007   9.176  18.043  0.00  0.00    +0.000 C 
BRANCH  17  18
ATOM     18  C   UNL     1       1.132   9.518  19.228  0.00  0.00    +0.000 A 
ATOM     19  C   UNL     1       0.264  10.619  19.199  0.00  0.00    +0.000 A 
ATOM     20  C   UNL     1      -0.492  10.949  20.326  0.00  0.00    +0.000 A 
ATOM     21  C   UNL     1      -0.394  10.182  21.486  0.00  0.00    +0.000 A 
ATOM     22  C   UNL     1       0.447   9.073  21.516  0.00  0.00    +0.000 A 
ATOM     23  C   UNL     1       1.203   8.740  20.393  0.00  0.00    +0.000 A 
ENDBRANCH  17  18
ENDBRANCH  16  17
ENDBRANCH  14  16
ENDBRANCH   4  12
BRANCH   7  24
ATOM     24  N   UNL     1       4.351   1.956  20.598  0.00  0.00    +0.000 N 
ATOM     25  O   UNL     1       5.399   1.293  20.578  0.00  0.00    +0.000 OA
ATOM     26  O   UNL     1       3.672   2.193  21.604  0.00  0.00    +0.000 OA
ENDBRANCH   7  24
BRANCH   1  27
ATOM     27  C   UNL     1       5.330   5.685  15.473  0.00  0.00    +0.000 C 
BRANCH  27  32
ATOM     28  C   UNL     1       5.859   3.211  12.439  0.00  0.00    +0.000 A 
ATOM     29  C   UNL     1       7.134   3.625  12.045  0.00  0.00    +0.000 A 
ATOM     30  C   UNL     1       7.761   4.679  12.702  0.00  0.00    +0.000 A 
ATOM     31  C   UNL     1       7.157   5.347  13.782  0.00  0.00    +0.000 A 
ATOM     32  C   UNL     1       5.883   4.947  14.224  0.00  0.00    +0.000 A 
ATOM     33  C   UNL     1       5.232   3.868  13.522  0.00  0.00    +0.000 A 
BRANCH  28  35
ATOM     34  C   UNL     1       6.263   1.213  11.086  0.00  0.00    +0.000 C 
ATOM     35  O   UNL     1       5.420   2.181  11.664  0.00  0.00    +0.000 OA
ENDBRANCH  28  35
ENDBRANCH  27  32
ENDBRANCH   1  27
TORSDOF 8
ENDMDL
MODEL 2
REMARK VINA RESULT:      -8.7      0.761      1.240
REMARK  Name = 
REMARK  9 active torsions:
REMARK  status: ('A' for Active; 'I' for Inactive)
REMARK    1  A    between atoms: C_1  and  O_2
REMARK    2  A    between atoms: O_2  and  C_3
REMARK    3  A    between atoms: C_7  and  C_8
REMARK    4  A    between atoms: C_8  and  N_9
REMARK    5  A    between atoms: C_12  and  C_13
REMARK    6  A    between atoms: N_15  and  C_16
REMARK    7  A    between atoms: C_16  and  C_17
REMARK    8  A    between atoms: C_17  and  C_18
REMARK    9  A    between atoms: C_26  and  N_27
REMARK                            x       y       z     vdW  Elec       q    Type
REMARK                         _______ _______ _______ _____ _____    ______ ____
ROOT
ATOM      1  N   UNL     1       5.204   4.951  16.774  0.00  0.00    +0.000 N 
ATOM      2  C   UNL     1       5.964   5.610  17.767  0.00  0.00    +0.000 A 
ATOM      3  O   UNL     1       7.080   6.090  17.640  0.00  0.00    +0.000 OA
ATOM      4  C   UNL     1       5.205   5.682  19.048  0.00  0.00    +0.000 A 
ATOM      5  C   UNL     1       5.391   4.412  19.477  0.00  0.00    +0.000 A 
ATOM      6  C   UNL     1       4.521   3.499  18.678  0.00  0.00    +0.000 A 
ATOM      7  C   UNL     1       3.822   2.494  19.371  0.00  0.00    +0.000 A 
ATOM      8  C   UNL     1       2.664   1.965  18.827  0.00  0.00    +0.000 A 
ATOM      9  C   UNL     1       2.284   2.446  17.561  0.00  0.00    +0.000 A 
ATOM     10  C   UNL     1       3.075   3.374  16.785  0.00  0.00    +0.000 A 
ATOM     11  C   UNL     1       4.247   3.913  17.318  0.00  0.00    +0.000 A 
ENDROOT
BRANCH   4  12
ATOM     12  C   UNL     1       3.765   6.230  19.024  0.00  0.00    +0.000 C 
ATOM     13  O   UNL     1       3.373   6.936  18.098  0.00  0.00    +0.000 OA
ATOM     14  N   UNL     1       2.960   5.942  20.111  0.00  0.00    +0.000 N 
ATOM     15  H   UNL     1       3.322   5.401  20.883  0.00  0.00    +0.000 HD
BRANCH  14  16
ATOM     16  C   UNL     1       1.635   6.541  20.306  0.00  0.00    +0.000 C 
BRANCH  16  17
ATOM     17  C   UNL     1       1.689   7.854  21.103  0.00  0.00    +0.000 C 
BRANCH  17  18
ATOM     18  C   UNL     1       0.942   8.987  20.435  0.00  0.00    +0.000 A 
ATOM     19  C   UNL     1       1.186   9.332  19.098  0.00  0.00    +0.000 A 
ATOM     20  C   UNL     1       0.526  10.418  18.518  0.00  0.00    +0.000 A 
ATOM     21  C   UNL     1      -0.385  11.163  19.264  0.00  0.00    +0.000 A 
ATOM     22  C   UNL     1      -0.652  10.814  20.586  0.00  0.00    +0.000 A 
ATOM     23  C   UNL     1       0.005   9.730  21.167  0.00  0.00    +0.000 A 
ENDBRANCH  17  18
ENDBRANCH  16  17
ENDBRANCH  14  16
ENDBRANCH   4  12
BRANCH   7  24
ATOM     24  N   UNL     1       4.308   2.001  20.649  0.00  0.00    +0.000 N 
ATOM     25  O   UNL     1       5.392   1.400  20.638  0.00  0.00    +0.000 OA
ATOM     26  O   UNL     1       3.599   2.184  21.646  0.00  0.00    +0.000 OA
ENDBRANCH   7  24
BRANCH   1  27
ATOM     27  C   UNL     1       5.266   5.687  15.490  0.00  0.00    +0.000 C 
BRANCH  27  32
ATOM     28  C   UNL     1       5.851   3.232  12.450  0.00  0.00    +0.000 A 
ATOM     29  C   UNL     1       7.145   3.627  12.102  0.00  0.00    +0.000 A 
ATOM     30  C   UNL     1       7.769   4.664  12.789  0.00  0.00    +0.000 A 
ATOM     31  C   UNL     1       7.141   5.333  13.855  0.00  0.00    +0.000 A 
ATOM     32  C   UNL     1       5.846   4.951  14.252  0.00  0.00    +0.000 A 
ATOM     33  C   UNL     1       5.200   3.891  13.519  0.00  0.00    +0.000 A 
BRANCH  28  35
ATOM     34  C   UNL     1       6.265   1.249  11.079  0.00  0.00    +0.000 C 
ATOM     35  O   UNL     1       5.419   2.217  11.652  0.00  0.00    +0.000 OA
ENDBRANCH  28  35
ENDBRANCH  27  32
ENDBRANCH   1  27
TORSDOF 8
ENDMDL
MODEL 3
REMARK VINA RESULT:      -8.6      0.711      1.122
REMARK  Name = 
REMARK  9 active torsions:
REMARK  status: ('A' for Active; 'I' for Inactive)
REMARK    1  A    between atoms: C_1  and  O_2
REMARK    2  A    between atoms: O_2  and  C_3
REMARK    3  A    between atoms: C_7  and  C_8
REMARK    4  A    between atoms: C_8  and  N_9
REMARK    5  A    between atoms: C_12  and  C_13
REMARK    6  A    between atoms: N_15  and  C_16
REMARK    7  A    between atoms: C_16  and  C_17
REMARK    8  A    between atoms: C_17  and  C_18
REMARK    9  A    between atoms: C_26  and  N_27
REMARK                            x       y       z     vdW  Elec       q    Type
REMARK                         _______ _______ _______ _____ _____    ______ ____
ROOT
ATOM      1  N   UNL     1       5.160   4.899  16.751  0.00  0.00    +0.000 N 
ATOM      2  C   UNL     1       5.956   5.540  17.728  0.00  0.00    +0.000 A 
ATOM      3  O   UNL     1       7.078   5.997  17.577  0.00  0.00    +0.000 OA
ATOM      4  C   UNL     1       5.227   5.625  19.026  0.00  0.00    +0.000 A 
ATOM      5  C   UNL     1       5.397   4.351  19.448  0.00  0.00    +0.000 A 
ATOM      6  C   UNL     1       4.490   3.458  18.669  0.00  0.00    +0.000 A 
ATOM      7  C   UNL     1       3.787   2.466  19.375  0.00  0.00    +0.000 A 
ATOM      8  C   UNL     1       2.606   1.962  18.857  0.00  0.00    +0.000 A 
ATOM      9  C   UNL     1       2.207   2.453  17.600  0.00  0.00    +0.000 A 
ATOM     10  C   UNL     1       2.999   3.366  16.808  0.00  0.00    +0.000 A 
ATOM     11  C   UNL     1       4.194   3.880  17.315  0.00  0.00    +0.000 A 
ENDROOT
BRANCH   4  12
ATOM     12  C   UNL     1       3.799   6.203  19.035  0.00  0.00    +0.000 C 
ATOM     13  O   UNL     1       2.926   5.717  19.751  0.00  0.00    +0.000 OA
ATOM     14  N   UNL     1       3.531   7.245  18.167  0.00  0.00    +0.000 N 
ATOM     15  H   UNL     1       4.253   7.594  17.553  0.00  0.00    +0.000 HD
BRANCH  14  16
ATOM     16  C   UNL     1       2.180   7.771  17.941  0.00  0.00    +0.000 C 
BRANCH  16  17
ATOM     17  C   UNL     1       2.159   9.298  17.772  0.00  0.00    +0.000 C 
BRANCH  17  18
ATOM     18  C   UNL     1       0.933   9.947  18.375  0.00  0.00    +0.000 A 
ATOM     19  C   UNL     1       1.019  10.731  19.534  0.00  0.00    +0.000 A 
ATOM     20  C   UNL     1      -0.135  11.273  20.106  0.00  0.00    +0.000 A 
ATOM     21  C   UNL     1      -1.380  11.043  19.523  0.00  0.00    +0.000 A 
ATOM     22  C   UNL     1      -1.473  10.286  18.357  0.00  0.00    +0.000 A 
ATOM     23  C   UNL     1      -0.323   9.744  17.785  0.00  0.00    +0.000 A 
ENDBRANCH  17  18
ENDBRANCH  16  17
ENDBRANCH  14  16
ENDBRANCH   4  12
BRANCH   7  24
ATOM     24  N   UNL     1       4.290   1.961  20.642  0.00  0.00    +0.000 N 
ATOM     25  O   UNL     1       3.590   2.174  21.643  0.00  0.00    +0.000 OA
ATOM     26  O   UNL     1       5.386   1.388  20.642  0.00  0.00    +0.000 OA
ENDBRANCH   7  24
BRANCH   1  27
ATOM     27  C   UNL     1       5.208   5.636  15.467  0.00  0.00    +0.000 C 
BRANCH  27  32
ATOM     28  C   UNL     1       5.851   3.191  12.432  0.00  0.00    +0.000 A 
ATOM     29  C   UNL     1       7.135   3.617  12.081  0.00  0.00    +0.000 A 
ATOM     30  C   UNL     1       7.734   4.670  12.766  0.00  0.00    +0.000 A 
ATOM     31  C   UNL     1       7.090   5.326  13.832  0.00  0.00    +0.000 A 
ATOM     32  C   UNL     1       5.806   4.912  14.230  0.00  0.00    +0.000 A 
ATOM     33  C   UNL     1       5.185   3.835  13.500  0.00  0.00    +0.000 A 
BRANCH  28  35
ATOM     34  C   UNL     1       6.315   1.223  11.054  0.00  0.00    +0.000 C 
ATOM     35  O   UNL     1       5.445   2.164  11.635  0.00  0.00    +0.000 OA
ENDBRANCH  28  35
ENDBRANCH  27  32
ENDBRANCH   1  27
TORSDOF 8
ENDMDL
MODEL 4
REMARK VINA RESULT:      -8.6      0.927      1.512
REMARK  Name = 
REMARK  9 active torsions:
REMARK  status: ('A' for Active; 'I' for Inactive)
REMARK    1  A    between atoms: C_1  and  O_2
REMARK    2  A    between atoms: O_2  and  C_3
REMARK    3  A    between atoms: C_7  and  C_8
REMARK    4  A    between atoms: C_8  and  N_9
REMARK    5  A    between atoms: C_12  and  C_13
REMARK    6  A    between atoms: N_15  and  C_16
REMARK    7  A    between atoms: C_16  and  C_17
REMARK    8  A    between atoms: C_17  and  C_18
REMARK    9  A    between atoms: C_26  and  N_27
REMARK                            x       y       z     vdW  Elec       q    Type
REMARK                         _______ _______ _______ _____ _____    ______ ____
ROOT
ATOM      1  N   UNL     1       5.333   5.011  16.879  0.00  0.00    +0.000 N 
ATOM      2  C   UNL     1       6.058   5.650  17.911  0.00  0.00    +0.000 A 
ATOM      3  O   UNL     1       7.175   6.136  17.832  0.00  0.00    +0.000 OA
ATOM      4  C   UNL     1       5.257   5.690  19.168  0.00  0.00    +0.000 A 
ATOM      5  C   UNL     1       5.434   4.411  19.573  0.00  0.00    +0.000 A 
ATOM      6  C   UNL     1       4.594   3.514  18.727  0.00  0.00    +0.000 A 
ATOM      7  C   UNL     1       3.878   2.491  19.373  0.00  0.00    +0.000 A 
ATOM      8  C   UNL     1       2.739   1.971  18.780  0.00  0.00    +0.000 A 
ATOM      9  C   UNL     1       2.399   2.479  17.513  0.00  0.00    +0.000 A 
ATOM     10  C   UNL     1       3.210   3.427  16.785  0.00  0.00    +0.000 A 
ATOM     11  C   UNL     1       4.362   3.958  17.368  0.00  0.00    +0.000 A 
ENDROOT
BRANCH   4  12
ATOM     12  C   UNL     1       3.816   6.234  19.110  0.00  0.00    +0.000 C 
ATOM     13  O   UNL     1       3.448   6.950  18.182  0.00  0.00    +0.000 OA
ATOM     14  N   UNL     1       2.982   5.929  20.169  0.00  0.00    +0.000 N 
ATOM     15  H   UNL     1       3.323   5.379  20.945  0.00  0.00    +0.000 HD
BRANCH  14  16
ATOM     16  C   UNL     1       1.649   6.522  20.335  0.00  0.00    +0.000 C 
BRANCH  16  17
ATOM     17  C   UNL     1       1.686   7.870  21.069  0.00  0.00    +0.000 C 
BRANCH  17  18
ATOM     18  C   UNL     1       0.937   8.965  20.343  0.00  0.00    +0.000 A 
ATOM     19  C   UNL     1      -0.079   9.695  20.975  0.00  0.00    +0.000 A 
ATOM     20  C   UNL     1      -0.797  10.663  20.268  0.00  0.00    +0.000 A 
ATOM     21  C   UNL     1      -0.503  10.913  18.929  0.00  0.00    +0.000 A 
ATOM     22  C   UNL     1       0.521  10.209  18.298  0.00  0.00    +0.000 A 
ATOM     23  C   UNL     1       1.239   9.243  19.002  0.00  0.00    +0.000 A 
ENDBRANCH  17  18
ENDBRANCH  16  17
ENDBRANCH  14  16
ENDBRANCH   4  12
BRANCH   7  24
ATOM     24  N   UNL     1       4.323   1.970  20.655  0.00  0.00    +0.000 N 
ATOM     25  O   UNL     1       3.599   2.209  21.633  0.00  0.00    +0.000 OA
ATOM     26  O   UNL     1       5.398   1.361  20.690  0.00  0.00    +0.000 OA
ENDBRANCH   7  24
BRANCH   1  27
ATOM     27  C   UNL     1       5.433   5.777  15.615  0.00  0.00    +0.000 C 
BRANCH  27  32
ATOM     28  C   UNL     1       5.427   3.469  12.409  0.00  0.00    +0.000 A 
ATOM     29  C   UNL     1       6.780   3.561  12.076  0.00  0.00    +0.000 A 
ATOM     30  C   UNL     1       7.632   4.365  12.826  0.00  0.00    +0.000 A 
ATOM     31  C   UNL     1       7.178   5.092  13.942  0.00  0.00    +0.000 A 
ATOM     32  C   UNL     1       5.827   5.009  14.324  0.00  0.00    +0.000 A 
ATOM     33  C   UNL     1       4.947   4.191  13.526  0.00  0.00    +0.000 A 
BRANCH  28  35
ATOM     34  C   UNL     1       3.635   3.026  10.803  0.00  0.00    +0.000 C 
ATOM     35  O   UNL     1       4.767   2.646  11.547  0.00  0.00    +0.000 OA
ENDBRANCH  28  35
ENDBRANCH  27  32
ENDBRANCH   1  27
TORSDOF 8
ENDMDL
MODEL 5
REMARK VINA RESULT:      -8.6      0.901      1.154
REMARK  Name = 
REMARK  9 active torsions:
REMARK  status: ('A' for Active; 'I' for Inactive)
REMARK    1  A    between atoms: C_1  and  O_2
REMARK    2  A    between atoms: O_2  and  C_3
REMARK    3  A    between atoms: C_7  and  C_8
REMARK    4  A    between atoms: C_8  and  N_9
REMARK    5  A    between atoms: C_12  and  C_13
REMARK    6  A    between atoms: N_15  and  C_16
REMARK    7  A    between atoms: C_16  and  C_17
REMARK    8  A    between atoms: C_17  and  C_18
REMARK    9  A    between atoms: C_26  and  N_27
REMARK                            x       y       z     vdW  Elec       q    Type
REMARK                         _______ _______ _______ _____ _____    ______ ____
ROOT
ATOM      1  N   UNL     1       5.187   4.904  16.698  0.00  0.00    +0.000 N 
ATOM      2  C   UNL     1       5.983   5.553  17.670  0.00  0.00    +0.000 A 
ATOM      3  O   UNL     1       7.106   6.007  17.517  0.00  0.00    +0.000 OA
ATOM      4  C   UNL     1       5.252   5.652  18.967  0.00  0.00    +0.000 A 
ATOM      5  C   UNL     1       5.419   4.381  19.401  0.00  0.00    +0.000 A 
ATOM      6  C   UNL     1       4.512   3.482  18.629  0.00  0.00    +0.000 A 
ATOM      7  C   UNL     1       3.806   2.498  19.344  0.00  0.00    +0.000 A 
ATOM      8  C   UNL     1       2.624   1.992  18.828  0.00  0.00    +0.000 A 
ATOM      9  C   UNL     1       2.229   2.471  17.566  0.00  0.00    +0.000 A 
ATOM     10  C   UNL     1       3.023   3.375  16.767  0.00  0.00    +0.000 A 
ATOM     11  C   UNL     1       4.218   3.892  17.271  0.00  0.00    +0.000 A 
ENDROOT
BRANCH   4  12
ATOM     12  C   UNL     1       3.824   6.232  18.968  0.00  0.00    +0.000 C 
ATOM     13  O   UNL     1       3.389   6.842  17.995  0.00  0.00    +0.000 OA
ATOM     14  N   UNL     1       3.084   6.087  20.126  0.00  0.00    +0.000 N 
ATOM     15  H   UNL     1       3.482   5.624  20.931  0.00  0.00    +0.000 HD
BRANCH  14  16
ATOM     16  C   UNL     1       1.785   6.739  20.333  0.00  0.00    +0.000 C 
BRANCH  16  17
ATOM     17  C   UNL     1       1.798   8.224  19.941  0.00  0.00    +0.000 C 
BRANCH  17  18
ATOM     18  C   UNL     1       0.948   9.086  20.847  0.00  0.00    +0.000 A 
ATOM     19  C   UNL     1       0.600  10.397  20.489  0.00  0.00    +0.000 A 
ATOM     20  C   UNL     1      -0.137  11.195  21.367  0.00  0.00    +0.000 A 
ATOM     21  C   UNL     1      -0.539  10.691  22.603  0.00  0.00    +0.000 A 
ATOM     22  C   UNL     1      -0.218   9.383  22.957  0.00  0.00    +0.000 A 
ATOM     23  C   UNL     1       0.517   8.584  22.083  0.00  0.00    +0.000 A 
ENDBRANCH  17  18
ENDBRANCH  16  17
ENDBRANCH  14  16
ENDBRANCH   4  12
BRANCH   7  24
ATOM     24  N   UNL     1       4.306   2.004  20.616  0.00  0.00    +0.000 N 
ATOM     25  O   UNL     1       3.616   2.247  21.617  0.00  0.00    +0.000 OA
ATOM     26  O   UNL     1       5.391   1.410  20.619  0.00  0.00    +0.000 OA
ENDBRANCH   7  24
BRANCH   1  27
ATOM     27  C   UNL     1       5.238   5.629  15.408  0.00  0.00    +0.000 C 
BRANCH  27  32
ATOM     28  C   UNL     1       5.839   3.165  12.378  0.00  0.00    +0.000 A 
ATOM     29  C   UNL     1       7.136   3.555  12.039  0.00  0.00    +0.000 A 
ATOM     30  C   UNL     1       7.758   4.592  12.728  0.00  0.00    +0.000 A 
ATOM     31  C   UNL     1       7.125   5.265  13.788  0.00  0.00    +0.000 A 
ATOM     32  C   UNL     1       5.826   4.888  14.176  0.00  0.00    +0.000 A 
ATOM     33  C   UNL     1       5.182   3.828  13.441  0.00  0.00    +0.000 A 
BRANCH  28  35
ATOM     34  C   UNL     1       6.239   1.117  11.101  0.00  0.00    +0.000 C 
ATOM     35  O   UNL     1       5.410   2.149  11.579  0.00  0.00    +0.000 OA
ENDBRANCH  28  35
ENDBRANCH  27  32
ENDBRANCH   1  27
TORSDOF 8
ENDMDL
MODEL 6
REMARK VINA RESULT:      -8.3      0.920      1.339
REMARK  Name = 
REMARK  9 active torsions:
REMARK  status: ('A' for Active; 'I' for Inactive)
REMARK    1  A    between atoms: C_1  and  O_2
REMARK    2  A    between atoms: O_2  and  C_3
REMARK    3  A    between atoms: C_7  and  C_8
REMARK    4  A    between atoms: C_8  and  N_9
REMARK    5  A    between atoms: C_12  and  C_13
REMARK    6  A    between atoms: N_15  and  C_16
REMARK    7  A    between atoms: C_16  and  C_17
REMARK    8  A    between atoms: C_17  and  C_18
REMARK    9  A    between atoms: C_26  and  N_27
REMARK                            x       y       z     vdW  Elec       q    Type
REMARK                         _______ _______ _______ _____ _____    ______ ____
ROOT
ATOM      1  N   UNL     1       5.233   5.028  16.910  0.00  0.00    +0.000 N 
ATOM      2  C   UNL     1       5.994   5.641  17.932  0.00  0.00    +0.000 A 
ATOM      3  O   UNL     1       7.125   6.092  17.836  0.00  0.00    +0.000 OA
ATOM      4  C   UNL     1       5.213   5.707  19.201  0.00  0.00    +0.000 A 
ATOM      5  C   UNL     1       5.354   4.422  19.602  0.00  0.00    +0.000 A 
ATOM      6  C   UNL     1       4.473   3.554  18.768  0.00  0.00    +0.000 A 
ATOM      7  C   UNL     1       3.734   2.553  19.424  0.00  0.00    +0.000 A 
ATOM      8  C   UNL     1       2.570   2.072  18.848  0.00  0.00    +0.000 A 
ATOM      9  C   UNL     1       2.228   2.591  17.586  0.00  0.00    +0.000 A 
ATOM     10  C   UNL     1       3.059   3.513  16.846  0.00  0.00    +0.000 A 
ATOM     11  C   UNL     1       4.237   4.006  17.412  0.00  0.00    +0.000 A 
ENDROOT
BRANCH   4  12
ATOM     12  C   UNL     1       3.790   6.297  19.164  0.00  0.00    +0.000 C 
ATOM     13  O   UNL     1       2.905   5.858  19.895  0.00  0.00    +0.000 OA
ATOM     14  N   UNL     1       3.541   7.292  18.237  0.00  0.00    +0.000 N 
ATOM     15  H   UNL     1       4.273   7.601  17.613  0.00  0.00    +0.000 HD
BRANCH  14  16
ATOM     16  C   UNL     1       2.198   7.818  17.968  0.00  0.00    +0.000 C 
BRANCH  16  17
ATOM     17  C   UNL     1       2.123   9.347  18.093  0.00  0.00    +0.000 C 
BRANCH  17  18
ATOM     18  C   UNL     1       0.721   9.857  18.344  0.00  0.00    +0.000 A 
ATOM     19  C   UNL     1      -0.349   9.481  17.520  0.00  0.00    +0.000 A 
ATOM     20  C   UNL     1      -1.624  10.008  17.736  0.00  0.00    +0.000 A 
ATOM     21  C   UNL     1      -1.843  10.908  18.778  0.00  0.00    +0.000 A 
ATOM     22  C   UNL     1      -0.791  11.269  19.617  0.00  0.00    +0.000 A 
ATOM     23  C   UNL     1       0.483  10.743  19.403  0.00  0.00    +0.000 A 
ENDBRANCH  17  18
ENDBRANCH  16  17
ENDBRANCH  14  16
ENDBRANCH   4  12
BRANCH   7  24
ATOM     24  N   UNL     1       4.180   2.018  20.699  0.00  0.00    +0.000 N 
ATOM     25  O   UNL     1       3.437   2.209  21.673  0.00  0.00    +0.000 OA
ATOM     26  O   UNL     1       5.275   1.444  20.734  0.00  0.00    +0.000 OA
ENDBRANCH   7  24
BRANCH   1  27
ATOM     27  C   UNL     1       5.340   5.791  15.645  0.00  0.00    +0.000 C 
BRANCH  27  32
ATOM     28  C   UNL     1       5.526   3.480  12.446  0.00  0.00    +0.000 A 
ATOM     29  C   UNL     1       6.887   3.614  12.164  0.00  0.00    +0.000 A 
ATOM     30  C   UNL     1       7.685   4.445  12.943  0.00  0.00    +0.000 A 
ATOM     31  C   UNL     1       7.167   5.158  14.039  0.00  0.00    +0.000 A 
ATOM     32  C   UNL     1       5.805   5.034  14.372  0.00  0.00    +0.000 A 
ATOM     33  C   UNL     1       4.982   4.187  13.544  0.00  0.00    +0.000 A 
BRANCH  28  35
ATOM     34  C   UNL     1       3.707   2.908  10.912  0.00  0.00    +0.000 C 
ATOM     35  O   UNL     1       4.925   2.635  11.562  0.00  0.00    +0.000 OA
ENDBRANCH  28  35
ENDBRANCH  27  32
ENDBRANCH   1  27
TORSDOF 8
ENDMDL
MODEL 7
REMARK VINA RESULT:      -8.0      0.738      1.179
REMARK  Name = 
REMARK  9 active torsions:
REMARK  status: ('A' for Active; 'I' for Inactive)
REMARK    1  A    between atoms: C_1  and  O_2
REMARK    2  A    between atoms: O_2  and  C_3
REMARK    3  A    between atoms: C_7  and  C_8
REMARK    4  A    between atoms: C_8  and  N_9
REMARK    5  A    between atoms: C_12  and  C_13
REMARK    6  A    between atoms: N_15  and  C_16
REMARK    7  A    between atoms: C_16  and  C_17
REMARK    8  A    between atoms: C_17  and  C_18
REMARK    9  A    between atoms: C_26  and  N_27
REMARK                            x       y       z     vdW  Elec       q    Type
REMARK                         _______ _______ _______ _____ _____    ______ ____
ROOT
ATOM      1  N   UNL     1       5.169   4.940  16.724  0.00  0.00    +0.000 N 
ATOM      2  C   UNL     1       5.974   5.579  17.695  0.00  0.00    +0.000 A 
ATOM      3  O   UNL     1       7.101   6.023  17.539  0.00  0.00    +0.000 OA
ATOM      4  C   UNL     1       5.250   5.680  18.994  0.00  0.00    +0.000 A 
ATOM      5  C   UNL     1       5.406   4.406  19.424  0.00  0.00    +0.000 A 
ATOM      6  C   UNL     1       4.489   3.518  18.651  0.00  0.00    +0.000 A 
ATOM      7  C   UNL     1       3.776   2.537  19.365  0.00  0.00    +0.000 A 
ATOM      8  C   UNL     1       2.589   2.043  18.853  0.00  0.00    +0.000 A 
ATOM      9  C   UNL     1       2.193   2.530  17.594  0.00  0.00    +0.000 A 
ATOM     10  C   UNL     1       2.993   3.430  16.795  0.00  0.00    +0.000 A 
ATOM     11  C   UNL     1       4.194   3.935  17.296  0.00  0.00    +0.000 A 
ENDROOT
BRANCH   4  12
ATOM     12  C   UNL     1       3.827   6.272  19.003  0.00  0.00    +0.000 C 
ATOM     13  O   UNL     1       2.931   5.754  19.665  0.00  0.00    +0.000 OA
ATOM     14  N   UNL     1       3.593   7.368  18.195  0.00  0.00    +0.000 N 
ATOM     15  H   UNL     1       4.334   7.746  17.622  0.00  0.00    +0.000 HD
BRANCH  14  16
ATOM     16  C   UNL     1       2.254   7.924  17.967  0.00  0.00    +0.000 C 
BRANCH  16  17
ATOM     17  C   UNL     1       1.623   8.496  19.246  0.00  0.00    +0.000 C 
BRANCH  17  18
ATOM     18  C   UNL     1       1.011   9.864  19.048  0.00  0.00    +0.000 A 
ATOM     19  C   UNL     1      -0.364  10.080  19.218  0.00  0.00    +0.000 A 
ATOM     20  C   UNL     1      -0.916  11.340  18.974  0.00  0.00    +0.000 A 
ATOM     21  C   UNL     1      -0.101  12.394  18.566  0.00  0.00    +0.000 A 
ATOM     22  C   UNL     1       1.270  12.196  18.417  0.00  0.00    +0.000 A 
ATOM     23  C   UNL     1       1.823  10.940  18.660  0.00  0.00    +0.000 A 
ENDBRANCH  17  18
ENDBRANCH  16  17
ENDBRANCH  14  16
ENDBRANCH   4  12
BRANCH   7  24
ATOM     24  N   UNL     1       4.277   2.035  20.634  0.00  0.00    +0.000 N 
ATOM     25  O   UNL     1       5.360   1.432  20.604  0.00  0.00    +0.000 OA
ATOM     26  O   UNL     1       3.583   2.211  21.641  0.00  0.00    +0.000 OA
ENDBRANCH   7  24
BRANCH   1  27
ATOM     27  C   UNL     1       5.223   5.669  15.435  0.00  0.00    +0.000 C 
BRANCH  27  32
ATOM     28  C   UNL     1       5.822   3.226  12.390  0.00  0.00    +0.000 A 
ATOM     29  C   UNL     1       7.127   3.604  12.065  0.00  0.00    +0.000 A 
ATOM     30  C   UNL     1       7.754   4.627  12.768  0.00  0.00    +0.000 A 
ATOM     31  C   UNL     1       7.119   5.298  13.829  0.00  0.00    +0.000 A 
ATOM     32  C   UNL     1       5.813   4.932  14.202  0.00  0.00    +0.000 A 
ATOM     33  C   UNL     1       5.163   3.886  13.452  0.00  0.00    +0.000 A 
BRANCH  28  35
ATOM     34  C   UNL     1       6.198   1.159  11.136  0.00  0.00    +0.000 C 
ATOM     35  O   UNL     1       5.389   2.222  11.577  0.00  0.00    +0.000 OA
ENDBRANCH  28  35
ENDBRANCH  27  32
ENDBRANCH   1  27
TORSDOF 8
ENDMDL
MODEL 8
REMARK VINA RESULT:      -7.6      3.101      4.788
REMARK  Name = 
REMARK  9 active torsions:
REMARK  status: ('A' for Active; 'I' for Inactive)
REMARK    1  A    between atoms: C_1  and  O_2
REMARK    2  A    between atoms: O_2  and  C_3
REMARK    3  A    between atoms: C_7  and  C_8
REMARK    4  A    between atoms: C_8  and  N_9
REMARK    5  A    between atoms: C_12  and  C_13
REMARK    6  A    between atoms: N_15  and  C_16
REMARK    7  A    between atoms: C_16  and  C_17
REMARK    8  A    between atoms: C_17  and  C_18
REMARK    9  A    between atoms: C_26  and  N_27
REMARK                            x       y       z     vdW  Elec       q    Type
REMARK                         _______ _______ _______ _____ _____    ______ ____
ROOT
ATOM      1  N   UNL     1       5.172   5.150  16.091  0.00  0.00    +0.000 N 
ATOM      2  C   UNL     1       5.583   3.917  16.649  0.00  0.00    +0.000 A 
ATOM      3  O   UNL     1       5.895   2.904  16.042  0.00  0.00    +0.000 OA
ATOM      4  C   UNL     1       5.620   3.999  18.137  0.00  0.00    +0.000 A 
ATOM      5  C   UNL     1       4.294   3.890  18.388  0.00  0.00    +0.000 A 
ATOM      6  C   UNL     1       3.629   5.182  18.046  0.00  0.00    +0.000 A 
ATOM      7  C   UNL     1       2.669   5.679  18.945  0.00  0.00    +0.000 A 
ATOM      8  C   UNL     1       2.395   7.036  18.974  0.00  0.00    +0.000 A 
ATOM      9  C   UNL     1       3.075   7.838  18.040  0.00  0.00    +0.000 A 
ATOM     10  C   UNL     1       3.954   7.312  17.021  0.00  0.00    +0.000 A 
ATOM     11  C   UNL     1       4.239   5.946  16.977  0.00  0.00    +0.000 A 
ENDROOT
BRANCH   4  12
ATOM     12  C   UNL     1       6.383   5.166  18.794  0.00  0.00    +0.000 C 
ATOM     13  O   UNL     1       6.044   5.605  19.890  0.00  0.00    +0.000 OA
ATOM     14  N   UNL     1       7.421   5.728  18.075  0.00  0.00    +0.000 N 
ATOM     15  H   UNL     1       7.649   5.380  17.154  0.00  0.00    +0.000 HD
BRANCH  14  16
ATOM     16  C   UNL     1       8.116   6.950  18.495  0.00  0.00    +0.000 C 
BRANCH  16  17
ATOM     17  C   UNL     1       7.754   8.166  17.629  0.00  0.00    +0.000 C 
BRANCH  17  18
ATOM     18  C   UNL     1       8.350   9.459  18.139  0.00  0.00    +0.000 A 
ATOM     19  C   UNL     1       8.202  10.659  17.429  0.00  0.00    +0.000 A 
ATOM     20  C   UNL     1       8.810  11.830  17.889  0.00  0.00    +0.000 A 
ATOM     21  C   UNL     1       9.562  11.814  19.061  0.00  0.00    +0.000 A 
ATOM     22  C   UNL     1       9.696  10.632  19.787  0.00  0.00    +0.000 A 
ATOM     23  C   UNL     1       9.090   9.462  19.330  0.00  0.00    +0.000 A 
ENDBRANCH  17  18
ENDBRANCH  16  17
ENDBRANCH  14  16
ENDBRANCH   4  12
BRANCH   7  24
ATOM     24  N   UNL     1       1.959   4.782  19.842  0.00  0.00    +0.000 N 
ATOM     25  O   UNL     1       2.287   4.817  21.037  0.00  0.00    +0.000 OA
ATOM     26  O   UNL     1       1.109   4.029  19.353  0.00  0.00    +0.000 OA
ENDBRANCH   7  24
BRANCH   1  27
ATOM     27  C   UNL     1       6.037   5.523  14.948  0.00  0.00    +0.000 C 
BRANCH  27  32
ATOM     28  C   UNL     1       4.784   3.359  11.890  0.00  0.00    +0.000 A 
ATOM     29  C   UNL     1       6.024   2.965  11.383  0.00  0.00    +0.000 A 
ATOM     30  C   UNL     1       7.198   3.418  11.977  0.00  0.00    +0.000 A 
ATOM     31  C   UNL     1       7.184   4.261  13.103  0.00  0.00    +0.000 A 
ATOM     32  C   UNL     1       5.956   4.662  13.658  0.00  0.00    +0.000 A 
ATOM     33  C   UNL     1       4.745   4.206  13.022  0.00  0.00    +0.000 A 
BRANCH  28  35
ATOM     34  C   UNL     1       3.144   3.465  10.077  0.00  0.00    +0.000 C 
ATOM     35  O   UNL     1       3.767   2.820  11.162  0.00  0.00    +0.000 OA
ENDBRANCH  28  35
ENDBRANCH  27  32
ENDBRANCH   1  27
TORSDOF 8
ENDMDL
MODEL 9
REMARK VINA RESULT:      -7.5      0.597      1.165
REMARK  Name = 
REMARK  9 active torsions:
REMARK  status: ('A' for Active; 'I' for Inactive)
REMARK    1  A    between atoms: C_1  and  O_2
REMARK    2  A    between atoms: O_2  and  C_3
REMARK    3  A    between atoms: C_7  and  C_8
REMARK    4  A    between atoms: C_8  and  N_9
REMARK    5  A    between atoms: C_12  and  C_13
REMARK    6  A    between atoms: N_15  and  C_16
REMARK    7  A    between atoms: C_16  and  C_17
REMARK    8  A    between atoms: C_17  and  C_18
REMARK    9  A    between atoms: C_26  and  N_27
REMARK                            x       y       z     vdW  Elec       q    Type
REMARK                         _______ _______ _______ _____ _____    ______ ____
ROOT
ATOM      1  N   UNL     1       5.201   4.710  16.477  0.00  0.00    +0.000 N 
ATOM      2  C   UNL     1       6.225   5.180  17.331  0.00  0.00    +0.000 A 
ATOM      3  O   UNL     1       7.385   5.412  17.028  0.00  0.00    +0.000 OA
ATOM      4  C   UNL     1       5.701   5.397  18.710  0.00  0.00    +0.000 A 
ATOM      5  C   UNL     1       5.675   4.112  19.132  0.00  0.00    +0.000 A 
ATOM      6  C   UNL     1       4.520   3.415  18.493  0.00  0.00    +0.000 A 
ATOM      7  C   UNL     1       3.737   2.574  19.303  0.00  0.00    +0.000 A 
ATOM      8  C   UNL     1       2.424   2.311  18.951  0.00  0.00    +0.000 A 
ATOM      9  C   UNL     1       1.968   2.876  17.746  0.00  0.00    +0.000 A 
ATOM     10  C   UNL     1       2.811   3.623  16.841  0.00  0.00    +0.000 A 
ATOM     11  C   UNL     1       4.138   3.894  17.180  0.00  0.00    +0.000 A 
ENDROOT
BRANCH   4  12
ATOM     12  C   UNL     1       4.423   6.240  18.891  0.00  0.00    +0.000 C 
ATOM     13  O   UNL     1       3.634   6.004  19.803  0.00  0.00    +0.000 OA
ATOM     14  N   UNL     1       4.178   7.227  17.954  0.00  0.00    +0.000 N 
ATOM     15  H   UNL     1       4.817   7.368  17.185  0.00  0.00    +0.000 HD
BRANCH  14  16
ATOM     16  C   UNL     1       2.921   7.982  17.897  0.00  0.00    +0.000 C 
BRANCH  16  17
ATOM     17  C   UNL     1       1.873   7.467  18.895  0.00  0.00    +0.000 C 
BRANCH  17  18
ATOM     18  C   UNL     1       1.357   8.541  19.825  0.00  0.00    +0.000 A 
ATOM     19  C   UNL     1       1.224   8.311  21.202  0.00  0.00    +0.000 A 
ATOM     20  C   UNL     1       0.692   9.298  22.034  0.00  0.00    +0.000 A 
ATOM     21  C   UNL     1       0.295  10.523  21.502  0.00  0.00    +0.000 A 
ATOM     22  C   UNL     1       0.445  10.771  20.139  0.00  0.00    +0.000 A 
ATOM     23  C   UNL     1       0.977   9.787  19.307  0.00  0.00    +0.000 A 
ENDBRANCH  17  18
ENDBRANCH  16  17
ENDBRANCH  14  16
ENDBRANCH   4  12
BRANCH   7  24
ATOM     24  N   UNL     1       4.293   1.975  20.505  0.00  0.00    +0.000 N 
ATOM     25  O   UNL     1       3.708   2.218  21.570  0.00  0.00    +0.000 OA
ATOM     26  O   UNL     1       5.321   1.296  20.390  0.00  0.00    +0.000 OA
ENDBRANCH   7  24
BRANCH   1  27
ATOM     27  C   UNL     1       5.223   5.431  15.183  0.00  0.00    +0.000 C 
BRANCH  27  32
ATOM     28  C   UNL     1       5.821   2.950  12.168  0.00  0.00    +0.000 A 
ATOM     29  C   UNL     1       7.097   3.374  11.790  0.00  0.00    +0.000 A 
ATOM     30  C   UNL     1       7.705   4.437  12.451  0.00  0.00    +0.000 A 
ATOM     31  C   UNL     1       7.078   5.104  13.519  0.00  0.00    +0.000 A 
ATOM     32  C   UNL     1       5.802   4.693  13.945  0.00  0.00    +0.000 A 
ATOM     33  C   UNL     1       5.171   3.605  13.239  0.00  0.00    +0.000 A 
BRANCH  28  35
ATOM     34  C   UNL     1       6.192   0.787  11.086  0.00  0.00    +0.000 C 
ATOM     35  O   UNL     1       5.404   1.911  11.391  0.00  0.00    +0.000 OA
ENDBRANCH  28  35
ENDBRANCH  27  32
ENDBRANCH   1  27
TORSDOF 8
ENDMDL
