MODEL 1
REMARK VINA RESULT:      -7.7      0.000      0.000
REMARK  Name = 
REMARK  6 active torsions:
REMARK  status: ('A' for Active; 'I' for Inactive)
REMARK    1  A    between atoms: C_1  and  C_2
REMARK    2  A    between atoms: C_5  and  C_6
REMARK    3  A    between atoms: C_6  and  N_7
REMARK    4  A    between atoms: C_8  and  C_10
REMARK    5  A    between atoms: C_12  and  C_13
REMARK    6  A    between atoms: C_12  and  C_14
REMARK                            x       y       z     vdW  Elec       q    Type
REMARK                         _______ _______ _______ _____ _____    ______ ____
ROOT
ATOM      1  N   UNL     1       4.096   5.641  19.230  0.00  0.00    +0.000 N 
ATOM      2  C   UNL     1       4.815   6.224  18.205  0.00  0.00    +0.000 C 
ATOM      3  O   UNL     1       4.314   6.824  17.265  0.00  0.00    +0.000 OA
ATOM      4  H   UNL     1       4.612   5.082  19.895  0.00  0.00    +0.000 HD
ENDROOT
BRANCH   1   5
ATOM      5  C   UNL     1       2.618   5.587  19.340  0.00  0.00    +0.000 C 
ATOM      6  C   UNL     1       2.011   5.227  17.955  0.00  0.00    +0.000 C 
ATOM      7  C   UNL     1       2.178   3.760  17.591  0.00  0.00    +0.000 C 
ATOM      8  O   UNL     1       1.674   2.914  18.618  0.00  0.00    +0.000 OA
ATOM      9  C   UNL     1       2.334   3.112  19.863  0.00  0.00    +0.000 C 
ATOM     10  C   UNL     1       2.138   4.534  20.364  0.00  0.00    +0.000 C 
BRANCH   5  15
ATOM     11  C   UNL     1       0.952  10.295  19.183  0.00  0.00    +0.000 C 
ATOM     12  C   UNL     1       1.369   8.994  19.750  0.00  0.00    +0.000 A 
ATOM     13  C   UNL     1       1.296   8.558  21.049  0.00  0.00    +0.000 A 
ATOM     14  N   UNL     1       1.779   7.285  21.033  0.00  0.00    +0.000 N 
ATOM     15  C   UNL     1       2.121   6.970  19.740  0.00  0.00    +0.000 A 
ATOM     16  N   UNL     1       1.901   8.009  18.948  0.00  0.00    +0.000 NA
ATOM     17  H   UNL     1       1.905   6.664  21.828  0.00  0.00    +0.000 HD
ENDBRANCH   5  15
ENDBRANCH   1   5
BRANCH   2  18
ATOM     18  C   UNL     1       6.288   6.055  18.342  0.00  0.00    +0.000 C 
ATOM     19  C   UNL     1       7.258   6.774  17.451  0.00  0.00    +0.000 C 
ATOM     20  C   UNL     1       7.170   5.250  17.388  0.00  0.00    +0.000 C 
ATOM     21  C   UNL     1       8.242   4.431  18.080  0.00  0.00    +0.000 C 
BRANCH  20  22
ATOM     22  C   UNL     1       6.751   4.720  16.012  0.00  0.00    +0.000 A 
ATOM     23  C   UNL     1       7.438   5.143  14.853  0.00  0.00    +0.000 A 
ATOM     24  C   UNL     1       7.030   4.771  13.568  0.00  0.00    +0.000 A 
ATOM     25  C   UNL     1       5.925   3.945  13.408  0.00  0.00    +0.000 A 
ATOM     26  C   UNL     1       5.266   3.457  14.533  0.00  0.00    +0.000 A 
ATOM     27  C   UNL     1       5.687   3.828  15.818  0.00  0.00    +0.000 A 
ENDBRANCH  20  22
ENDBRANCH   2  18
TORSDOF 4
ENDMDL
MODEL 2
REMARK VINA RESULT:      -7.7      2.309      6.954
REMARK  Name = 
REMARK  6 active torsions:
REMARK  status: ('A' for Active; 'I' for Inactive)
REMARK    1  A    between atoms: C_1  and  C_2
REMARK    2  A    between atoms: C_5  and  C_6
REMARK    3  A    between atoms: C_6  and  N_7
REMARK    4  A    between atoms: C_8  and  C_10
REMARK    5  A    between atoms: C_12  and  C_13
REMARK    6  A    between atoms: C_12  and  C_14
REMARK                            x       y       z     vdW  Elec       q    Type
REMARK                         _______ _______ _______ _____ _____    ______ ____
ROOT
ATOM      1  N   UNL     1       5.073   4.434  16.853  0.00  0.00    +0.000 N 
ATOM      2  C   UNL     1       4.865   3.854  18.090  0.00  0.00    +0.000 C 
ATOM      3  O   UNL     1       5.702   3.811  18.981  0.00  0.00    +0.000 OA
ATOM      4  H   UNL     1       4.345   4.317  16.162  0.00  0.00    +0.000 HD
ENDROOT
BRANCH   1   5
ATOM      5  C   UNL     1       6.338   5.040  16.374  0.00  0.00    +0.000 C 
ATOM      6  C   UNL     1       6.221   6.589  16.425  0.00  0.00    +0.000 C 
ATOM      7  C   UNL     1       6.323   7.150  17.835  0.00  0.00    +0.000 C 
ATOM      8  O   UNL     1       7.501   6.694  18.487  0.00  0.00    +0.000 OA
ATOM      9  C   UNL     1       7.551   5.276  18.599  0.00  0.00    +0.000 C 
ATOM     10  C   UNL     1       7.556   4.621  17.227  0.00  0.00    +0.000 C 
BRANCH   5  15
ATOM     11  C   UNL     1       5.777   2.907  11.890  0.00  0.00    +0.000 C 
ATOM     12  C   UNL     1       6.351   3.760  12.954  0.00  0.00    +0.000 A 
ATOM     13  C   UNL     1       7.367   4.678  12.866  0.00  0.00    +0.000 A 
ATOM     14  N   UNL     1       7.487   5.208  14.114  0.00  0.00    +0.000 N 
ATOM     15  C   UNL     1       6.546   4.620  14.924  0.00  0.00    +0.000 A 
ATOM     16  N   UNL     1       5.860   3.717  14.239  0.00  0.00    +0.000 NA
ATOM     17  H   UNL     1       8.165   5.897  14.428  0.00  0.00    +0.000 HD
ENDBRANCH   5  15
ENDBRANCH   1   5
BRANCH   2  18
ATOM     18  C   UNL     1       3.506   3.270  18.252  0.00  0.00    +0.000 C 
ATOM     19  C   UNL     1       2.358   3.668  17.371  0.00  0.00    +0.000 C 
ATOM     20  C   UNL     1       2.308   3.998  18.862  0.00  0.00    +0.000 C 
ATOM     21  C   UNL     1       1.456   3.133  19.770  0.00  0.00    +0.000 C 
BRANCH  20  22
ATOM     22  C   UNL     1       2.224   5.501  19.151  0.00  0.00    +0.000 A 
ATOM     23  C   UNL     1       1.848   5.955  20.434  0.00  0.00    +0.000 A 
ATOM     24  C   UNL     1       1.657   7.311  20.718  0.00  0.00    +0.000 A 
ATOM     25  C   UNL     1       1.856   8.259  19.723  0.00  0.00    +0.000 A 
ATOM     26  C   UNL     1       2.292   7.850  18.466  0.00  0.00    +0.000 A 
ATOM     27  C   UNL     1       2.490   6.488  18.192  0.00  0.00    +0.000 A 
ENDBRANCH  20  22
ENDBRANCH   2  18
TORSDOF 4
ENDMDL
MODEL 3
REMARK VINA RESULT:      -7.6      0.359      1.337
REMARK  Name = 
REMARK  6 active torsions:
REMARK  status: ('A' for Active; 'I' for Inactive)
REMARK    1  A    between atoms: C_1  and  C_2
REMARK    2  A    between atoms: C_5  and  C_6
REMARK    3  A    between atoms: C_6  and  N_7
REMARK    4  A    between atoms: C_8  and  C_10
REMARK    5  A    between atoms: C_12  and  C_13
REMARK    6  A    between atoms: C_12  and  C_14
REMARK                            x       y       z     vdW  Elec       q    Type
REMARK                         _______ _______ _______ _____ _____    ______ ____
ROOT
ATOM      1  N   UNL     1       4.069   5.506  19.226  0.00  0.00    +0.000 N 
ATOM      2  C   UNL     1       4.797   6.169  18.256  0.00  0.00    +0.000 C 
ATOM      3  O   UNL     1       4.302   6.833  17.356  0.00  0.00    +0.000 OA
ATOM      4  H   UNL     1       4.582   4.905  19.855  0.00  0.00    +0.000 HD
ENDROOT
BRANCH   1   5
ATOM      5  C   UNL     1       2.591   5.433  19.311  0.00  0.00    +0.000 C 
ATOM      6  C   UNL     1       2.016   4.997  17.935  0.00  0.00    +0.000 C 
ATOM      7  C   UNL     1       2.213   3.517  17.646  0.00  0.00    +0.000 C 
ATOM      8  O   UNL     1       1.703   2.713  18.703  0.00  0.00    +0.000 OA
ATOM      9  C   UNL     1       2.337   2.982  19.949  0.00  0.00    +0.000 C 
ATOM     10  C   UNL     1       2.109   4.423  20.377  0.00  0.00    +0.000 C 
BRANCH   5  15
ATOM     11  C   UNL     1       0.895   9.453  21.747  0.00  0.00    +0.000 C 
ATOM     12  C   UNL     1       1.356   8.610  20.621  0.00  0.00    +0.000 A 
ATOM     13  C   UNL     1       1.589   8.968  19.318  0.00  0.00    +0.000 A 
ATOM     14  N   UNL     1       2.028   7.834  18.703  0.00  0.00    +0.000 N 
ATOM     15  C   UNL     1       2.064   6.825  19.635  0.00  0.00    +0.000 A 
ATOM     16  N   UNL     1       1.635   7.274  20.805  0.00  0.00    +0.000 NA
ATOM     17  H   UNL     1       2.263   7.718  17.721  0.00  0.00    +0.000 HD
ENDBRANCH   5  15
ENDBRANCH   1   5
BRANCH   2  18
ATOM     18  C   UNL     1       6.269   6.003  18.400  0.00  0.00    +0.000 C 
ATOM     19  C   UNL     1       7.244   6.793  17.577  0.00  0.00    +0.000 C 
ATOM     20  C   UNL     1       7.170   5.276  17.402  0.00  0.00    +0.000 C 
ATOM     21  C   UNL     1       8.240   4.417  18.046  0.00  0.00    +0.000 C 
BRANCH  20  22
ATOM     22  C   UNL     1       6.773   4.846  15.985  0.00  0.00    +0.000 A 
ATOM     23  C   UNL     1       5.700   3.949  15.793  0.00  0.00    +0.000 A 
ATOM     24  C   UNL     1       5.366   3.446  14.532  0.00  0.00    +0.000 A 
ATOM     25  C   UNL     1       6.092   3.844  13.416  0.00  0.00    +0.000 A 
ATOM     26  C   UNL     1       7.113   4.779  13.562  0.00  0.00    +0.000 A 
ATOM     27  C   UNL     1       7.435   5.285  14.830  0.00  0.00    +0.000 A 
ENDBRANCH  20  22
ENDBRANCH   2  18
TORSDOF 4
ENDMDL
MODEL 4
REMARK VINA RESULT:      -7.5      2.424      7.120
REMARK  Name = 
REMARK  6 active torsions:
REMARK  status: ('A' for Active; 'I' for Inactive)
REMARK    1  A    between atoms: C_1  and  C_2
REMARK    2  A    between atoms: C_5  and  C_6
REMARK    3  A    between atoms: C_6  and  N_7
REMARK    4  A    between atoms: C_8  and  C_10
REMARK    5  A    between atoms: C_12  and  C_13
REMARK    6  A    between atoms: C_12  and  C_14
REMARK                            x       y       z     vdW  Elec       q    Type
REMARK                         _______ _______ _______ _____ _____    ______ ____
ROOT
ATOM      1  N   UNL     1       2.364   6.650  18.104  0.00  0.00    +0.000 N 
ATOM      2  C   UNL     1       2.136   7.801  18.833  0.00  0.00    +0.000 C 
ATOM      3  O   UNL     1       2.511   7.974  19.985  0.00  0.00    +0.000 OA
ATOM      4  H   UNL     1       1.917   6.582  17.201  0.00  0.00    +0.000 HD
ENDROOT
BRANCH   1   5
ATOM      5  C   UNL     1       3.035   5.423  18.595  0.00  0.00    +0.000 C 
ATOM      6  C   UNL     1       2.670   5.197  20.088  0.00  0.00    +0.000 C 
ATOM      7  C   UNL     1       1.256   4.672  20.286  0.00  0.00    +0.000 C 
ATOM      8  O   UNL     1       1.029   3.502  19.509  0.00  0.00    +0.000 OA
ATOM      9  C   UNL     1       1.199   3.729  18.115  0.00  0.00    +0.000 C 
ATOM     10  C   UNL     1       2.621   4.163  17.802  0.00  0.00    +0.000 C 
BRANCH   5  15
ATOM     11  C   UNL     1       7.539   7.225  17.394  0.00  0.00    +0.000 C 
ATOM     12  C   UNL     1       6.518   6.374  18.045  0.00  0.00    +0.000 A 
ATOM     13  C   UNL     1       6.685   5.425  19.022  0.00  0.00    +0.000 A 
ATOM     14  N   UNL     1       5.434   4.959  19.292  0.00  0.00    +0.000 N 
ATOM     15  C   UNL     1       4.541   5.632  18.494  0.00  0.00    +0.000 A 
ATOM     16  N   UNL     1       5.187   6.482  17.709  0.00  0.00    +0.000 NA
ATOM     17  H   UNL     1       5.180   4.220  19.943  0.00  0.00    +0.000 HD
ENDBRANCH   5  15
ENDBRANCH   1   5
BRANCH   2  18
ATOM     18  C   UNL     1       1.377   8.839  18.084  0.00  0.00    +0.000 C 
ATOM     19  C   UNL     1       1.618  10.306  18.289  0.00  0.00    +0.000 C 
ATOM     20  C   UNL     1       0.266   9.707  18.674  0.00  0.00    +0.000 C 
ATOM     21  C   UNL     1      -0.913   9.919  17.745  0.00  0.00    +0.000 C 
BRANCH  20  22
ATOM     22  C   UNL     1      -0.062   9.853  20.165  0.00  0.00    +0.000 A 
ATOM     23  C   UNL     1      -0.101  11.133  20.758  0.00  0.00    +0.000 A 
ATOM     24  C   UNL     1      -0.292  11.312  22.132  0.00  0.00    +0.000 A 
ATOM     25  C   UNL     1      -0.470  10.206  22.953  0.00  0.00    +0.000 A 
ATOM     26  C   UNL     1      -0.504   8.934  22.389  0.00  0.00    +0.000 A 
ATOM     27  C   UNL     1      -0.320   8.764  21.009  0.00  0.00    +0.000 A 
ENDBRANCH  20  22
ENDBRANCH   2  18
TORSDOF 4
ENDMDL
MODEL 5
REMARK VINA RESULT:      -7.4      1.941      7.032
REMARK  Name = 
REMARK  6 active torsions:
REMARK  status: ('A' for Active; 'I' for Inactive)
REMARK    1  A    between atoms: C_1  and  C_2
REMARK    2  A    between atoms: C_5  and  C_6
REMARK    3  A    between atoms: C_6  and  N_7
REMARK    4  A    between atoms: C_8  and  C_10
REMARK    5  A    between atoms: C_12  and  C_13
REMARK    6  A    between atoms: C_12  and  C_14
REMARK                            x       y       z     vdW  Elec       q    Type
REMARK                         _______ _______ _______ _____ _____    ______ ____
ROOT
ATOM      1  N   UNL     1       2.277   6.101  18.126  0.00  0.00    +0.000 N 
ATOM      2  C   UNL     1       2.342   7.356  18.702  0.00  0.00    +0.000 C 
ATOM      3  O   UNL     1       2.929   7.606  19.746  0.00  0.00    +0.000 OA
ATOM      4  H   UNL     1       1.676   5.996  17.321  0.00  0.00    +0.000 HD
ENDROOT
BRANCH   1   5
ATOM      5  C   UNL     1       2.840   4.851  18.689  0.00  0.00    +0.000 C 
ATOM      6  C   UNL     1       2.523   4.780  20.209  0.00  0.00    +0.000 C 
ATOM      7  C   UNL     1       1.074   4.424  20.502  0.00  0.00    +0.000 C 
ATOM      8  O   UNL     1       0.692   3.229  19.832  0.00  0.00    +0.000 OA
ATOM      9  C   UNL     1       0.819   3.330  18.418  0.00  0.00    +0.000 C 
ATOM     10  C   UNL     1       2.262   3.586  18.017  0.00  0.00    +0.000 C 
BRANCH   5  15
ATOM     11  C   UNL     1       7.433   4.590  16.736  0.00  0.00    +0.000 C 
ATOM     12  C   UNL     1       6.364   4.830  17.732  0.00  0.00    +0.000 A 
ATOM     13  C   UNL     1       6.465   5.375  18.986  0.00  0.00    +0.000 A 
ATOM     14  N   UNL     1       5.193   5.402  19.473  0.00  0.00    +0.000 N 
ATOM     15  C   UNL     1       4.353   4.891  18.514  0.00  0.00    +0.000 A 
ATOM     16  N   UNL     1       5.053   4.514  17.454  0.00  0.00    +0.000 NA
ATOM     17  H   UNL     1       4.893   5.711  20.394  0.00  0.00    +0.000 HD
ENDBRANCH   5  15
ENDBRANCH   1   5
BRANCH   2  18
ATOM     18  C   UNL     1       1.622   8.403  17.929  0.00  0.00    +0.000 C 
ATOM     19  C   UNL     1       1.983   9.857  18.028  0.00  0.00    +0.000 C 
ATOM     20  C   UNL     1       0.613   9.389  18.519  0.00  0.00    +0.000 C 
ATOM     21  C   UNL     1      -0.597   9.636  17.640  0.00  0.00    +0.000 C 
BRANCH  20  22
ATOM     22  C   UNL     1       0.381   9.647  20.012  0.00  0.00    +0.000 A 
ATOM     23  C   UNL     1      -0.080   8.606  20.846  0.00  0.00    +0.000 A 
ATOM     24  C   UNL     1      -0.406   8.816  22.190  0.00  0.00    +0.000 A 
ATOM     25  C   UNL     1      -0.261  10.081  22.744  0.00  0.00    +0.000 A 
ATOM     26  C   UNL     1       0.255  11.114  21.967  0.00  0.00    +0.000 A 
ATOM     27  C   UNL     1       0.587  10.892  20.622  0.00  0.00    +0.000 A 
ENDBRANCH  20  22
ENDBRANCH   2  18
TORSDOF 4
ENDMDL
MODEL 6
REMARK VINA RESULT:      -7.4      2.689      7.041
REMARK  Name = 
REMARK  6 active torsions:
REMARK  status: ('A' for Active; 'I' for Inactive)
REMARK    1  A    between atoms: C_1  and  C_2
REMARK    2  A    between atoms: C_5  and  C_6
REMARK    3  A    between atoms: C_6  and  N_7
REMARK    4  A    between atoms: C_8  and  C_10
REMARK    5  A    between atoms: C_12  and  C_13
REMARK    6  A    between atoms: C_12  and  C_14
REMARK                            x       y       z     vdW  Elec       q    Type
REMARK                         _______ _______ _______ _____ _____    ______ ____
ROOT
ATOM      1  N   UNL     1       5.585   3.696  16.533  0.00  0.00    +0.000 N 
ATOM      2  C   UNL     1       4.296   3.320  16.859  0.00  0.00    +0.000 C 
ATOM      3  O   UNL     1       3.291   3.765  16.321  0.00  0.00    +0.000 OA
ATOM      4  H   UNL     1       6.329   3.339  17.117  0.00  0.00    +0.000 HD
ENDROOT
BRANCH   1   5
ATOM      5  C   UNL     1       5.970   4.726  15.539  0.00  0.00    +0.000 C 
ATOM      6  C   UNL     1       4.984   5.923  15.629  0.00  0.00    +0.000 C 
ATOM      7  C   UNL     1       5.222   6.806  16.844  0.00  0.00    +0.000 C 
ATOM      8  O   UNL     1       6.575   7.238  16.909  0.00  0.00    +0.000 OA
ATOM      9  C   UNL     1       7.493   6.153  16.995  0.00  0.00    +0.000 C 
ATOM     10  C   UNL     1       7.401   5.263  15.767  0.00  0.00    +0.000 C 
BRANCH   5  15
ATOM     11  C   UNL     1       4.193   3.141  11.146  0.00  0.00    +0.000 C 
ATOM     12  C   UNL     1       5.168   3.429  12.221  0.00  0.00    +0.000 A 
ATOM     13  C   UNL     1       6.533   3.293  12.203  0.00  0.00    +0.000 A 
ATOM     14  N   UNL     1       6.956   3.719  13.426  0.00  0.00    +0.000 N 
ATOM     15  C   UNL     1       5.857   4.111  14.150  0.00  0.00    +0.000 A 
ATOM     16  N   UNL     1       4.755   3.918  13.440  0.00  0.00    +0.000 NA
ATOM     17  H   UNL     1       7.910   3.727  13.780  0.00  0.00    +0.000 HD
ENDBRANCH   5  15
ENDBRANCH   1   5
BRANCH   2  18
ATOM     18  C   UNL     1       4.229   2.305  17.946  0.00  0.00    +0.000 C 
ATOM     19  C   UNL     1       2.928   1.716  18.407  0.00  0.00    +0.000 C 
ATOM     20  C   UNL     1       3.744   2.578  19.370  0.00  0.00    +0.000 C 
ATOM     21  C   UNL     1       4.563   1.890  20.444  0.00  0.00    +0.000 C 
BRANCH  20  22
ATOM     22  C   UNL     1       3.003   3.836  19.839  0.00  0.00    +0.000 A 
ATOM     23  C   UNL     1       1.694   3.733  20.356  0.00  0.00    +0.000 A 
ATOM     24  C   UNL     1       0.938   4.859  20.700  0.00  0.00    +0.000 A 
ATOM     25  C   UNL     1       1.484   6.127  20.552  0.00  0.00    +0.000 A 
ATOM     26  C   UNL     1       2.797   6.259  20.108  0.00  0.00    +0.000 A 
ATOM     27  C   UNL     1       3.550   5.125  19.774  0.00  0.00    +0.000 A 
ENDBRANCH  20  22
ENDBRANCH   2  18
TORSDOF 4
ENDMDL
MODEL 7
REMARK VINA RESULT:      -7.4      2.136      7.043
REMARK  Name = 
REMARK  6 active torsions:
REMARK  status: ('A' for Active; 'I' for Inactive)
REMARK    1  A    between atoms: C_1  and  C_2
REMARK    2  A    between atoms: C_5  and  C_6
REMARK    3  A    between atoms: C_6  and  N_7
REMARK    4  A    between atoms: C_8  and  C_10
REMARK    5  A    between atoms: C_12  and  C_13
REMARK    6  A    between atoms: C_12  and  C_14
REMARK                            x       y       z     vdW  Elec       q    Type
REMARK                         _______ _______ _______ _____ _____    ______ ____
ROOT
ATOM      1  N   UNL     1       2.982   6.491  17.720  0.00  0.00    +0.000 N 
ATOM      2  C   UNL     1       2.445   7.426  18.584  0.00  0.00    +0.000 C 
ATOM      3  O   UNL     1       2.542   7.375  19.802  0.00  0.00    +0.000 OA
ATOM      4  H   UNL     1       2.748   6.582  16.741  0.00  0.00    +0.000 HD
ENDROOT
BRANCH   1   5
ATOM      5  C   UNL     1       3.701   5.255  18.108  0.00  0.00    +0.000 C 
ATOM      6  C   UNL     1       4.145   4.492  16.829  0.00  0.00    +0.000 C 
ATOM      7  C   UNL     1       5.335   5.133  16.132  0.00  0.00    +0.000 C 
ATOM      8  O   UNL     1       6.420   5.318  17.032  0.00  0.00    +0.000 OA
ATOM      9  C   UNL     1       6.082   6.154  18.133  0.00  0.00    +0.000 C 
ATOM     10  C   UNL     1       4.960   5.543  18.957  0.00  0.00    +0.000 C 
BRANCH   5  15
ATOM     11  C   UNL     1       1.477   2.672  21.763  0.00  0.00    +0.000 C 
ATOM     12  C   UNL     1       1.704   3.257  20.422  0.00  0.00    +0.000 A 
ATOM     13  C   UNL     1       0.875   3.250  19.329  0.00  0.00    +0.000 A 
ATOM     14  N   UNL     1       1.539   3.947  18.366  0.00  0.00    +0.000 N 
ATOM     15  C   UNL     1       2.737   4.369  18.888  0.00  0.00    +0.000 A 
ATOM     16  N   UNL     1       2.866   3.937  20.134  0.00  0.00    +0.000 NA
ATOM     17  H   UNL     1       1.238   4.114  17.409  0.00  0.00    +0.000 HD
ENDBRANCH   5  15
ENDBRANCH   1   5
BRANCH   2  18
ATOM     18  C   UNL     1       1.721   8.528  17.892  0.00  0.00    +0.000 C 
ATOM     19  C   UNL     1       2.070   9.971  18.111  0.00  0.00    +0.000 C 
ATOM     20  C   UNL     1       0.701   9.455  18.553  0.00  0.00    +0.000 C 
ATOM     21  C   UNL     1      -0.506   9.763  17.689  0.00  0.00    +0.000 C 
BRANCH  20  22
ATOM     22  C   UNL     1       0.457   9.590  20.061  0.00  0.00    +0.000 A 
ATOM     23  C   UNL     1      -0.165   8.543  20.773  0.00  0.00    +0.000 A 
ATOM     24  C   UNL     1      -0.503   8.659  22.125  0.00  0.00    +0.000 A 
ATOM     25  C   UNL     1      -0.208   9.829  22.811  0.00  0.00    +0.000 A 
ATOM     26  C   UNL     1       0.466  10.856  22.155  0.00  0.00    +0.000 A 
ATOM     27  C   UNL     1       0.808  10.727  20.801  0.00  0.00    +0.000 A 
ENDBRANCH  20  22
ENDBRANCH   2  18
TORSDOF 4
ENDMDL
MODEL 8
REMARK VINA RESULT:      -7.3      1.576      3.152
REMARK  Name = 
REMARK  6 active torsions:
REMARK  status: ('A' for Active; 'I' for Inactive)
REMARK    1  A    between atoms: C_1  and  C_2
REMARK    2  A    between atoms: C_5  and  C_6
REMARK    3  A    between atoms: C_6  and  N_7
REMARK    4  A    between atoms: C_8  and  C_10
REMARK    5  A    between atoms: C_12  and  C_13
REMARK    6  A    between atoms: C_12  and  C_14
REMARK                            x       y       z     vdW  Elec       q    Type
REMARK                         _______ _______ _______ _____ _____    ______ ____
ROOT
ATOM      1  N   UNL     1       3.757   4.507  18.409  0.00  0.00    +0.000 N 
ATOM      2  C   UNL     1       5.080   4.808  18.670  0.00  0.00    +0.000 C 
ATOM      3  O   UNL     1       5.483   5.299  19.715  0.00  0.00    +0.000 OA
ATOM      4  H   UNL     1       3.530   4.203  17.473  0.00  0.00    +0.000 HD
ENDROOT
BRANCH   1   5
ATOM      5  C   UNL     1       2.607   4.778  19.305  0.00  0.00    +0.000 C 
ATOM      6  C   UNL     1       1.341   4.071  18.747  0.00  0.00    +0.000 C 
ATOM      7  C   UNL     1       1.345   2.567  18.975  0.00  0.00    +0.000 C 
ATOM      8  O   UNL     1       1.556   2.255  20.346  0.00  0.00    +0.000 OA
ATOM      9  C   UNL     1       2.795   2.754  20.837  0.00  0.00    +0.000 C 
ATOM     10  C   UNL     1       2.846   4.271  20.745  0.00  0.00    +0.000 C 
BRANCH   5  15
ATOM     11  C   UNL     1       1.871   9.509  17.874  0.00  0.00    +0.000 C 
ATOM     12  C   UNL     1       2.000   8.339  18.771  0.00  0.00    +0.000 A 
ATOM     13  C   UNL     1       1.765   8.260  20.120  0.00  0.00    +0.000 A 
ATOM     14  N   UNL     1       1.999   6.960  20.454  0.00  0.00    +0.000 N 
ATOM     15  C   UNL     1       2.355   6.280  19.315  0.00  0.00    +0.000 A 
ATOM     16  N   UNL     1       2.385   7.111  18.282  0.00  0.00    +0.000 NA
ATOM     17  H   UNL     1       1.956   6.545  21.381  0.00  0.00    +0.000 HD
ENDBRANCH   5  15
ENDBRANCH   1   5
BRANCH   2  18
ATOM     18  C   UNL     1       5.997   4.477  17.545  0.00  0.00    +0.000 C 
ATOM     19  C   UNL     1       7.463   4.235  17.758  0.00  0.00    +0.000 C 
ATOM     20  C   UNL     1       7.014   5.440  16.932  0.00  0.00    +0.000 C 
ATOM     21  C   UNL     1       7.107   5.360  15.421  0.00  0.00    +0.000 C 
BRANCH  20  22
ATOM     22  C   UNL     1       7.449   6.783  17.529  0.00  0.00    +0.000 A 
ATOM     23  C   UNL     1       7.006   7.991  16.948  0.00  0.00    +0.000 A 
ATOM     24  C   UNL     1       7.457   9.239  17.389  0.00  0.00    +0.000 A 
ATOM     25  C   UNL     1       8.356   9.313  18.445  0.00  0.00    +0.000 A 
ATOM     26  C   UNL     1       8.760   8.144  19.083  0.00  0.00    +0.000 A 
ATOM     27  C   UNL     1       8.297   6.897  18.639  0.00  0.00    +0.000 A 
ENDBRANCH  20  22
ENDBRANCH   2  18
TORSDOF 4
ENDMDL
MODEL 9
REMARK VINA RESULT:      -7.3      2.090      7.195
REMARK  Name = 
REMARK  6 active torsions:
REMARK  status: ('A' for Active; 'I' for Inactive)
REMARK    1  A    between atoms: C_1  and  C_2
REMARK    2  A    between atoms: C_5  and  C_6
REMARK    3  A    between atoms: C_6  and  N_7
REMARK    4  A    between atoms: C_8  and  C_10
REMARK    5  A    between atoms: C_12  and  C_13
REMARK    6  A    between atoms: C_12  and  C_14
REMARK                            x       y       z     vdW  Elec       q    Type
REMARK                         _______ _______ _______ _____ _____    ______ ____
ROOT
ATOM      1  N   UNL     1       2.347   6.493  18.070  0.00  0.00    +0.000 N 
ATOM      2  C   UNL     1       2.212   7.679  18.767  0.00  0.00    +0.000 C 
ATOM      3  O   UNL     1       2.670   7.878  19.883  0.00  0.00    +0.000 OA
ATOM      4  H   UNL     1       1.838   6.410  17.201  0.00  0.00    +0.000 HD
ENDROOT
BRANCH   1   5
ATOM      5  C   UNL     1       3.002   5.259  18.564  0.00  0.00    +0.000 C 
ATOM      6  C   UNL     1       2.711   5.093  20.082  0.00  0.00    +0.000 C 
ATOM      7  C   UNL     1       1.293   4.625  20.372  0.00  0.00    +0.000 C 
ATOM      8  O   UNL     1       0.984   3.440  19.648  0.00  0.00    +0.000 OA
ATOM      9  C   UNL     1       1.085   3.617  18.239  0.00  0.00    +0.000 C 
ATOM     10  C   UNL     1       2.502   3.991  17.837  0.00  0.00    +0.000 C 
BRANCH   5  15
ATOM     11  C   UNL     1       7.909   5.659  19.422  0.00  0.00    +0.000 C 
ATOM     12  C   UNL     1       6.640   5.558  18.667  0.00  0.00    +0.000 A 
ATOM     13  C   UNL     1       6.452   5.433  17.314  0.00  0.00    +0.000 A 
ATOM     14  N   UNL     1       5.104   5.348  17.140  0.00  0.00    +0.000 N 
ATOM     15  C   UNL     1       4.506   5.411  18.376  0.00  0.00    +0.000 A 
ATOM     16  N   UNL     1       5.427   5.563  19.317  0.00  0.00    +0.000 NA
ATOM     17  H   UNL     1       4.599   5.282  16.260  0.00  0.00    +0.000 HD
ENDBRANCH   5  15
ENDBRANCH   1   5
BRANCH   2  18
ATOM     18  C   UNL     1       1.445   8.718  18.028  0.00  0.00    +0.000 C 
ATOM     19  C   UNL     1       1.744  10.182  18.173  0.00  0.00    +0.000 C 
ATOM     20  C   UNL     1       0.397   9.640  18.650  0.00  0.00    +0.000 C 
ATOM     21  C   UNL     1      -0.825   9.863  17.781  0.00  0.00    +0.000 C 
BRANCH  20  22
ATOM     22  C   UNL     1       0.157   9.841  20.151  0.00  0.00    +0.000 A 
ATOM     23  C   UNL     1      -0.202   8.743  20.963  0.00  0.00    +0.000 A 
ATOM     24  C   UNL     1      -0.532   8.890  22.313  0.00  0.00    +0.000 A 
ATOM     25  C   UNL     1      -0.493  10.150  22.898  0.00  0.00    +0.000 A 
ATOM     26  C   UNL     1      -0.078  11.243  22.143  0.00  0.00    +0.000 A 
ATOM     27  C   UNL     1       0.259  11.084  20.791  0.00  0.00    +0.000 A 
ENDBRANCH  20  22
ENDBRANCH   2  18
TORSDOF 4
ENDMDL
