MODEL 1
REMARK VINA RESULT:      -7.5      0.000      0.000
REMARK  Name = 
REMARK  14 active torsions:
REMARK  status: ('A' for Active; 'I' for Inactive)
REMARK    1  A    between atoms: C_1  and  O_2
REMARK    2  A    between atoms: O_2  and  C_3
REMARK    3  A    between atoms: C_6  and  C_7
REMARK    4  A    between atoms: C_7  and  C_8
REMARK    5  A    between atoms: C_10  and  O_11
REMARK    6  A    between atoms: O_11  and  C_12
REMARK    7  A    between atoms: C_13  and  O_14
REMARK    8  A    between atoms: O_14  and  C_15
REMARK    9  A    between atoms: C_16  and  O_17
REMARK   10  A    between atoms: O_17  and  C_18
REMARK   11  A    between atoms: C_21  and  C_22
REMARK   12  A    between atoms: C_25  and  O_26
REMARK   13  A    between atoms: C_27  and  O_28
REMARK   14  A    between atoms: C_33  and  O_34
REMARK                            x       y       z     vdW  Elec       q    Type
REMARK                         _______ _______ _______ _____ _____    ______ ____
ROOT
ATOM      1  C   UNL     1       0.490  11.316  19.384  0.00  0.00    +0.000 C 
ATOM      2  C   UNL     1       1.378  10.221  18.784  0.00  0.00    +0.000 C 
ATOM      3  C   UNL     1       1.298   9.203  19.863  0.00  0.00    +0.000 C 
ATOM      4  N   UNL     1       0.866   9.655  20.995  0.00  0.00    +0.000 NA
ATOM      5  O   UNL     1       0.607  11.039  20.808  0.00  0.00    +0.000 OA
ENDROOT
BRANCH   1   9
ATOM      6  C   UNL     1       2.102  15.263  18.402  0.00  0.00    +0.000 A 
ATOM      7  C   UNL     1       0.825  15.122  18.954  0.00  0.00    +0.000 A 
ATOM      8  C   UNL     1       0.319  13.867  19.295  0.00  0.00    +0.000 A 
ATOM      9  C   UNL     1       1.074  12.701  19.080  0.00  0.00    +0.000 A 
ATOM     10  C   UNL     1       2.365  12.849  18.544  0.00  0.00    +0.000 A 
ATOM     11  C   UNL     1       2.870  14.113  18.200  0.00  0.00    +0.000 A 
BRANCH   6  13
ATOM     12  C   UNL     1       1.352  17.469  17.866  0.00  0.00    +0.000 C 
ATOM     13  O   UNL     1       2.415  16.565  18.124  0.00  0.00    +0.000 OA
ENDBRANCH   6  13
BRANCH  11  14
ATOM     14  O   UNL     1       4.121  14.177  17.652  0.00  0.00    +0.000 OA
ATOM     15  H   UNL     1       4.582  13.338  17.813  0.00  0.00    +0.000 HD
ENDBRANCH  11  14
ENDBRANCH   1   9
BRANCH   1  16
ATOM     16  C   UNL     1      -0.991  11.214  18.977  0.00  0.00    +0.000 A 
ATOM     17  C   UNL     1      -1.992  11.874  19.709  0.00  0.00    +0.000 A 
ATOM     18  C   UNL     1      -3.334  11.900  19.295  0.00  0.00    +0.000 A 
ATOM     19  C   UNL     1      -3.703  11.202  18.128  0.00  0.00    +0.000 A 
ATOM     20  C   UNL     1      -2.722  10.467  17.422  0.00  0.00    +0.000 A 
ATOM     21  C   UNL     1      -1.389  10.472  17.855  0.00  0.00    +0.000 A 
BRANCH  18  22
ATOM     22  O   UNL     1      -4.299  12.580  19.991  0.00  0.00    +0.000 OA
ATOM     23  C   UNL     1      -3.994  13.047  21.297  0.00  0.00    +0.000 C 
ENDBRANCH  18  22
BRANCH  19  24
ATOM     24  O   UNL     1      -4.958  11.133  17.567  0.00  0.00    +0.000 OA
ATOM     25  C   UNL     1      -5.540  12.292  16.996  0.00  0.00    +0.000 C 
ENDBRANCH  19  24
BRANCH  20  26
ATOM     26  O   UNL     1      -3.162   9.793  16.305  0.00  0.00    +0.000 OA
ATOM     27  C   UNL     1      -2.871  10.347  15.030  0.00  0.00    +0.000 C 
ENDBRANCH  20  26
ENDBRANCH   1  16
BRANCH   3  28
ATOM     28  C   UNL     1       1.774   7.819  19.653  0.00  0.00    +0.000 A 
ATOM     29  C   UNL     1       1.512   6.846  20.630  0.00  0.00    +0.000 A 
ATOM     30  C   UNL     1       2.019   5.547  20.493  0.00  0.00    +0.000 A 
ATOM     31  C   UNL     1       2.782   5.236  19.376  0.00  0.00    +0.000 A 
ATOM     32  C   UNL     1       3.030   6.198  18.399  0.00  0.00    +0.000 A 
ATOM     33  C   UNL     1       2.534   7.486  18.525  0.00  0.00    +0.000 A 
BRANCH  31  34
ATOM     34  O   UNL     1       3.322   3.993  19.192  0.00  0.00    +0.000 OA
ATOM     35  H   UNL     1       3.158   3.722  18.272  0.00  0.00    +0.000 HD
ENDBRANCH  31  34
BRANCH  32  36
ATOM     36  O   UNL     1       3.793   5.886  17.310  0.00  0.00    +0.000 OA
ATOM     37  H   UNL     1       4.679   6.245  17.518  0.00  0.00    +0.000 HD
ENDBRANCH  32  36
ENDBRANCH   3  28
TORSDOF 10
ENDMDL
MODEL 2
REMARK VINA RESULT:      -7.5      0.791      1.715
REMARK  Name = 
REMARK  14 active torsions:
REMARK  status: ('A' for Active; 'I' for Inactive)
REMARK    1  A    between atoms: C_1  and  O_2
REMARK    2  A    between atoms: O_2  and  C_3
REMARK    3  A    between atoms: C_6  and  C_7
REMARK    4  A    between atoms: C_7  and  C_8
REMARK    5  A    between atoms: C_10  and  O_11
REMARK    6  A    between atoms: O_11  and  C_12
REMARK    7  A    between atoms: C_13  and  O_14
REMARK    8  A    between atoms: O_14  and  C_15
REMARK    9  A    between atoms: C_16  and  O_17
REMARK   10  A    between atoms: O_17  and  C_18
REMARK   11  A    between atoms: C_21  and  C_22
REMARK   12  A    between atoms: C_25  and  O_26
REMARK   13  A    between atoms: C_27  and  O_28
REMARK   14  A    between atoms: C_33  and  O_34
REMARK                            x       y       z     vdW  Elec       q    Type
REMARK                         _______ _______ _______ _____ _____    ______ ____
ROOT
ATOM      1  C   UNL     1       0.566  11.283  19.230  0.00  0.00    +0.000 C 
ATOM      2  C   UNL     1       1.449  10.191  18.617  0.00  0.00    +0.000 C 
ATOM      3  C   UNL     1       1.403   9.180  19.705  0.00  0.00    +0.000 C 
ATOM      4  N   UNL     1       0.993   9.636  20.844  0.00  0.00    +0.000 NA
ATOM      5  O   UNL     1       0.719  11.017  20.653  0.00  0.00    +0.000 OA
ENDROOT
BRANCH   1   9
ATOM      6  C   UNL     1       2.244  15.238  18.404  0.00  0.00    +0.000 A 
ATOM      7  C   UNL     1       2.912  14.075  18.011  0.00  0.00    +0.000 A 
ATOM      8  C   UNL     1       2.366  12.812  18.247  0.00  0.00    +0.000 A 
ATOM      9  C   UNL     1       1.131  12.671  18.903  0.00  0.00    +0.000 A 
ATOM     10  C   UNL     1       0.452  13.843  19.278  0.00  0.00    +0.000 A 
ATOM     11  C   UNL     1       1.006  15.111  19.041  0.00  0.00    +0.000 A 
BRANCH   6  13
ATOM     12  C   UNL     1       4.265  16.501  18.591  0.00  0.00    +0.000 C 
ATOM     13  O   UNL     1       2.940  16.375  18.099  0.00  0.00    +0.000 OA
ENDBRANCH   6  13
BRANCH  11  14
ATOM     14  O   UNL     1       0.305  16.207  19.465  0.00  0.00    +0.000 OA
ATOM     15  H   UNL     1       0.122  16.119  20.414  0.00  0.00    +0.000 HD
ENDBRANCH  11  14
ENDBRANCH   1   9
BRANCH   1  16
ATOM     16  C   UNL     1      -0.923  11.166  18.859  0.00  0.00    +0.000 A 
ATOM     17  C   UNL     1      -1.913  11.816  19.615  0.00  0.00    +0.000 A 
ATOM     18  C   UNL     1      -3.265  11.828  19.232  0.00  0.00    +0.000 A 
ATOM     19  C   UNL     1      -3.655  11.127  18.075  0.00  0.00    +0.000 A 
ATOM     20  C   UNL     1      -2.683  10.402  17.345  0.00  0.00    +0.000 A 
ATOM     21  C   UNL     1      -1.341  10.419  17.746  0.00  0.00    +0.000 A 
BRANCH  18  22
ATOM     22  O   UNL     1      -4.219  12.498  19.952  0.00  0.00    +0.000 OA
ATOM     23  C   UNL     1      -3.912  12.908  21.277  0.00  0.00    +0.000 C 
ENDBRANCH  18  22
BRANCH  19  24
ATOM     24  O   UNL     1      -4.921  11.044  17.544  0.00  0.00    +0.000 OA
ATOM     25  C   UNL     1      -5.533  12.200  16.998  0.00  0.00    +0.000 C 
ENDBRANCH  19  24
BRANCH  20  26
ATOM     26  O   UNL     1      -3.142   9.723  16.239  0.00  0.00    +0.000 OA
ATOM     27  C   UNL     1      -2.891  10.281  14.957  0.00  0.00    +0.000 C 
ENDBRANCH  20  26
ENDBRANCH   1  16
BRANCH   3  28
ATOM     28  C   UNL     1       1.885   7.798  19.493  0.00  0.00    +0.000 A 
ATOM     29  C   UNL     1       2.431   7.443  18.250  0.00  0.00    +0.000 A 
ATOM     30  C   UNL     1       2.822   6.121  17.998  0.00  0.00    +0.000 A 
ATOM     31  C   UNL     1       2.663   5.170  18.996  0.00  0.00    +0.000 A 
ATOM     32  C   UNL     1       2.134   5.525  20.234  0.00  0.00    +0.000 A 
ATOM     33  C   UNL     1       1.743   6.829  20.495  0.00  0.00    +0.000 A 
BRANCH  31  34
ATOM     34  O   UNL     1       3.006   3.859  18.807  0.00  0.00    +0.000 OA
ATOM     35  H   UNL     1       3.955   3.820  18.596  0.00  0.00    +0.000 HD
ENDBRANCH  31  34
BRANCH  32  36
ATOM     36  O   UNL     1       1.970   4.579  21.206  0.00  0.00    +0.000 OA
ATOM     37  H   UNL     1       2.677   3.924  21.035  0.00  0.00    +0.000 HD
ENDBRANCH  32  36
ENDBRANCH   3  28
TORSDOF 10
ENDMDL
MODEL 3
REMARK VINA RESULT:      -7.5      0.624      1.213
REMARK  Name = 
REMARK  14 active torsions:
REMARK  status: ('A' for Active; 'I' for Inactive)
REMARK    1  A    between atoms: C_1  and  O_2
REMARK    2  A    between atoms: O_2  and  C_3
REMARK    3  A    between atoms: C_6  and  C_7
REMARK    4  A    between atoms: C_7  and  C_8
REMARK    5  A    between atoms: C_10  and  O_11
REMARK    6  A    between atoms: O_11  and  C_12
REMARK    7  A    between atoms: C_13  and  O_14
REMARK    8  A    between atoms: O_14  and  C_15
REMARK    9  A    between atoms: C_16  and  O_17
REMARK   10  A    between atoms: O_17  and  C_18
REMARK   11  A    between atoms: C_21  and  C_22
REMARK   12  A    between atoms: C_25  and  O_26
REMARK   13  A    between atoms: C_27  and  O_28
REMARK   14  A    between atoms: C_33  and  O_34
REMARK                            x       y       z     vdW  Elec       q    Type
REMARK                         _______ _______ _______ _____ _____    ______ ____
ROOT
ATOM      1  C   UNL     1       0.562  11.386  19.349  0.00  0.00    +0.000 C 
ATOM      2  C   UNL     1       1.433  10.295  18.718  0.00  0.00    +0.000 C 
ATOM      3  C   UNL     1       1.370   9.264  19.786  0.00  0.00    +0.000 C 
ATOM      4  N   UNL     1       0.962   9.704  20.933  0.00  0.00    +0.000 NA
ATOM      5  O   UNL     1       0.706  11.091  20.767  0.00  0.00    +0.000 OA
ENDROOT
BRANCH   1   9
ATOM      6  C   UNL     1       2.176  15.336  18.383  0.00  0.00    +0.000 A 
ATOM      7  C   UNL     1       0.893  15.193  18.918  0.00  0.00    +0.000 A 
ATOM      8  C   UNL     1       0.386  13.937  19.254  0.00  0.00    +0.000 A 
ATOM      9  C   UNL     1       1.146  12.773  19.051  0.00  0.00    +0.000 A 
ATOM     10  C   UNL     1       2.444  12.922  18.533  0.00  0.00    +0.000 A 
ATOM     11  C   UNL     1       2.950  14.187  18.193  0.00  0.00    +0.000 A 
BRANCH   6  13
ATOM     12  C   UNL     1       1.427  17.570  17.974  0.00  0.00    +0.000 C 
ATOM     13  O   UNL     1       2.490  16.638  18.107  0.00  0.00    +0.000 OA
ENDBRANCH   6  13
BRANCH  11  14
ATOM     14  O   UNL     1       4.208  14.254  17.661  0.00  0.00    +0.000 OA
ATOM     15  H   UNL     1       4.269  13.641  16.910  0.00  0.00    +0.000 HD
ENDBRANCH  11  14
ENDBRANCH   1   9
BRANCH   1  16
ATOM     16  C   UNL     1      -0.927  11.296  18.970  0.00  0.00    +0.000 A 
ATOM     17  C   UNL     1      -1.905  11.990  19.701  0.00  0.00    +0.000 A 
ATOM     18  C   UNL     1      -3.254  12.025  19.308  0.00  0.00    +0.000 A 
ATOM     19  C   UNL     1      -3.653  11.302  18.168  0.00  0.00    +0.000 A 
ATOM     20  C   UNL     1      -2.695  10.533  17.465  0.00  0.00    +0.000 A 
ATOM     21  C   UNL     1      -1.355  10.529  17.876  0.00  0.00    +0.000 A 
BRANCH  18  22
ATOM     22  O   UNL     1      -4.196  12.738  20.002  0.00  0.00    +0.000 OA
ATOM     23  C   UNL     1      -3.766  13.604  21.043  0.00  0.00    +0.000 C 
ENDBRANCH  18  22
BRANCH  19  24
ATOM     24  O   UNL     1      -4.918  11.236  17.630  0.00  0.00    +0.000 OA
ATOM     25  C   UNL     1      -5.974  10.662  18.381  0.00  0.00    +0.000 C 
ENDBRANCH  19  24
BRANCH  20  26
ATOM     26  O   UNL     1      -3.164   9.836  16.374  0.00  0.00    +0.000 OA
ATOM     27  C   UNL     1      -2.864  10.337  15.079  0.00  0.00    +0.000 C 
ENDBRANCH  20  26
ENDBRANCH   1  16
BRANCH   3  28
ATOM     28  C   UNL     1       1.835   7.880  19.550  0.00  0.00    +0.000 A 
ATOM     29  C   UNL     1       2.373   7.539  18.300  0.00  0.00    +0.000 A 
ATOM     30  C   UNL     1       2.748   6.218  18.024  0.00  0.00    +0.000 A 
ATOM     31  C   UNL     1       2.580   5.251  19.007  0.00  0.00    +0.000 A 
ATOM     32  C   UNL     1       2.059   5.592  20.252  0.00  0.00    +0.000 A 
ATOM     33  C   UNL     1       1.684   6.896  20.536  0.00  0.00    +0.000 A 
BRANCH  31  34
ATOM     34  O   UNL     1       2.907   3.940  18.795  0.00  0.00    +0.000 OA
ATOM     35  H   UNL     1       3.519   3.897  18.040  0.00  0.00    +0.000 HD
ENDBRANCH  31  34
BRANCH  32  36
ATOM     36  O   UNL     1       1.886   4.632  21.208  0.00  0.00    +0.000 OA
ATOM     37  H   UNL     1       1.409   5.086  21.932  0.00  0.00    +0.000 HD
ENDBRANCH  32  36
ENDBRANCH   3  28
TORSDOF 10
ENDMDL
MODEL 4
REMARK VINA RESULT:      -7.4      0.548      2.478
REMARK  Name = 
REMARK  14 active torsions:
REMARK  status: ('A' for Active; 'I' for Inactive)
REMARK    1  A    between atoms: C_1  and  O_2
REMARK    2  A    between atoms: O_2  and  C_3
REMARK    3  A    between atoms: C_6  and  C_7
REMARK    4  A    between atoms: C_7  and  C_8
REMARK    5  A    between atoms: C_10  and  O_11
REMARK    6  A    between atoms: O_11  and  C_12
REMARK    7  A    between atoms: C_13  and  O_14
REMARK    8  A    between atoms: O_14  and  C_15
REMARK    9  A    between atoms: C_16  and  O_17
REMARK   10  A    between atoms: O_17  and  C_18
REMARK   11  A    between atoms: C_21  and  C_22
REMARK   12  A    between atoms: C_25  and  O_26
REMARK   13  A    between atoms: C_27  and  O_28
REMARK   14  A    between atoms: C_33  and  O_34
REMARK                            x       y       z     vdW  Elec       q    Type
REMARK                         _______ _______ _______ _____ _____    ______ ____
ROOT
ATOM      1  C   UNL     1       0.532  11.517  19.336  0.00  0.00    +0.000 C 
ATOM      2  C   UNL     1       1.449  10.457  18.718  0.00  0.00    +0.000 C 
ATOM      3  C   UNL     1       1.340   9.389  19.746  0.00  0.00    +0.000 C 
ATOM      4  N   UNL     1       0.864   9.785  20.882  0.00  0.00    +0.000 NA
ATOM      5  O   UNL     1       0.601  11.175  20.750  0.00  0.00    +0.000 OA
ENDROOT
BRANCH   1   9
ATOM      6  C   UNL     1       2.125  15.526  18.607  0.00  0.00    +0.000 A 
ATOM      7  C   UNL     1       0.934  15.341  19.316  0.00  0.00    +0.000 A 
ATOM      8  C   UNL     1       0.438  14.062  19.576  0.00  0.00    +0.000 A 
ATOM      9  C   UNL     1       1.114  12.919  19.117  0.00  0.00    +0.000 A 
ATOM     10  C   UNL     1       2.322  13.108  18.423  0.00  0.00    +0.000 A 
ATOM     11  C   UNL     1       2.816  14.395  18.162  0.00  0.00    +0.000 A 
BRANCH   6  13
ATOM     12  C   UNL     1       1.937  17.518  17.298  0.00  0.00    +0.000 C 
ATOM     13  O   UNL     1       2.441  16.846  18.442  0.00  0.00    +0.000 OA
ENDBRANCH   6  13
BRANCH  11  14
ATOM     14  O   UNL     1       3.979  14.504  17.450  0.00  0.00    +0.000 OA
ATOM     15  H   UNL     1       4.575  13.780  17.701  0.00  0.00    +0.000 HD
ENDBRANCH  11  14
ENDBRANCH   1   9
BRANCH   1  16
ATOM     16  C   UNL     1      -0.934  11.424  18.874  0.00  0.00    +0.000 A 
ATOM     17  C   UNL     1      -1.288  10.692  17.729  0.00  0.00    +0.000 A 
ATOM     18  C   UNL     1      -2.626  10.488  17.351  0.00  0.00    +0.000 A 
ATOM     19  C   UNL     1      -3.651  11.074  18.118  0.00  0.00    +0.000 A 
ATOM     20  C   UNL     1      -3.308  11.880  19.229  0.00  0.00    +0.000 A 
ATOM     21  C   UNL     1      -1.965  12.054  19.587  0.00  0.00    +0.000 A 
BRANCH  18  22
ATOM     22  O   UNL     1      -2.967   9.738  16.255  0.00  0.00    +0.000 OA
ATOM     23  C   UNL     1      -3.042  10.376  14.989  0.00  0.00    +0.000 C 
ENDBRANCH  18  22
BRANCH  19  24
ATOM     24  O   UNL     1      -5.006  10.967  17.908  0.00  0.00    +0.000 OA
ATOM     25  C   UNL     1      -5.667  11.905  17.076  0.00  0.00    +0.000 C 
ENDBRANCH  19  24
BRANCH  20  26
ATOM     26  O   UNL     1      -4.362  12.438  19.918  0.00  0.00    +0.000 OA
ATOM     27  C   UNL     1      -4.128  12.904  21.239  0.00  0.00    +0.000 C 
ENDBRANCH  20  26
ENDBRANCH   1  16
BRANCH   3  28
ATOM     28  C   UNL     1       1.833   8.019  19.489  0.00  0.00    +0.000 A 
ATOM     29  C   UNL     1       2.245   7.668  18.194  0.00  0.00    +0.000 A 
ATOM     30  C   UNL     1       2.642   6.355  17.906  0.00  0.00    +0.000 A 
ATOM     31  C   UNL     1       2.624   5.409  18.922  0.00  0.00    +0.000 A 
ATOM     32  C   UNL     1       2.229   5.761  20.210  0.00  0.00    +0.000 A 
ATOM     33  C   UNL     1       1.834   7.056  20.506  0.00  0.00    +0.000 A 
BRANCH  31  34
ATOM     34  O   UNL     1       2.980   4.106  18.703  0.00  0.00    +0.000 OA
ATOM     35  H   UNL     1       2.286   3.534  19.073  0.00  0.00    +0.000 HD
ENDBRANCH  31  34
BRANCH  32  36
ATOM     36  O   UNL     1       2.203   4.819  21.200  0.00  0.00    +0.000 OA
ATOM     37  H   UNL     1       1.306   4.431  21.148  0.00  0.00    +0.000 HD
ENDBRANCH  32  36
ENDBRANCH   3  28
TORSDOF 10
ENDMDL
MODEL 5
REMARK VINA RESULT:      -7.4      0.545      1.188
REMARK  Name = 
REMARK  14 active torsions:
REMARK  status: ('A' for Active; 'I' for Inactive)
REMARK    1  A    between atoms: C_1  and  O_2
REMARK    2  A    between atoms: O_2  and  C_3
REMARK    3  A    between atoms: C_6  and  C_7
REMARK    4  A    between atoms: C_7  and  C_8
REMARK    5  A    between atoms: C_10  and  O_11
REMARK    6  A    between atoms: O_11  and  C_12
REMARK    7  A    between atoms: C_13  and  O_14
REMARK    8  A    between atoms: O_14  and  C_15
REMARK    9  A    between atoms: C_16  and  O_17
REMARK   10  A    between atoms: O_17  and  C_18
REMARK   11  A    between atoms: C_21  and  C_22
REMARK   12  A    between atoms: C_25  and  O_26
REMARK   13  A    between atoms: C_27  and  O_28
REMARK   14  A    between atoms: C_33  and  O_34
REMARK                            x       y       z     vdW  Elec       q    Type
REMARK                         _______ _______ _______ _____ _____    ______ ____
ROOT
ATOM      1  C   UNL     1       0.544  11.322  19.355  0.00  0.00    +0.000 C 
ATOM      2  C   UNL     1       1.410  10.206  18.761  0.00  0.00    +0.000 C 
ATOM      3  C   UNL     1       1.332   9.206  19.858  0.00  0.00    +0.000 C 
ATOM      4  N   UNL     1       0.919   9.681  20.988  0.00  0.00    +0.000 NA
ATOM      5  O   UNL     1       0.676  11.066  20.782  0.00  0.00    +0.000 OA
ENDROOT
BRANCH   1   9
ATOM      6  C   UNL     1       2.321  15.228  18.506  0.00  0.00    +0.000 A 
ATOM      7  C   UNL     1       2.904  14.051  18.028  0.00  0.00    +0.000 A 
ATOM      8  C   UNL     1       2.325  12.805  18.272  0.00  0.00    +0.000 A 
ATOM      9  C   UNL     1       1.141  12.694  19.022  0.00  0.00    +0.000 A 
ATOM     10  C   UNL     1       0.546  13.881  19.484  0.00  0.00    +0.000 A 
ATOM     11  C   UNL     1       1.134  15.132  19.238  0.00  0.00    +0.000 A 
BRANCH   6  13
ATOM     12  C   UNL     1       2.663  17.065  17.015  0.00  0.00    +0.000 C 
ATOM     13  O   UNL     1       3.040  16.344  18.177  0.00  0.00    +0.000 OA
ENDBRANCH   6  13
BRANCH  11  14
ATOM     14  O   UNL     1       0.518  16.242  19.747  0.00  0.00    +0.000 OA
ATOM     15  H   UNL     1      -0.445  16.123  19.697  0.00  0.00    +0.000 HD
ENDBRANCH  11  14
ENDBRANCH   1   9
BRANCH   1  16
ATOM     16  C   UNL     1      -0.944  11.232  18.969  0.00  0.00    +0.000 A 
ATOM     17  C   UNL     1      -1.923  11.943  19.682  0.00  0.00    +0.000 A 
ATOM     18  C   UNL     1      -3.269  11.978  19.281  0.00  0.00    +0.000 A 
ATOM     19  C   UNL     1      -3.665  11.238  18.150  0.00  0.00    +0.000 A 
ATOM     20  C   UNL     1      -2.706  10.453  17.466  0.00  0.00    +0.000 A 
ATOM     21  C   UNL     1      -1.369  10.450  17.885  0.00  0.00    +0.000 A 
BRANCH  18  22
ATOM     22  O   UNL     1      -4.212  12.707  19.957  0.00  0.00    +0.000 OA
ATOM     23  C   UNL     1      -4.176  12.718  21.377  0.00  0.00    +0.000 C 
ENDBRANCH  18  22
BRANCH  19  24
ATOM     24  O   UNL     1      -4.927  11.169  17.606  0.00  0.00    +0.000 OA
ATOM     25  C   UNL     1      -5.475  12.302  16.953  0.00  0.00    +0.000 C 
ENDBRANCH  19  24
BRANCH  20  26
ATOM     26  O   UNL     1      -3.172   9.740  16.384  0.00  0.00    +0.000 OA
ATOM     27  C   UNL     1      -2.890  10.236  15.083  0.00  0.00    +0.000 C 
ENDBRANCH  20  26
ENDBRANCH   1  16
BRANCH   3  28
ATOM     28  C   UNL     1       1.787   7.813  19.664  0.00  0.00    +0.000 A 
ATOM     29  C   UNL     1       1.517   6.857  20.655  0.00  0.00    +0.000 A 
ATOM     30  C   UNL     1       2.006   5.549  20.533  0.00  0.00    +0.000 A 
ATOM     31  C   UNL     1       2.758   5.213  19.416  0.00  0.00    +0.000 A 
ATOM     32  C   UNL     1       3.014   6.158  18.425  0.00  0.00    +0.000 A 
ATOM     33  C   UNL     1       2.537   7.455  18.536  0.00  0.00    +0.000 A 
BRANCH  31  34
ATOM     34  O   UNL     1       3.281   3.961  19.246  0.00  0.00    +0.000 OA
ATOM     35  H   UNL     1       3.887   3.984  18.485  0.00  0.00    +0.000 HD
ENDBRANCH  31  34
BRANCH  32  36
ATOM     36  O   UNL     1       3.766   5.821  17.336  0.00  0.00    +0.000 OA
ATOM     37  H   UNL     1       4.583   5.431  17.710  0.00  0.00    +0.000 HD
ENDBRANCH  32  36
ENDBRANCH   3  28
TORSDOF 10
ENDMDL
MODEL 6
REMARK VINA RESULT:      -7.4      0.392      2.232
REMARK  Name = 
REMARK  14 active torsions:
REMARK  status: ('A' for Active; 'I' for Inactive)
REMARK    1  A    between atoms: C_1  and  O_2
REMARK    2  A    between atoms: O_2  and  C_3
REMARK    3  A    between atoms: C_6  and  C_7
REMARK    4  A    between atoms: C_7  and  C_8
REMARK    5  A    between atoms: C_10  and  O_11
REMARK    6  A    between atoms: O_11  and  C_12
REMARK    7  A    between atoms: C_13  and  O_14
REMARK    8  A    between atoms: O_14  and  C_15
REMARK    9  A    between atoms: C_16  and  O_17
REMARK   10  A    between atoms: O_17  and  C_18
REMARK   11  A    between atoms: C_21  and  C_22
REMARK   12  A    between atoms: C_25  and  O_26
REMARK   13  A    between atoms: C_27  and  O_28
REMARK   14  A    between atoms: C_33  and  O_34
REMARK                            x       y       z     vdW  Elec       q    Type
REMARK                         _______ _______ _______ _____ _____    ______ ____
ROOT
ATOM      1  C   UNL     1       0.419  11.695  19.452  0.00  0.00    +0.000 C 
ATOM      2  C   UNL     1       1.309  10.589  18.876  0.00  0.00    +0.000 C 
ATOM      3  C   UNL     1       1.184   9.570  19.950  0.00  0.00    +0.000 C 
ATOM      4  N   UNL     1       0.725  10.025  21.070  0.00  0.00    +0.000 NA
ATOM      5  O   UNL     1       0.490  11.413  20.878  0.00  0.00    +0.000 OA
ENDROOT
BRANCH   1   9
ATOM      6  C   UNL     1       2.089  15.634  18.540  0.00  0.00    +0.000 A 
ATOM      7  C   UNL     1       0.912  15.504  19.283  0.00  0.00    +0.000 A 
ATOM      8  C   UNL     1       0.392  14.248  19.600  0.00  0.00    +0.000 A 
ATOM      9  C   UNL     1       1.029  13.073  19.169  0.00  0.00    +0.000 A 
ATOM     10  C   UNL     1       2.224  13.206  18.440  0.00  0.00    +0.000 A 
ATOM     11  C   UNL     1       2.743  14.471  18.121  0.00  0.00    +0.000 A 
BRANCH   6  13
ATOM     12  C   UNL     1       1.598  17.719  17.477  0.00  0.00    +0.000 C 
ATOM     13  O   UNL     1       2.432  16.939  18.320  0.00  0.00    +0.000 OA
ENDBRANCH   6  13
BRANCH  11  14
ATOM     14  O   UNL     1       3.890  14.526  17.379  0.00  0.00    +0.000 OA
ATOM     15  H   UNL     1       3.734  15.073  16.591  0.00  0.00    +0.000 HD
ENDBRANCH  11  14
ENDBRANCH   1   9
BRANCH   1  16
ATOM     16  C   UNL     1      -1.051  11.613  19.002  0.00  0.00    +0.000 A 
ATOM     17  C   UNL     1      -1.423  10.869  17.870  0.00  0.00    +0.000 A 
ATOM     18  C   UNL     1      -2.766  10.676  17.505  0.00  0.00    +0.000 A 
ATOM     19  C   UNL     1      -3.778  11.285  18.271  0.00  0.00    +0.000 A 
ATOM     20  C   UNL     1      -3.417  12.102  19.368  0.00  0.00    +0.000 A 
ATOM     21  C   UNL     1      -2.069  12.265  19.714  0.00  0.00    +0.000 A 
BRANCH  18  22
ATOM     22  O   UNL     1      -3.124   9.915  16.422  0.00  0.00    +0.000 OA
ATOM     23  C   UNL     1      -2.893  10.431  15.119  0.00  0.00    +0.000 C 
ENDBRANCH  18  22
BRANCH  19  24
ATOM     24  O   UNL     1      -5.136  11.191  18.073  0.00  0.00    +0.000 OA
ATOM     25  C   UNL     1      -5.778  12.066  17.161  0.00  0.00    +0.000 C 
ENDBRANCH  19  24
BRANCH  20  26
ATOM     26  O   UNL     1      -4.460  12.682  20.057  0.00  0.00    +0.000 OA
ATOM     27  C   UNL     1      -4.364  12.765  21.472  0.00  0.00    +0.000 C 
ENDBRANCH  20  26
ENDBRANCH   1  16
BRANCH   3  28
ATOM     28  C   UNL     1       1.647   8.180  19.751  0.00  0.00    +0.000 A 
ATOM     29  C   UNL     1       1.379   7.218  20.736  0.00  0.00    +0.000 A 
ATOM     30  C   UNL     1       1.874   5.913  20.609  0.00  0.00    +0.000 A 
ATOM     31  C   UNL     1       2.633   5.587  19.493  0.00  0.00    +0.000 A 
ATOM     32  C   UNL     1       2.888   6.538  18.508  0.00  0.00    +0.000 A 
ATOM     33  C   UNL     1       2.403   7.831  18.624  0.00  0.00    +0.000 A 
BRANCH  31  34
ATOM     34  O   UNL     1       3.162   4.337  19.319  0.00  0.00    +0.000 OA
ATOM     35  H   UNL     1       2.431   3.716  19.157  0.00  0.00    +0.000 HD
ENDBRANCH  31  34
BRANCH  32  36
ATOM     36  O   UNL     1       3.645   6.210  17.420  0.00  0.00    +0.000 OA
ATOM     37  H   UNL     1       3.003   6.139  16.684  0.00  0.00    +0.000 HD
ENDBRANCH  32  36
ENDBRANCH   3  28
TORSDOF 10
ENDMDL
MODEL 7
REMARK VINA RESULT:      -7.4      1.187      1.756
REMARK  Name = 
REMARK  14 active torsions:
REMARK  status: ('A' for Active; 'I' for Inactive)
REMARK    1  A    between atoms: C_1  and  O_2
REMARK    2  A    between atoms: O_2  and  C_3
REMARK    3  A    between atoms: C_6  and  C_7
REMARK    4  A    between atoms: C_7  and  C_8
REMARK    5  A    between atoms: C_10  and  O_11
REMARK    6  A    between atoms: O_11  and  C_12
REMARK    7  A    between atoms: C_13  and  O_14
REMARK    8  A    between atoms: O_14  and  C_15
REMARK    9  A    between atoms: C_16  and  O_17
REMARK   10  A    between atoms: O_17  and  C_18
REMARK   11  A    between atoms: C_21  and  C_22
REMARK   12  A    between atoms: C_25  and  O_26
REMARK   13  A    between atoms: C_27  and  O_28
REMARK   14  A    between atoms: C_33  and  O_34
REMARK                            x       y       z     vdW  Elec       q    Type
REMARK                         _______ _______ _______ _____ _____    ______ ____
ROOT
ATOM      1  C   UNL     1       0.841  11.022  19.687  0.00  0.00    +0.000 C 
ATOM      2  C   UNL     1       1.651   9.911  19.012  0.00  0.00    +0.000 C 
ATOM      3  C   UNL     1       1.468   8.819  20.003  0.00  0.00    +0.000 C 
ATOM      4  N   UNL     1       1.049   9.212  21.163  0.00  0.00    +0.000 NA
ATOM      5  O   UNL     1       0.906  10.623  21.086  0.00  0.00    +0.000 OA
ENDROOT
BRANCH   1   9
ATOM      6  C   UNL     1       2.946  14.824  19.183  0.00  0.00    +0.000 A 
ATOM      7  C   UNL     1       2.687  13.993  18.090  0.00  0.00    +0.000 A 
ATOM      8  C   UNL     1       1.991  12.793  18.242  0.00  0.00    +0.000 A 
ATOM      9  C   UNL     1       1.540  12.375  19.506  0.00  0.00    +0.000 A 
ATOM     10  C   UNL     1       1.784  13.224  20.600  0.00  0.00    +0.000 A 
ATOM     11  C   UNL     1       2.487  14.429  20.443  0.00  0.00    +0.000 A 
BRANCH   6  13
ATOM     12  C   UNL     1       3.317  16.597  17.622  0.00  0.00    +0.000 C 
ATOM     13  O   UNL     1       3.649  15.945  18.838  0.00  0.00    +0.000 OA
ENDBRANCH   6  13
BRANCH  11  14
ATOM     14  O   UNL     1       2.718  15.188  21.557  0.00  0.00    +0.000 OA
ATOM     15  H   UNL     1       3.549  15.675  21.443  0.00  0.00    +0.000 HD
ENDBRANCH  11  14
ENDBRANCH   1   9
BRANCH   1  16
ATOM     16  C   UNL     1      -0.635  11.074  19.253  0.00  0.00    +0.000 A 
ATOM     17  C   UNL     1      -1.548  11.934  19.885  0.00  0.00    +0.000 A 
ATOM     18  C   UNL     1      -2.869  12.092  19.433  0.00  0.00    +0.000 A 
ATOM     19  C   UNL     1      -3.312  11.330  18.335  0.00  0.00    +0.000 A 
ATOM     20  C   UNL     1      -2.428  10.402  17.735  0.00  0.00    +0.000 A 
ATOM     21  C   UNL     1      -1.113  10.276  18.202  0.00  0.00    +0.000 A 
BRANCH  18  22
ATOM     22  O   UNL     1      -3.743  12.963  20.029  0.00  0.00    +0.000 OA
ATOM     23  C   UNL     1      -4.164  12.702  21.360  0.00  0.00    +0.000 C 
ENDBRANCH  18  22
BRANCH  19  24
ATOM     24  O   UNL     1      -4.556  11.368  17.749  0.00  0.00    +0.000 OA
ATOM     25  C   UNL     1      -5.670  10.808  18.425  0.00  0.00    +0.000 C 
ENDBRANCH  19  24
BRANCH  20  26
ATOM     26  O   UNL     1      -2.939   9.678  16.681  0.00  0.00    +0.000 OA
ATOM     27  C   UNL     1      -2.680  10.139  15.363  0.00  0.00    +0.000 C 
ENDBRANCH  20  26
ENDBRANCH   1  16
BRANCH   3  28
ATOM     28  C   UNL     1       1.835   7.422  19.687  0.00  0.00    +0.000 A 
ATOM     29  C   UNL     1       2.384   7.122  18.431  0.00  0.00    +0.000 A 
ATOM     30  C   UNL     1       2.667   5.796  18.077  0.00  0.00    +0.000 A 
ATOM     31  C   UNL     1       2.399   4.784  18.989  0.00  0.00    +0.000 A 
ATOM     32  C   UNL     1       1.868   5.083  20.241  0.00  0.00    +0.000 A 
ATOM     33  C   UNL     1       1.583   6.391  20.602  0.00  0.00    +0.000 A 
BRANCH  31  34
ATOM     34  O   UNL     1       2.634   3.468  18.699  0.00  0.00    +0.000 OA
ATOM     35  H   UNL     1       2.543   3.347  17.738  0.00  0.00    +0.000 HD
ENDBRANCH  31  34
BRANCH  32  36
ATOM     36  O   UNL     1       1.597   4.079  21.127  0.00  0.00    +0.000 OA
ATOM     37  H   UNL     1       1.393   3.303  20.566  0.00  0.00    +0.000 HD
ENDBRANCH  32  36
ENDBRANCH   3  28
TORSDOF 10
ENDMDL
MODEL 8
REMARK VINA RESULT:      -7.3      0.682      2.535
REMARK  Name = 
REMARK  14 active torsions:
REMARK  status: ('A' for Active; 'I' for Inactive)
REMARK    1  A    between atoms: C_1  and  O_2
REMARK    2  A    between atoms: O_2  and  C_3
REMARK    3  A    between atoms: C_6  and  C_7
REMARK    4  A    between atoms: C_7  and  C_8
REMARK    5  A    between atoms: C_10  and  O_11
REMARK    6  A    between atoms: O_11  and  C_12
REMARK    7  A    between atoms: C_13  and  O_14
REMARK    8  A    between atoms: O_14  and  C_15
REMARK    9  A    between atoms: C_16  and  O_17
REMARK   10  A    between atoms: O_17  and  C_18
REMARK   11  A    between atoms: C_21  and  C_22
REMARK   12  A    between atoms: C_25  and  O_26
REMARK   13  A    between atoms: C_27  and  O_28
REMARK   14  A    between atoms: C_33  and  O_34
REMARK                            x       y       z     vdW  Elec       q    Type
REMARK                         _______ _______ _______ _____ _____    ______ ____
ROOT
ATOM      1  C   UNL     1       0.650  11.414  19.247  0.00  0.00    +0.000 C 
ATOM      2  C   UNL     1       1.485  10.252  18.700  0.00  0.00    +0.000 C 
ATOM      3  C   UNL     1       1.338   9.280  19.813  0.00  0.00    +0.000 C 
ATOM      4  N   UNL     1       0.916   9.795  20.922  0.00  0.00    +0.000 NA
ATOM      5  O   UNL     1       0.734  11.183  20.682  0.00  0.00    +0.000 OA
ENDROOT
BRANCH   1   9
ATOM      6  C   UNL     1       2.601  15.230  18.370  0.00  0.00    +0.000 A 
ATOM      7  C   UNL     1       3.177  14.018  17.976  0.00  0.00    +0.000 A 
ATOM      8  C   UNL     1       2.543  12.800  18.229  0.00  0.00    +0.000 A 
ATOM      9  C   UNL     1       1.310  12.754  18.902  0.00  0.00    +0.000 A 
ATOM     10  C   UNL     1       0.724  13.975  19.278  0.00  0.00    +0.000 A 
ATOM     11  C   UNL     1       1.366  15.198  19.024  0.00  0.00    +0.000 A 
BRANCH   6  13
ATOM     12  C   UNL     1       4.350  16.740  18.984  0.00  0.00    +0.000 C 
ATOM     13  O   UNL     1       3.375  16.310  18.047  0.00  0.00    +0.000 OA
ENDBRANCH   6  13
BRANCH  11  14
ATOM     14  O   UNL     1       0.754  16.345  19.449  0.00  0.00    +0.000 OA
ATOM     15  H   UNL     1       1.079  16.568  20.337  0.00  0.00    +0.000 HD
ENDBRANCH  11  14
ENDBRANCH   1   9
BRANCH   1  16
ATOM     16  C   UNL     1      -0.830  11.375  18.823  0.00  0.00    +0.000 A 
ATOM     17  C   UNL     1      -1.244  10.636  17.703  0.00  0.00    +0.000 A 
ATOM     18  C   UNL     1      -2.599  10.483  17.362  0.00  0.00    +0.000 A 
ATOM     19  C   UNL     1      -3.578  11.127  18.142  0.00  0.00    +0.000 A 
ATOM     20  C   UNL     1      -3.173  11.939  19.228  0.00  0.00    +0.000 A 
ATOM     21  C   UNL     1      -1.814  12.062  19.549  0.00  0.00    +0.000 A 
BRANCH  18  22
ATOM     22  O   UNL     1      -2.999   9.727  16.291  0.00  0.00    +0.000 OA
ATOM     23  C   UNL     1      -2.930  10.295  14.992  0.00  0.00    +0.000 C 
ENDBRANCH  18  22
BRANCH  19  24
ATOM     24  O   UNL     1      -4.942  11.075  17.969  0.00  0.00    +0.000 OA
ATOM     25  C   UNL     1      -5.575  11.980  17.080  0.00  0.00    +0.000 C 
ENDBRANCH  19  24
BRANCH  20  26
ATOM     26  O   UNL     1      -4.184  12.556  19.931  0.00  0.00    +0.000 OA
ATOM     27  C   UNL     1      -3.833  13.576  20.854  0.00  0.00    +0.000 C 
ENDBRANCH  20  26
ENDBRANCH   1  16
BRANCH   3  28
ATOM     28  C   UNL     1       1.742   7.865  19.660  0.00  0.00    +0.000 A 
ATOM     29  C   UNL     1       1.442   6.950  20.681  0.00  0.00    +0.000 A 
ATOM     30  C   UNL     1       1.882   5.623  20.597  0.00  0.00    +0.000 A 
ATOM     31  C   UNL     1       2.617   5.226  19.487  0.00  0.00    +0.000 A 
ATOM     32  C   UNL     1       2.902   6.131  18.468  0.00  0.00    +0.000 A 
ATOM     33  C   UNL     1       2.472   7.446  18.541  0.00  0.00    +0.000 A 
BRANCH  31  34
ATOM     34  O   UNL     1       3.093   3.950  19.353  0.00  0.00    +0.000 OA
ATOM     35  H   UNL     1       2.340   3.336  19.412  0.00  0.00    +0.000 HD
ENDBRANCH  31  34
BRANCH  32  36
ATOM     36  O   UNL     1       3.636   5.734  17.386  0.00  0.00    +0.000 OA
ATOM     37  H   UNL     1       3.985   4.853  17.634  0.00  0.00    +0.000 HD
ENDBRANCH  32  36
ENDBRANCH   3  28
TORSDOF 10
ENDMDL
MODEL 9
REMARK VINA RESULT:      -7.3      1.128      2.816
REMARK  Name = 
REMARK  14 active torsions:
REMARK  status: ('A' for Active; 'I' for Inactive)
REMARK    1  A    between atoms: C_1  and  O_2
REMARK    2  A    between atoms: O_2  and  C_3
REMARK    3  A    between atoms: C_6  and  C_7
REMARK    4  A    between atoms: C_7  and  C_8
REMARK    5  A    between atoms: C_10  and  O_11
REMARK    6  A    between atoms: O_11  and  C_12
REMARK    7  A    between atoms: C_13  and  O_14
REMARK    8  A    between atoms: O_14  and  C_15
REMARK    9  A    between atoms: C_16  and  O_17
REMARK   10  A    between atoms: O_17  and  C_18
REMARK   11  A    between atoms: C_21  and  C_22
REMARK   12  A    between atoms: C_25  and  O_26
REMARK   13  A    between atoms: C_27  and  O_28
REMARK   14  A    between atoms: C_33  and  O_34
REMARK                            x       y       z     vdW  Elec       q    Type
REMARK                         _______ _______ _______ _____ _____    ______ ____
ROOT
ATOM      1  C   UNL     1       0.793  11.197  19.597  0.00  0.00    +0.000 C 
ATOM      2  C   UNL     1       1.658  10.103  18.963  0.00  0.00    +0.000 C 
ATOM      3  C   UNL     1       1.444   9.005  19.942  0.00  0.00    +0.000 C 
ATOM      4  N   UNL     1       0.958   9.387  21.078  0.00  0.00    +0.000 NA
ATOM      5  O   UNL     1       0.792  10.795  20.996  0.00  0.00    +0.000 OA
ENDROOT
BRANCH   1   9
ATOM      6  C   UNL     1       2.850  15.039  19.209  0.00  0.00    +0.000 A 
ATOM      7  C   UNL     1       2.656  14.209  18.100  0.00  0.00    +0.000 A 
ATOM      8  C   UNL     1       1.975  12.996  18.215  0.00  0.00    +0.000 A 
ATOM      9  C   UNL     1       1.475  12.564  19.455  0.00  0.00    +0.000 A 
ATOM     10  C   UNL     1       1.653  13.410  20.563  0.00  0.00    +0.000 A 
ATOM     11  C   UNL     1       2.340  14.628  20.444  0.00  0.00    +0.000 A 
BRANCH   6  13
ATOM     12  C   UNL     1       4.944  16.062  18.675  0.00  0.00    +0.000 C 
ATOM     13  O   UNL     1       3.547  16.175  18.902  0.00  0.00    +0.000 OA
ENDBRANCH   6  13
BRANCH  11  14
ATOM     14  O   UNL     1       2.506  15.384  21.572  0.00  0.00    +0.000 OA
ATOM     15  H   UNL     1       2.617  14.795  22.336  0.00  0.00    +0.000 HD
ENDBRANCH  11  14
ENDBRANCH   1   9
BRANCH   1  16
ATOM     16  C   UNL     1      -0.659  11.222  19.085  0.00  0.00    +0.000 A 
ATOM     17  C   UNL     1      -1.046  10.468  17.965  0.00  0.00    +0.000 A 
ATOM     18  C   UNL     1      -2.385  10.374  17.548  0.00  0.00    +0.000 A 
ATOM     19  C   UNL     1      -3.371  11.097  18.247  0.00  0.00    +0.000 A 
ATOM     20  C   UNL     1      -2.987  11.924  19.329  0.00  0.00    +0.000 A 
ATOM     21  C   UNL     1      -1.645  11.986  19.728  0.00  0.00    +0.000 A 
BRANCH  18  22
ATOM     22  O   UNL     1      -2.762   9.604  16.480  0.00  0.00    +0.000 OA
ATOM     23  C   UNL     1      -2.783  10.194  15.188  0.00  0.00    +0.000 C 
ENDBRANCH  18  22
BRANCH  19  24
ATOM     24  O   UNL     1      -4.723  11.111  17.993  0.00  0.00    +0.000 OA
ATOM     25  C   UNL     1      -5.250  12.006  17.028  0.00  0.00    +0.000 C 
ENDBRANCH  19  24
BRANCH  20  26
ATOM     26  O   UNL     1      -4.002  12.617  19.949  0.00  0.00    +0.000 OA
ATOM     27  C   UNL     1      -3.889  12.867  21.343  0.00  0.00    +0.000 C 
ENDBRANCH  20  26
ENDBRANCH   1  16
BRANCH   3  28
ATOM     28  C   UNL     1       1.854   7.616  19.643  0.00  0.00    +0.000 A 
ATOM     29  C   UNL     1       2.367   7.308  18.374  0.00  0.00    +0.000 A 
ATOM     30  C   UNL     1       2.689   5.986  18.040  0.00  0.00    +0.000 A 
ATOM     31  C   UNL     1       2.495   4.986  18.983  0.00  0.00    +0.000 A 
ATOM     32  C   UNL     1       1.998   5.294  20.248  0.00  0.00    +0.000 A 
ATOM     33  C   UNL     1       1.676   6.598  20.589  0.00  0.00    +0.000 A 
BRANCH  31  34
ATOM     34  O   UNL     1       2.770   3.673  18.714  0.00  0.00    +0.000 OA
ATOM     35  H   UNL     1       3.397   3.350  19.383  0.00  0.00    +0.000 HD
ENDBRANCH  31  34
BRANCH  32  36
ATOM     36  O   UNL     1       1.799   4.302  21.165  0.00  0.00    +0.000 OA
ATOM     37  H   UNL     1       2.473   3.625  20.948  0.00  0.00    +0.000 HD
ENDBRANCH  32  36
ENDBRANCH   3  28
TORSDOF 10
ENDMDL
