MODEL 1
REMARK VINA RESULT:      -7.0      0.000      0.000
REMARK  Name = 
REMARK  9 active torsions:
REMARK  status: ('A' for Active; 'I' for Inactive)
REMARK    1  A    between atoms: C_1  and  O_2
REMARK    2  A    between atoms: O_2  and  C_3
REMARK    3  A    between atoms: C_3  and  C_4
REMARK    4  A    between atoms: C_7  and  C_8
REMARK    5  A    between atoms: N_10  and  C_11
REMARK    6  A    between atoms: C_11  and  C_12
REMARK    7  A    between atoms: C_16  and  C_17
REMARK    8  A    between atoms: C_16  and  C_18
REMARK    9  A    between atoms: C_18  and  C_19
REMARK                            x       y       z     vdW  Elec       q    Type
REMARK                         _______ _______ _______ _____ _____    ______ ____
ROOT
ATOM      1  C   UNL     1       2.122   7.956  18.958  0.00  0.00    +0.000 C 
ATOM      2  O   UNL     1       1.955   7.080  19.808  0.00  0.00    +0.000 OA
ATOM      3  N   UNL     1       1.645   9.263  19.090  0.00  0.00    +0.000 N 
ATOM      4  C   UNL     1       1.702  10.284  18.038  0.00  0.00    +0.000 C 
ATOM      5  C   UNL     1       1.126  11.606  18.588  0.00  0.00    +0.000 C 
ATOM      6  C   UNL     1       2.266  12.627  18.762  0.00  0.00    +0.000 C 
ATOM      7  C   UNL     1       0.659  11.152  19.961  0.00  0.00    +0.000 A 
ATOM      8  C   UNL     1       0.075  11.926  20.958  0.00  0.00    +0.000 A 
ATOM      9  C   UNL     1      -0.207  11.331  22.191  0.00  0.00    +0.000 A 
ATOM     10  C   UNL     1       0.083   9.977  22.407  0.00  0.00    +0.000 A 
ATOM     11 CL   UNL     1      -0.280   9.271  23.935  0.00  0.00    +0.000 Cl
ATOM     12  C   UNL     1       0.679   9.200  21.412  0.00  0.00    +0.000 A 
ATOM     13  C   UNL     1       0.976   9.806  20.201  0.00  0.00    +0.000 A 
ENDROOT
BRANCH   1  14
ATOM     14  C   UNL     1       2.880   7.689  17.635  0.00  0.00    +0.000 C 
BRANCH  14  21
ATOM     15  C   UNL     1       3.948   5.608  18.408  0.00  0.00    +0.000 C 
ATOM     16  C   UNL     1       5.339   4.966  18.688  0.00  0.00    +0.000 C 
ATOM     17  N   UNL     1       6.225   4.887  17.507  0.00  0.00    +0.000 NA
ATOM     18  C   UNL     1       6.338   6.209  16.851  0.00  0.00    +0.000 C 
ATOM     19  C   UNL     1       7.250   7.143  17.656  0.00  0.00    +0.000 C 
ATOM     20  C   UNL     1       4.958   6.867  16.576  0.00  0.00    +0.000 C 
ATOM     21  N   UNL     1       4.143   6.957  17.800  0.00  0.00    +0.000 NA
ATOM     22  H   UNL     1       5.807   4.235  16.845  0.00  0.00    +0.000 HD
BRANCH  15  23
ATOM     23  C   UNL     1       3.045   4.612  17.620  0.00  0.00    +0.000 C 
BRANCH  23  25
ATOM     24  C   UNL     1       2.944   2.257  17.870  0.00  0.00    +0.000 C 
ATOM     25  O   UNL     1       3.732   3.366  17.460  0.00  0.00    +0.000 OA
ENDBRANCH  23  25
ENDBRANCH  15  23
ENDBRANCH  14  21
ENDBRANCH   1  14
BRANCH   5  26
ATOM     26  C   UNL     1      -0.016  12.150  17.686  0.00  0.00    +0.000 C 
BRANCH  26  27
ATOM     27  C   UNL     1      -1.360  11.460  17.868  0.00  0.00    +0.000 A 
ATOM     28  C   UNL     1      -1.598  10.183  17.336  0.00  0.00    +0.000 A 
ATOM     29  C   UNL     1      -2.865   9.596  17.411  0.00  0.00    +0.000 A 
ATOM     30  C   UNL     1      -3.905  10.266  18.051  0.00  0.00    +0.000 A 
ATOM     31  C   UNL     1      -3.673  11.511  18.627  0.00  0.00    +0.000 A 
ATOM     32  C   UNL     1      -2.408  12.104  18.539  0.00  0.00    +0.000 A 
ENDBRANCH  26  27
ENDBRANCH   5  26
TORSDOF 6
ENDMDL
MODEL 2
REMARK VINA RESULT:      -6.7      2.419      4.405
REMARK  Name = 
REMARK  9 active torsions:
REMARK  status: ('A' for Active; 'I' for Inactive)
REMARK    1  A    between atoms: C_1  and  O_2
REMARK    2  A    between atoms: O_2  and  C_3
REMARK    3  A    between atoms: C_3  and  C_4
REMARK    4  A    between atoms: C_7  and  C_8
REMARK    5  A    between atoms: N_10  and  C_11
REMARK    6  A    between atoms: C_11  and  C_12
REMARK    7  A    between atoms: C_16  and  C_17
REMARK    8  A    between atoms: C_16  and  C_18
REMARK    9  A    between atoms: C_18  and  C_19
REMARK                            x       y       z     vdW  Elec       q    Type
REMARK                         _______ _______ _______ _____ _____    ______ ____
ROOT
ATOM      1  C   UNL     1       1.420   8.469  18.459  0.00  0.00    +0.000 C 
ATOM      2  O   UNL     1       1.180   8.227  17.275  0.00  0.00    +0.000 OA
ATOM      3  N   UNL     1       0.735   9.432  19.206  0.00  0.00    +0.000 N 
ATOM      4  C   UNL     1       1.092   9.843  20.568  0.00  0.00    +0.000 C 
ATOM      5  C   UNL     1       0.066  10.883  21.065  0.00  0.00    +0.000 C 
ATOM      6  C   UNL     1      -0.810  10.252  22.164  0.00  0.00    +0.000 C 
ATOM      7  C   UNL     1      -0.773  11.063  19.811  0.00  0.00    +0.000 A 
ATOM      8  C   UNL     1      -1.896  11.867  19.648  0.00  0.00    +0.000 A 
ATOM      9  C   UNL     1      -2.578  11.827  18.430  0.00  0.00    +0.000 A 
ATOM     10  C   UNL     1      -2.127  11.001  17.391  0.00  0.00    +0.000 A 
ATOM     11 CL   UNL     1      -2.988  10.977  15.900  0.00  0.00    +0.000 Cl
ATOM     12  C   UNL     1      -1.007  10.184  17.555  0.00  0.00    +0.000 A 
ATOM     13  C   UNL     1      -0.350  10.215  18.776  0.00  0.00    +0.000 A 
ENDROOT
BRANCH   1  14
ATOM     14  C   UNL     1       2.529   7.728  19.246  0.00  0.00    +0.000 C 
BRANCH  14  21
ATOM     15  C   UNL     1       3.338   5.661  18.178  0.00  0.00    +0.000 C 
ATOM     16  C   UNL     1       3.059   4.131  18.083  0.00  0.00    +0.000 C 
ATOM     17  N   UNL     1       3.159   3.410  19.370  0.00  0.00    +0.000 NA
ATOM     18  C   UNL     1       2.327   4.069  20.402  0.00  0.00    +0.000 C 
ATOM     19  C   UNL     1       0.840   3.769  20.180  0.00  0.00    +0.000 C 
ATOM     20  C   UNL     1       2.586   5.598  20.501  0.00  0.00    +0.000 C 
ATOM     21  N   UNL     1       2.427   6.263  19.196  0.00  0.00    +0.000 NA
ATOM     22  H   UNL     1       4.131   3.442  19.672  0.00  0.00    +0.000 HD
BRANCH  15  23
ATOM     23  C   UNL     1       4.863   5.919  18.368  0.00  0.00    +0.000 C 
BRANCH  23  25
ATOM     24  C   UNL     1       6.704   4.705  17.498  0.00  0.00    +0.000 C 
ATOM     25  O   UNL     1       5.566   4.671  18.348  0.00  0.00    +0.000 OA
ENDBRANCH  23  25
ENDBRANCH  15  23
ENDBRANCH  14  21
ENDBRANCH   1  14
BRANCH   5  26
ATOM     26  C   UNL     1       0.762  12.186  21.547  0.00  0.00    +0.000 C 
BRANCH  26  27
ATOM     27  C   UNL     1       1.156  13.149  20.436  0.00  0.00    +0.000 A 
ATOM     28  C   UNL     1       2.176  12.831  19.527  0.00  0.00    +0.000 A 
ATOM     29  C   UNL     1       2.609  13.759  18.576  0.00  0.00    +0.000 A 
ATOM     30  C   UNL     1       2.003  15.010  18.499  0.00  0.00    +0.000 A 
ATOM     31  C   UNL     1       0.957  15.324  19.360  0.00  0.00    +0.000 A 
ATOM     32  C   UNL     1       0.533  14.400  20.322  0.00  0.00    +0.000 A 
ENDBRANCH  26  27
ENDBRANCH   5  26
TORSDOF 6
ENDMDL
MODEL 3
REMARK VINA RESULT:      -6.7      2.724      4.247
REMARK  Name = 
REMARK  9 active torsions:
REMARK  status: ('A' for Active; 'I' for Inactive)
REMARK    1  A    between atoms: C_1  and  O_2
REMARK    2  A    between atoms: O_2  and  C_3
REMARK    3  A    between atoms: C_3  and  C_4
REMARK    4  A    between atoms: C_7  and  C_8
REMARK    5  A    between atoms: N_10  and  C_11
REMARK    6  A    between atoms: C_11  and  C_12
REMARK    7  A    between atoms: C_16  and  C_17
REMARK    8  A    between atoms: C_16  and  C_18
REMARK    9  A    between atoms: C_18  and  C_19
REMARK                            x       y       z     vdW  Elec       q    Type
REMARK                         _______ _______ _______ _____ _____    ______ ____
ROOT
ATOM      1  C   UNL     1       1.978   9.345  18.232  0.00  0.00    +0.000 C 
ATOM      2  O   UNL     1       2.925   9.627  17.496  0.00  0.00    +0.000 OA
ATOM      3  N   UNL     1       1.286  10.287  18.998  0.00  0.00    +0.000 N 
ATOM      4  C   UNL     1       0.254   9.964  19.989  0.00  0.00    +0.000 C 
ATOM      5  C   UNL     1      -0.307  11.275  20.578  0.00  0.00    +0.000 C 
ATOM      6  C   UNL     1      -1.749  11.485  20.078  0.00  0.00    +0.000 C 
ATOM      7  C   UNL     1       0.601  12.290  19.903  0.00  0.00    +0.000 A 
ATOM      8  C   UNL     1       0.557  13.676  20.016  0.00  0.00    +0.000 A 
ATOM      9  C   UNL     1       1.434  14.439  19.240  0.00  0.00    +0.000 A 
ATOM     10  C   UNL     1       2.345  13.814  18.378  0.00  0.00    +0.000 A 
ATOM     11 CL   UNL     1       3.415  14.783  17.438  0.00  0.00    +0.000 Cl
ATOM     12  C   UNL     1       2.384  12.424  18.255  0.00  0.00    +0.000 A 
ATOM     13  C   UNL     1       1.494  11.677  19.012  0.00  0.00    +0.000 A 
ENDROOT
BRANCH   1  14
ATOM     14  C   UNL     1       1.461   7.895  18.393  0.00  0.00    +0.000 C 
BRANCH  14  21
ATOM     15  C   UNL     1       2.865   6.419  19.778  0.00  0.00    +0.000 C 
ATOM     16  C   UNL     1       4.089   5.459  19.708  0.00  0.00    +0.000 C 
ATOM     17  N   UNL     1       3.909   4.304  18.803  0.00  0.00    +0.000 NA
ATOM     18  C   UNL     1       3.471   4.755  17.463  0.00  0.00    +0.000 C 
ATOM     19  C   UNL     1       4.640   5.371  16.684  0.00  0.00    +0.000 C 
ATOM     20  C   UNL     1       2.257   5.723  17.518  0.00  0.00    +0.000 C 
ATOM     21  N   UNL     1       2.518   6.874  18.400  0.00  0.00    +0.000 NA
ATOM     22  H   UNL     1       3.181   3.709  19.196  0.00  0.00    +0.000 HD
BRANCH  15  23
ATOM     23  C   UNL     1       1.717   5.768  20.607  0.00  0.00    +0.000 C 
BRANCH  23  25
ATOM     24  C   UNL     1       1.201   3.470  20.884  0.00  0.00    +0.000 C 
ATOM     25  O   UNL     1       2.152   4.501  21.114  0.00  0.00    +0.000 OA
ENDBRANCH  23  25
ENDBRANCH  15  23
ENDBRANCH  14  21
ENDBRANCH   1  14
BRANCH   5  26
ATOM     26  C   UNL     1      -0.216  11.288  22.130  0.00  0.00    +0.000 C 
BRANCH  26  27
ATOM     27  C   UNL     1      -1.241  12.174  22.824  0.00  0.00    +0.000 A 
ATOM     28  C   UNL     1      -2.468  11.656  23.264  0.00  0.00    +0.000 A 
ATOM     29  C   UNL     1      -3.450  12.491  23.804  0.00  0.00    +0.000 A 
ATOM     30  C   UNL     1      -3.204  13.855  23.944  0.00  0.00    +0.000 A 
ATOM     31  C   UNL     1      -1.974  14.377  23.558  0.00  0.00    +0.000 A 
ATOM     32  C   UNL     1      -0.996  13.542  23.004  0.00  0.00    +0.000 A 
ENDBRANCH  26  27
ENDBRANCH   5  26
TORSDOF 6
ENDMDL
MODEL 4
REMARK VINA RESULT:      -6.6      2.408      4.548
REMARK  Name = 
REMARK  9 active torsions:
REMARK  status: ('A' for Active; 'I' for Inactive)
REMARK    1  A    between atoms: C_1  and  O_2
REMARK    2  A    between atoms: O_2  and  C_3
REMARK    3  A    between atoms: C_3  and  C_4
REMARK    4  A    between atoms: C_7  and  C_8
REMARK    5  A    between atoms: N_10  and  C_11
REMARK    6  A    between atoms: C_11  and  C_12
REMARK    7  A    between atoms: C_16  and  C_17
REMARK    8  A    between atoms: C_16  and  C_18
REMARK    9  A    between atoms: C_18  and  C_19
REMARK                            x       y       z     vdW  Elec       q    Type
REMARK                         _______ _______ _______ _____ _____    ______ ____
ROOT
ATOM      1  C   UNL     1       0.925   9.226  18.418  0.00  0.00    +0.000 C 
ATOM      2  O   UNL     1       0.531   9.007  17.272  0.00  0.00    +0.000 OA
ATOM      3  N   UNL     1       0.275  10.084  19.310  0.00  0.00    +0.000 N 
ATOM      4  C   UNL     1       0.795  10.475  20.624  0.00  0.00    +0.000 C 
ATOM      5  C   UNL     1      -0.236  11.386  21.323  0.00  0.00    +0.000 C 
ATOM      6  C   UNL     1      -0.871  10.628  22.504  0.00  0.00    +0.000 C 
ATOM      7  C   UNL     1      -1.269  11.531  20.218  0.00  0.00    +0.000 A 
ATOM      8  C   UNL     1      -2.474  12.224  20.267  0.00  0.00    +0.000 A 
ATOM      9  C   UNL     1      -3.328  12.163  19.162  0.00  0.00    +0.000 A 
ATOM     10  C   UNL     1      -2.965  11.428  18.026  0.00  0.00    +0.000 A 
ATOM     11 CL   UNL     1      -4.037  11.376  16.679  0.00  0.00    +0.000 Cl
ATOM     12  C   UNL     1      -1.761  10.723  17.978  0.00  0.00    +0.000 A 
ATOM     13  C   UNL     1      -0.932  10.771  19.088  0.00  0.00    +0.000 A 
ENDROOT
BRANCH   1  14
ATOM     14  C   UNL     1       2.205   8.569  18.992  0.00  0.00    +0.000 C 
BRANCH  14  21
ATOM     15  C   UNL     1       2.877   6.504  17.828  0.00  0.00    +0.000 C 
ATOM     16  C   UNL     1       2.669   4.961  17.836  0.00  0.00    +0.000 C 
ATOM     17  N   UNL     1       3.083   4.294  19.090  0.00  0.00    +0.000 NA
ATOM     18  C   UNL     1       2.460   4.951  20.260  0.00  0.00    +0.000 C 
ATOM     19  C   UNL     1       0.978   4.572  20.375  0.00  0.00    +0.000 C 
ATOM     20  C   UNL     1       2.649   6.494  20.259  0.00  0.00    +0.000 C 
ATOM     21  N   UNL     1       2.175   7.100  19.003  0.00  0.00    +0.000 NA
ATOM     22  H   UNL     1       4.095   4.384  19.171  0.00  0.00    +0.000 HD
BRANCH  15  23
ATOM     23  C   UNL     1       4.390   6.843  17.675  0.00  0.00    +0.000 C 
BRANCH  23  25
ATOM     24  C   UNL     1       6.318   5.697  18.446  0.00  0.00    +0.000 C 
ATOM     25  O   UNL     1       5.151   5.630  17.637  0.00  0.00    +0.000 OA
ENDBRANCH  23  25
ENDBRANCH  15  23
ENDBRANCH  14  21
ENDBRANCH   1  14
BRANCH   5  26
ATOM     26  C   UNL     1       0.401  12.733  21.766  0.00  0.00    +0.000 C 
BRANCH  26  27
ATOM     27  C   UNL     1       1.121  13.495  20.663  0.00  0.00    +0.000 A 
ATOM     28  C   UNL     1       0.408  14.224  19.699  0.00  0.00    +0.000 A 
ATOM     29  C   UNL     1       1.065  14.834  18.626  0.00  0.00    +0.000 A 
ATOM     30  C   UNL     1       2.451  14.750  18.520  0.00  0.00    +0.000 A 
ATOM     31  C   UNL     1       3.177  14.072  19.494  0.00  0.00    +0.000 A 
ATOM     32  C   UNL     1       2.518  13.450  20.561  0.00  0.00    +0.000 A 
ENDBRANCH  26  27
ENDBRANCH   5  26
TORSDOF 6
ENDMDL
MODEL 5
REMARK VINA RESULT:      -6.6      4.666      8.954
REMARK  Name = 
REMARK  9 active torsions:
REMARK  status: ('A' for Active; 'I' for Inactive)
REMARK    1  A    between atoms: C_1  and  O_2
REMARK    2  A    between atoms: O_2  and  C_3
REMARK    3  A    between atoms: C_3  and  C_4
REMARK    4  A    between atoms: C_7  and  C_8
REMARK    5  A    between atoms: N_10  and  C_11
REMARK    6  A    between atoms: C_11  and  C_12
REMARK    7  A    between atoms: C_16  and  C_17
REMARK    8  A    between atoms: C_16  and  C_18
REMARK    9  A    between atoms: C_18  and  C_19
REMARK                            x       y       z     vdW  Elec       q    Type
REMARK                         _______ _______ _______ _____ _____    ______ ____
ROOT
ATOM      1  C   UNL     1      -3.104  10.972  18.044  0.00  0.00    +0.000 C 
ATOM      2  O   UNL     1      -3.088   9.792  17.690  0.00  0.00    +0.000 OA
ATOM      3  N   UNL     1      -1.972  11.663  18.486  0.00  0.00    +0.000 N 
ATOM      4  C   UNL     1      -1.985  13.017  19.048  0.00  0.00    +0.000 C 
ATOM      5  C   UNL     1      -0.536  13.446  19.362  0.00  0.00    +0.000 C 
ATOM      6  C   UNL     1      -0.102  14.544  18.373  0.00  0.00    +0.000 C 
ATOM      7  C   UNL     1       0.208  12.163  19.032  0.00  0.00    +0.000 A 
ATOM      8  C   UNL     1       1.580  11.940  19.085  0.00  0.00    +0.000 A 
ATOM      9  C   UNL     1       2.075  10.705  18.655  0.00  0.00    +0.000 A 
ATOM     10  C   UNL     1       1.200   9.712  18.195  0.00  0.00    +0.000 A 
ATOM     11 CL   UNL     1       1.841   8.200  17.677  0.00  0.00    +0.000 Cl
ATOM     12  C   UNL     1      -0.176   9.938  18.130  0.00  0.00    +0.000 A 
ATOM     13  C   UNL     1      -0.655  11.174  18.537  0.00  0.00    +0.000 A 
ENDROOT
BRANCH   1  14
ATOM     14  C   UNL     1      -4.402  11.816  18.047  0.00  0.00    +0.000 C 
BRANCH  14  21
ATOM     15  C   UNL     1      -5.383  12.458  20.213  0.00  0.00    +0.000 C 
ATOM     16  C   UNL     1      -6.296  11.929  21.359  0.00  0.00    +0.000 C 
ATOM     17  N   UNL     1      -7.667  11.574  20.934  0.00  0.00    +0.000 NA
ATOM     18  C   UNL     1      -7.631  10.655  19.774  0.00  0.00    +0.000 C 
ATOM     19  C   UNL     1      -7.241   9.238  20.211  0.00  0.00    +0.000 C 
ATOM     20  C   UNL     1      -6.715  11.165  18.627  0.00  0.00    +0.000 C 
ATOM     21  N   UNL     1      -5.353  11.457  19.107  0.00  0.00    +0.000 NA
ATOM     22  H   UNL     1      -8.138  12.431  20.650  0.00  0.00    +0.000 HD
BRANCH  15  23
ATOM     23  C   UNL     1      -5.793  13.912  19.826  0.00  0.00    +0.000 C 
BRANCH  23  25
ATOM     24  C   UNL     1      -6.045  15.653  21.416  0.00  0.00    +0.000 C 
ATOM     25  O   UNL     1      -6.608  14.472  20.862  0.00  0.00    +0.000 OA
ENDBRANCH  23  25
ENDBRANCH  15  23
ENDBRANCH  14  21
ENDBRANCH   1  14
BRANCH   5  26
ATOM     26  C   UNL     1      -0.383  13.896  20.842  0.00  0.00    +0.000 C 
BRANCH  26  27
ATOM     27  C   UNL     1      -1.396  13.292  21.804  0.00  0.00    +0.000 A 
ATOM     28  C   UNL     1      -2.542  14.002  22.191  0.00  0.00    +0.000 A 
ATOM     29  C   UNL     1      -3.415  13.490  23.156  0.00  0.00    +0.000 A 
ATOM     30  C   UNL     1      -3.171  12.242  23.722  0.00  0.00    +0.000 A 
ATOM     31  C   UNL     1      -2.066  11.503  23.313  0.00  0.00    +0.000 A 
ATOM     32  C   UNL     1      -1.184  12.022  22.358  0.00  0.00    +0.000 A 
ENDBRANCH  26  27
ENDBRANCH   5  26
TORSDOF 6
ENDMDL
MODEL 6
REMARK VINA RESULT:      -6.6      2.396      4.605
REMARK  Name = 
REMARK  9 active torsions:
REMARK  status: ('A' for Active; 'I' for Inactive)
REMARK    1  A    between atoms: C_1  and  O_2
REMARK    2  A    between atoms: O_2  and  C_3
REMARK    3  A    between atoms: C_3  and  C_4
REMARK    4  A    between atoms: C_7  and  C_8
REMARK    5  A    between atoms: N_10  and  C_11
REMARK    6  A    between atoms: C_11  and  C_12
REMARK    7  A    between atoms: C_16  and  C_17
REMARK    8  A    between atoms: C_16  and  C_18
REMARK    9  A    between atoms: C_18  and  C_19
REMARK                            x       y       z     vdW  Elec       q    Type
REMARK                         _______ _______ _______ _____ _____    ______ ____
ROOT
ATOM      1  C   UNL     1       0.843   9.225  18.364  0.00  0.00    +0.000 C 
ATOM      2  O   UNL     1       0.425   8.962  17.236  0.00  0.00    +0.000 OA
ATOM      3  N   UNL     1       0.206  10.112  19.238  0.00  0.00    +0.000 N 
ATOM      4  C   UNL     1       0.753  10.555  20.525  0.00  0.00    +0.000 C 
ATOM      5  C   UNL     1      -0.269  11.485  21.213  0.00  0.00    +0.000 C 
ATOM      6  C   UNL     1      -0.872  10.766  22.434  0.00  0.00    +0.000 C 
ATOM      7  C   UNL     1      -1.327  11.582  20.127  0.00  0.00    +0.000 A 
ATOM      8  C   UNL     1      -2.536  12.268  20.177  0.00  0.00    +0.000 A 
ATOM      9  C   UNL     1      -3.413  12.161  19.095  0.00  0.00    +0.000 A 
ATOM     10  C   UNL     1      -3.071  11.386  17.978  0.00  0.00    +0.000 A 
ATOM     11 CL   UNL     1      -4.172  11.278  16.659  0.00  0.00    +0.000 Cl
ATOM     12  C   UNL     1      -1.863  10.688  17.929  0.00  0.00    +0.000 A 
ATOM     13  C   UNL     1      -1.010  10.782  19.018  0.00  0.00    +0.000 A 
ENDROOT
BRANCH   1  14
ATOM     14  C   UNL     1       2.140   8.599  18.932  0.00  0.00    +0.000 C 
BRANCH  14  21
ATOM     15  C   UNL     1       2.763   6.523  17.761  0.00  0.00    +0.000 C 
ATOM     16  C   UNL     1       2.579   4.978  17.808  0.00  0.00    +0.000 C 
ATOM     17  N   UNL     1       3.087   4.339  19.042  0.00  0.00    +0.000 NA
ATOM     18  C   UNL     1       2.534   5.008  20.241  0.00  0.00    +0.000 C 
ATOM     19  C   UNL     1       1.069   4.610  20.462  0.00  0.00    +0.000 C 
ATOM     20  C   UNL     1       2.700   6.552  20.201  0.00  0.00    +0.000 C 
ATOM     21  N   UNL     1       2.133   7.130  18.970  0.00  0.00    +0.000 NA
ATOM     22  H   UNL     1       4.100   4.444  19.054  0.00  0.00    +0.000 HD
BRANCH  15  23
ATOM     23  C   UNL     1       4.257   6.880  17.500  0.00  0.00    +0.000 C 
BRANCH  23  25
ATOM     24  C   UNL     1       5.389   5.892  15.665  0.00  0.00    +0.000 C 
ATOM     25  O   UNL     1       4.946   5.725  17.005  0.00  0.00    +0.000 OA
ENDBRANCH  23  25
ENDBRANCH  15  23
ENDBRANCH  14  21
ENDBRANCH   1  14
BRANCH   5  26
ATOM     26  C   UNL     1       0.368  12.851  21.591  0.00  0.00    +0.000 C 
BRANCH  26  27
ATOM     27  C   UNL     1       1.319  13.425  20.550  0.00  0.00    +0.000 A 
ATOM     28  C   UNL     1       2.679  13.618  20.838  0.00  0.00    +0.000 A 
ATOM     29  C   UNL     1       3.527  14.243  19.920  0.00  0.00    +0.000 A 
ATOM     30  C   UNL     1       3.034  14.655  18.685  0.00  0.00    +0.000 A 
ATOM     31  C   UNL     1       1.699  14.427  18.364  0.00  0.00    +0.000 A 
ATOM     32  C   UNL     1       0.846  13.813  19.289  0.00  0.00    +0.000 A 
ENDBRANCH  26  27
ENDBRANCH   5  26
TORSDOF 6
ENDMDL
MODEL 7
REMARK VINA RESULT:      -6.6      8.079     10.761
REMARK  Name = 
REMARK  9 active torsions:
REMARK  status: ('A' for Active; 'I' for Inactive)
REMARK    1  A    between atoms: C_1  and  O_2
REMARK    2  A    between atoms: O_2  and  C_3
REMARK    3  A    between atoms: C_3  and  C_4
REMARK    4  A    between atoms: C_7  and  C_8
REMARK    5  A    between atoms: N_10  and  C_11
REMARK    6  A    between atoms: C_11  and  C_12
REMARK    7  A    between atoms: C_16  and  C_17
REMARK    8  A    between atoms: C_16  and  C_18
REMARK    9  A    between atoms: C_18  and  C_19
REMARK                            x       y       z     vdW  Elec       q    Type
REMARK                         _______ _______ _______ _____ _____    ______ ____
ROOT
ATOM      1  C   UNL     1       6.147  13.088  23.076  0.00  0.00    +0.000 C 
ATOM      2  O   UNL     1       4.961  13.176  22.754  0.00  0.00    +0.000 OA
ATOM      3  N   UNL     1       7.180  13.758  22.414  0.00  0.00    +0.000 N 
ATOM      4  C   UNL     1       8.610  13.561  22.679  0.00  0.00    +0.000 C 
ATOM      5  C   UNL     1       9.424  14.521  21.786  0.00  0.00    +0.000 C 
ATOM      6  C   UNL     1      10.059  15.618  22.660  0.00  0.00    +0.000 C 
ATOM      7  C   UNL     1       8.310  15.136  20.956  0.00  0.00    +0.000 A 
ATOM      8  C   UNL     1       8.422  16.120  19.980  0.00  0.00    +0.000 A 
ATOM      9  C   UNL     1       7.256  16.615  19.388  0.00  0.00    +0.000 A 
ATOM     10  C   UNL     1       6.003  16.114  19.766  0.00  0.00    +0.000 A 
ATOM     11 CL   UNL     1       4.585  16.741  19.016  0.00  0.00    +0.000 Cl
ATOM     12  C   UNL     1       5.886  15.135  20.754  0.00  0.00    +0.000 A 
ATOM     13  C   UNL     1       7.047  14.668  21.350  0.00  0.00    +0.000 A 
ENDROOT
BRANCH   1  14
ATOM     14  C   UNL     1       6.620  12.203  24.255  0.00  0.00    +0.000 C 
BRANCH  14  21
ATOM     15  C   UNL     1       5.314  12.328  26.340  0.00  0.00    +0.000 C 
ATOM     16  C   UNL     1       5.160  13.154  27.651  0.00  0.00    +0.000 C 
ATOM     17  N   UNL     1       6.370  13.183  28.502  0.00  0.00    +0.000 NA
ATOM     18  C   UNL     1       7.552  13.597  27.713  0.00  0.00    +0.000 C 
ATOM     19  C   UNL     1       7.527  15.106  27.441  0.00  0.00    +0.000 C 
ATOM     20  C   UNL     1       7.712  12.788  26.395  0.00  0.00    +0.000 C 
ATOM     21  N   UNL     1       6.490  12.838  25.574  0.00  0.00    +0.000 NA
ATOM     22  H   UNL     1       6.530  12.239  28.850  0.00  0.00    +0.000 HD
BRANCH  15  23
ATOM     23  C   UNL     1       5.299  10.803  26.660  0.00  0.00    +0.000 C 
BRANCH  23  25
ATOM     24  C   UNL     1       6.092   9.612  28.550  0.00  0.00    +0.000 C 
ATOM     25  O   UNL     1       5.200  10.611  28.076  0.00  0.00    +0.000 OA
ENDBRANCH  23  25
ENDBRANCH  15  23
ENDBRANCH  14  21
ENDBRANCH   1  14
BRANCH   5  26
ATOM     26  C   UNL     1      10.482  13.755  20.944  0.00  0.00    +0.000 C 
BRANCH  26  27
ATOM     27  C   UNL     1       9.919  12.667  20.042  0.00  0.00    +0.000 A 
ATOM     28  C   UNL     1       9.801  11.342  20.490  0.00  0.00    +0.000 A 
ATOM     29  C   UNL     1       9.384  10.325  19.627  0.00  0.00    +0.000 A 
ATOM     30  C   UNL     1       9.045  10.625  18.310  0.00  0.00    +0.000 A 
ATOM     31  C   UNL     1       9.110  11.940  17.863  0.00  0.00    +0.000 A 
ATOM     32  C   UNL     1       9.541  12.957  18.724  0.00  0.00    +0.000 A 
ENDBRANCH  26  27
ENDBRANCH   5  26
TORSDOF 6
ENDMDL
MODEL 8
REMARK VINA RESULT:      -6.6      7.430     11.480
REMARK  Name = 
REMARK  9 active torsions:
REMARK  status: ('A' for Active; 'I' for Inactive)
REMARK    1  A    between atoms: C_1  and  O_2
REMARK    2  A    between atoms: O_2  and  C_3
REMARK    3  A    between atoms: C_3  and  C_4
REMARK    4  A    between atoms: C_7  and  C_8
REMARK    5  A    between atoms: N_10  and  C_11
REMARK    6  A    between atoms: C_11  and  C_12
REMARK    7  A    between atoms: C_16  and  C_17
REMARK    8  A    between atoms: C_16  and  C_18
REMARK    9  A    between atoms: C_18  and  C_19
REMARK                            x       y       z     vdW  Elec       q    Type
REMARK                         _______ _______ _______ _____ _____    ______ ____
ROOT
ATOM      1  C   UNL     1       6.654  16.297  19.616  0.00  0.00    +0.000 C 
ATOM      2  O   UNL     1       6.657  17.001  18.606  0.00  0.00    +0.000 OA
ATOM      3  N   UNL     1       7.813  15.774  20.198  0.00  0.00    +0.000 N 
ATOM      4  C   UNL     1       7.832  14.818  21.311  0.00  0.00    +0.000 C 
ATOM      5  C   UNL     1       9.297  14.528  21.700  0.00  0.00    +0.000 C 
ATOM      6  C   UNL     1       9.597  15.162  23.071  0.00  0.00    +0.000 C 
ATOM      7  C   UNL     1      10.028  15.313  20.624  0.00  0.00    +0.000 A 
ATOM      8  C   UNL     1      11.402  15.466  20.470  0.00  0.00    +0.000 A 
ATOM      9  C   UNL     1      11.873  16.306  19.457  0.00  0.00    +0.000 A 
ATOM     10  C   UNL     1      10.975  16.966  18.608  0.00  0.00    +0.000 A 
ATOM     11 CL   UNL     1      11.588  17.990  17.366  0.00  0.00    +0.000 Cl
ATOM     12  C   UNL     1       9.596  16.822  18.767  0.00  0.00    +0.000 A 
ATOM     13  C   UNL     1       9.138  16.006  19.790  0.00  0.00    +0.000 A 
ENDROOT
BRANCH   1  14
ATOM     14  C   UNL     1       5.347  15.904  20.347  0.00  0.00    +0.000 C 
BRANCH  14  21
ATOM     15  C   UNL     1       3.484  14.481  19.591  0.00  0.00    +0.000 C 
ATOM     16  C   UNL     1       2.352  14.395  18.524  0.00  0.00    +0.000 C 
ATOM     17  N   UNL     1       1.377  15.505  18.575  0.00  0.00    +0.000 NA
ATOM     18  C   UNL     1       2.073  16.811  18.551  0.00  0.00    +0.000 C 
ATOM     19  C   UNL     1       2.587  17.131  17.141  0.00  0.00    +0.000 C 
ATOM     20  C   UNL     1       3.213  16.908  19.603  0.00  0.00    +0.000 C 
ATOM     21  N   UNL     1       4.174  15.799  19.468  0.00  0.00    +0.000 NA
ATOM     22  H   UNL     1       0.864  15.431  19.452  0.00  0.00    +0.000 HD
BRANCH  15  23
ATOM     23  C   UNL     1       2.925  14.115  20.999  0.00  0.00    +0.000 C 
BRANCH  23  25
ATOM     24  C   UNL     1       0.764  14.447  21.917  0.00  0.00    +0.000 C 
ATOM     25  O   UNL     1       1.528  13.817  20.898  0.00  0.00    +0.000 OA
ENDBRANCH  23  25
ENDBRANCH  15  23
ENDBRANCH  14  21
ENDBRANCH   1  14
BRANCH   5  26
ATOM     26  C   UNL     1       9.602  13.004  21.680  0.00  0.00    +0.000 C 
BRANCH  26  27
ATOM     27  C   UNL     1      10.108  12.470  20.347  0.00  0.00    +0.000 A 
ATOM     28  C   UNL     1      11.449  12.094  20.179  0.00  0.00    +0.000 A 
ATOM     29  C   UNL     1      11.936  11.706  18.927  0.00  0.00    +0.000 A 
ATOM     30  C   UNL     1      11.078  11.654  17.832  0.00  0.00    +0.000 A 
ATOM     31  C   UNL     1       9.734  11.976  17.993  0.00  0.00    +0.000 A 
ATOM     32  C   UNL     1       9.250  12.379  19.243  0.00  0.00    +0.000 A 
ENDBRANCH  26  27
ENDBRANCH   5  26
TORSDOF 6
ENDMDL
MODEL 9
REMARK VINA RESULT:      -6.6      1.022      2.122
REMARK  Name = 
REMARK  9 active torsions:
REMARK  status: ('A' for Active; 'I' for Inactive)
REMARK    1  A    between atoms: C_1  and  O_2
REMARK    2  A    between atoms: O_2  and  C_3
REMARK    3  A    between atoms: C_3  and  C_4
REMARK    4  A    between atoms: C_7  and  C_8
REMARK    5  A    between atoms: N_10  and  C_11
REMARK    6  A    between atoms: C_11  and  C_12
REMARK    7  A    between atoms: C_16  and  C_17
REMARK    8  A    between atoms: C_16  and  C_18
REMARK    9  A    between atoms: C_18  and  C_19
REMARK                            x       y       z     vdW  Elec       q    Type
REMARK                         _______ _______ _______ _____ _____    ______ ____
ROOT
ATOM      1  C   UNL     1       2.152   7.854  19.100  0.00  0.00    +0.000 C 
ATOM      2  O   UNL     1       1.948   6.997  19.961  0.00  0.00    +0.000 OA
ATOM      3  N   UNL     1       1.671   9.164  19.183  0.00  0.00    +0.000 N 
ATOM      4  C   UNL     1       1.773  10.161  18.113  0.00  0.00    +0.000 C 
ATOM      5  C   UNL     1       1.177  11.495  18.610  0.00  0.00    +0.000 C 
ATOM      6  C   UNL     1       2.311  12.519  18.808  0.00  0.00    +0.000 C 
ATOM      7  C   UNL     1       0.653  11.073  19.972  0.00  0.00    +0.000 A 
ATOM      8  C   UNL     1       0.031  11.869  20.927  0.00  0.00    +0.000 A 
ATOM      9  C   UNL     1      -0.302  11.300  22.160  0.00  0.00    +0.000 A 
ATOM     10  C   UNL     1      -0.024   9.951  22.417  0.00  0.00    +0.000 A 
ATOM     11 CL   UNL     1      -0.450   9.280  23.945  0.00  0.00    +0.000 Cl
ATOM     12  C   UNL     1       0.611   9.153  21.464  0.00  0.00    +0.000 A 
ATOM     13  C   UNL     1       0.958   9.732  20.253  0.00  0.00    +0.000 A 
ENDROOT
BRANCH   1  14
ATOM     14  C   UNL     1       2.962   7.557  17.815  0.00  0.00    +0.000 C 
BRANCH  14  21
ATOM     15  C   UNL     1       4.633   6.092  16.752  0.00  0.00    +0.000 C 
ATOM     16  C   UNL     1       5.089   4.605  16.659  0.00  0.00    +0.000 C 
ATOM     17  N   UNL     1       5.506   4.012  17.948  0.00  0.00    +0.000 NA
ATOM     18  C   UNL     1       4.462   4.216  18.977  0.00  0.00    +0.000 C 
ATOM     19  C   UNL     1       3.279   3.266  18.753  0.00  0.00    +0.000 C 
ATOM     20  C   UNL     1       3.989   5.693  19.073  0.00  0.00    +0.000 C 
ATOM     21  N   UNL     1       3.545   6.209  17.767  0.00  0.00    +0.000 NA
ATOM     22  H   UNL     1       6.354   4.487  18.251  0.00  0.00    +0.000 HD
BRANCH  15  23
ATOM     23  C   UNL     1       5.869   7.022  16.944  0.00  0.00    +0.000 C 
BRANCH  23  25
ATOM     24  C   UNL     1       7.771   6.679  18.316  0.00  0.00    +0.000 C 
ATOM     25  O   UNL     1       7.034   6.227  17.188  0.00  0.00    +0.000 OA
ENDBRANCH  23  25
ENDBRANCH  15  23
ENDBRANCH  14  21
ENDBRANCH   1  14
BRANCH   5  26
ATOM     26  C   UNL     1       0.074  12.020  17.650  0.00  0.00    +0.000 C 
BRANCH  26  27
ATOM     27  C   UNL     1      -1.295  11.382  17.837  0.00  0.00    +0.000 A 
ATOM     28  C   UNL     1      -1.575  10.104  17.329  0.00  0.00    +0.000 A 
ATOM     29  C   UNL     1      -2.862   9.564  17.408  0.00  0.00    +0.000 A 
ATOM     30  C   UNL     1      -3.881  10.282  18.027  0.00  0.00    +0.000 A 
ATOM     31  C   UNL     1      -3.609  11.530  18.579  0.00  0.00    +0.000 A 
ATOM     32  C   UNL     1      -2.323  12.076  18.487  0.00  0.00    +0.000 A 
ENDBRANCH  26  27
ENDBRANCH   5  26
TORSDOF 6
ENDMDL
