MODEL 1
REMARK VINA RESULT:      -8.0      0.000      0.000
REMARK  Name = 
REMARK  5 active torsions:
REMARK  status: ('A' for Active; 'I' for Inactive)
REMARK    1  A    between atoms: C_1  and  N_2
REMARK    2  A    between atoms: C_5  and  C_6
REMARK    3  A    between atoms: C_6  and  C_7
REMARK    4  A    between atoms: C_7  and  N_8
REMARK    5  A    between atoms: C_14  and  N_15
REMARK                            x       y       z     vdW  Elec       q    Type
REMARK                         _______ _______ _______ _____ _____    ______ ____
ROOT
ATOM      1  N   UNL     1       7.118   6.712  18.163  0.00  0.00    +0.000 N 
ATOM      2  C   UNL     1       6.256   6.567  17.112  0.00  0.00    +0.000 C 
ATOM      3  O   UNL     1       6.174   7.174  16.064  0.00  0.00    +0.000 OA
ATOM      4  C   UNL     1       5.384   5.449  17.443  0.00  0.00    +0.000 A 
ATOM      5  C   UNL     1       4.334   4.916  16.725  0.00  0.00    +0.000 A 
ATOM      6  C   UNL     1       3.684   3.809  17.276  0.00  0.00    +0.000 A 
ATOM      7  C   UNL     1       4.109   3.277  18.521  0.00  0.00    +0.000 A 
ATOM      8  C   UNL     1       5.182   3.839  19.234  0.00  0.00    +0.000 A 
ATOM      9  C   UNL     1       5.797   4.931  18.658  0.00  0.00    +0.000 A 
ATOM     10  C   UNL     1       6.938   5.730  19.107  0.00  0.00    +0.000 C 
ATOM     11  O   UNL     1       7.573   5.493  20.107  0.00  0.00    +0.000 OA
ENDROOT
BRANCH   7  12
ATOM     12  N   UNL     1       3.408   2.111  19.073  0.00  0.00    +0.000 N 
ATOM     13  O   UNL     1       2.609   2.310  20.000  0.00  0.00    +0.000 OA
ATOM     14  O   UNL     1       3.660   1.004  18.583  0.00  0.00    +0.000 OA
ENDBRANCH   7  12
BRANCH   1  15
ATOM     15  C   UNL     1       8.227   7.648  18.207  0.00  0.00    +0.000 C 
BRANCH  15  16
ATOM     16  C   UNL     1       7.826   9.105  17.949  0.00  0.00    +0.000 C 
BRANCH  16  21
ATOM     17  C   UNL     1      11.009  13.567  19.674  0.00  0.00    +0.000 C 
ATOM     18  N   UNL     1       9.967  12.572  19.419  0.00  0.00    +0.000 NA
ATOM     19  C   UNL     1       9.663  12.516  17.985  0.00  0.00    +0.000 C 
ATOM     20  C   UNL     1       8.573  11.492  17.692  0.00  0.00    +0.000 C 
ATOM     21  C   UNL     1       8.963  10.101  18.210  0.00  0.00    +0.000 C 
ATOM     22  C   UNL     1       9.315  10.198  19.699  0.00  0.00    +0.000 C 
ATOM     23  C   UNL     1      10.386  11.263  19.936  0.00  0.00    +0.000 C 
ENDBRANCH  16  21
ENDBRANCH  15  16
ENDBRANCH   1  15
TORSDOF 4
ENDMDL
MODEL 2
REMARK VINA RESULT:      -7.9      1.079      2.188
REMARK  Name = 
REMARK  5 active torsions:
REMARK  status: ('A' for Active; 'I' for Inactive)
REMARK    1  A    between atoms: C_1  and  N_2
REMARK    2  A    between atoms: C_5  and  C_6
REMARK    3  A    between atoms: C_6  and  C_7
REMARK    4  A    between atoms: C_7  and  N_8
REMARK    5  A    between atoms: C_14  and  N_15
REMARK                            x       y       z     vdW  Elec       q    Type
REMARK                         _______ _______ _______ _____ _____    ______ ____
ROOT
ATOM      1  N   UNL     1       7.144   6.539  18.070  0.00  0.00    +0.000 N 
ATOM      2  C   UNL     1       6.970   5.702  19.136  0.00  0.00    +0.000 C 
ATOM      3  O   UNL     1       7.630   5.554  20.144  0.00  0.00    +0.000 OA
ATOM      4  C   UNL     1       5.740   4.963  18.886  0.00  0.00    +0.000 A 
ATOM      5  C   UNL     1       5.138   3.983  19.646  0.00  0.00    +0.000 A 
ATOM      6  C   UNL     1       3.932   3.463  19.173  0.00  0.00    +0.000 A 
ATOM      7  C   UNL     1       3.372   3.943  17.961  0.00  0.00    +0.000 A 
ATOM      8  C   UNL     1       4.005   4.943  17.203  0.00  0.00    +0.000 A 
ATOM      9  C   UNL     1       5.195   5.430  17.702  0.00  0.00    +0.000 A 
ATOM     10  C   UNL     1       6.089   6.471  17.192  0.00  0.00    +0.000 C 
ATOM     11  O   UNL     1       5.862   7.126  16.204  0.00  0.00    +0.000 OA
ENDROOT
BRANCH   7  12
ATOM     12  N   UNL     1       2.100   3.379  17.491  0.00  0.00    +0.000 N 
ATOM     13  O   UNL     1       2.042   2.151  17.336  0.00  0.00    +0.000 OA
ATOM     14  O   UNL     1       1.169   4.164  17.277  0.00  0.00    +0.000 OA
ENDBRANCH   7  12
BRANCH   1  15
ATOM     15  C   UNL     1       8.195   7.534  17.955  0.00  0.00    +0.000 C 
BRANCH  15  16
ATOM     16  C   UNL     1       7.686   8.979  17.911  0.00  0.00    +0.000 C 
BRANCH  16  21
ATOM     17  C   UNL     1      10.816  13.549  19.441  0.00  0.00    +0.000 C 
ATOM     18  N   UNL     1       9.798  12.515  19.256  0.00  0.00    +0.000 NA
ATOM     19  C   UNL     1       9.379  12.464  17.851  0.00  0.00    +0.000 C 
ATOM     20  C   UNL     1       8.312  11.398  17.632  0.00  0.00    +0.000 C 
ATOM     21  C   UNL     1       8.799  10.019  18.094  0.00  0.00    +0.000 C 
ATOM     22  C   UNL     1       9.269  10.112  19.551  0.00  0.00    +0.000 C 
ATOM     23  C   UNL     1      10.312  11.218  19.716  0.00  0.00    +0.000 C 
ENDBRANCH  16  21
ENDBRANCH  15  16
ENDBRANCH   1  15
TORSDOF 4
ENDMDL
MODEL 3
REMARK VINA RESULT:      -7.8      4.623      6.469
REMARK  Name = 
REMARK  5 active torsions:
REMARK  status: ('A' for Active; 'I' for Inactive)
REMARK    1  A    between atoms: C_1  and  N_2
REMARK    2  A    between atoms: C_5  and  C_6
REMARK    3  A    between atoms: C_6  and  C_7
REMARK    4  A    between atoms: C_7  and  N_8
REMARK    5  A    between atoms: C_14  and  N_15
REMARK                            x       y       z     vdW  Elec       q    Type
REMARK                         _______ _______ _______ _____ _____    ______ ____
ROOT
ATOM      1  N   UNL     1       4.249   4.435  18.746  0.00  0.00    +0.000 N 
ATOM      2  C   UNL     1       5.517   4.945  18.743  0.00  0.00    +0.000 C 
ATOM      3  O   UNL     1       6.201   5.375  19.649  0.00  0.00    +0.000 OA
ATOM      4  C   UNL     1       5.994   4.861  17.370  0.00  0.00    +0.000 A 
ATOM      5  C   UNL     1       7.200   5.265  16.836  0.00  0.00    +0.000 A 
ATOM      6  C   UNL     1       7.402   5.031  15.474  0.00  0.00    +0.000 A 
ATOM      7  C   UNL     1       6.394   4.403  14.699  0.00  0.00    +0.000 A 
ATOM      8  C   UNL     1       5.172   4.001  15.266  0.00  0.00    +0.000 A 
ATOM      9  C   UNL     1       5.010   4.250  16.613  0.00  0.00    +0.000 A 
ATOM     10  C   UNL     1       3.895   3.947  17.511  0.00  0.00    +0.000 C 
ATOM     11  O   UNL     1       2.901   3.350  17.172  0.00  0.00    +0.000 OA
ENDROOT
BRANCH   7  12
ATOM     12  N   UNL     1       6.637   4.167  13.270  0.00  0.00    +0.000 N 
ATOM     13  O   UNL     1       7.516   4.847  12.720  0.00  0.00    +0.000 OA
ATOM     14  O   UNL     1       5.948   3.310  12.704  0.00  0.00    +0.000 OA
ENDBRANCH   7  12
BRANCH   1  15
ATOM     15  C   UNL     1       3.436   4.233  19.931  0.00  0.00    +0.000 C 
BRANCH  15  16
ATOM     16  C   UNL     1       2.116   5.015  19.925  0.00  0.00    +0.000 C 
BRANCH  16  21
ATOM     17  C   UNL     1       1.458  10.604  18.765  0.00  0.00    +0.000 C 
ATOM     18  N   UNL     1       1.313   9.162  18.963  0.00  0.00    +0.000 NA
ATOM     19  C   UNL     1       2.269   8.438  18.117  0.00  0.00    +0.000 C 
ATOM     20  C   UNL     1       2.134   6.931  18.297  0.00  0.00    +0.000 C 
ATOM     21  C   UNL     1       2.311   6.528  19.767  0.00  0.00    +0.000 C 
ATOM     22  C   UNL     1       1.329   7.330  20.631  0.00  0.00    +0.000 C 
ATOM     23  C   UNL     1       1.487   8.831  20.382  0.00  0.00    +0.000 C 
ENDBRANCH  16  21
ENDBRANCH  15  16
ENDBRANCH   1  15
TORSDOF 4
ENDMDL
MODEL 4
REMARK VINA RESULT:      -7.5      5.827      7.347
REMARK  Name = 
REMARK  5 active torsions:
REMARK  status: ('A' for Active; 'I' for Inactive)
REMARK    1  A    between atoms: C_1  and  N_2
REMARK    2  A    between atoms: C_5  and  C_6
REMARK    3  A    between atoms: C_6  and  C_7
REMARK    4  A    between atoms: C_7  and  N_8
REMARK    5  A    between atoms: C_14  and  N_15
REMARK                            x       y       z     vdW  Elec       q    Type
REMARK                         _______ _______ _______ _____ _____    ______ ____
ROOT
ATOM      1  N   UNL     1       2.218   6.648  19.841  0.00  0.00    +0.000 N 
ATOM      2  C   UNL     1       2.823   5.449  20.090  0.00  0.00    +0.000 C 
ATOM      3  O   UNL     1       2.628   4.628  20.963  0.00  0.00    +0.000 OA
ATOM      4  C   UNL     1       3.810   5.256  19.036  0.00  0.00    +0.000 A 
ATOM      5  C   UNL     1       4.697   4.217  18.847  0.00  0.00    +0.000 A 
ATOM      6  C   UNL     1       5.517   4.279  17.719  0.00  0.00    +0.000 A 
ATOM      7  C   UNL     1       5.421   5.375  16.823  0.00  0.00    +0.000 A 
ATOM      8  C   UNL     1       4.509   6.423  17.039  0.00  0.00    +0.000 A 
ATOM      9  C   UNL     1       3.717   6.326  18.164  0.00  0.00    +0.000 A 
ATOM     10  C   UNL     1       2.666   7.210  18.669  0.00  0.00    +0.000 C 
ATOM     11  O   UNL     1       2.291   8.205  18.096  0.00  0.00    +0.000 OA
ENDROOT
BRANCH   7  12
ATOM     12  N   UNL     1       6.295   5.411  15.644  0.00  0.00    +0.000 N 
ATOM     13  O   UNL     1       7.454   5.821  15.804  0.00  0.00    +0.000 OA
ATOM     14  O   UNL     1       5.821   5.033  14.566  0.00  0.00    +0.000 OA
ENDBRANCH   7  12
BRANCH   1  15
ATOM     15  C   UNL     1       1.097   7.187  20.590  0.00  0.00    +0.000 C 
BRANCH  15  16
ATOM     16  C   UNL     1       1.476   8.314  21.558  0.00  0.00    +0.000 C 
BRANCH  16  21
ATOM     17  C   UNL     1      -1.552  13.007  22.910  0.00  0.00    +0.000 C 
ATOM     18  N   UNL     1      -0.558  11.944  22.766  0.00  0.00    +0.000 NA
ATOM     19  C   UNL     1      -1.116  10.665  23.220  0.00  0.00    +0.000 C 
ATOM     20  C   UNL     1      -0.098   9.540  23.088  0.00  0.00    +0.000 C 
ATOM     21  C   UNL     1       0.414   9.417  21.647  0.00  0.00    +0.000 C 
ATOM     22  C   UNL     1       0.954  10.777  21.187  0.00  0.00    +0.000 C 
ATOM     23  C   UNL     1      -0.099  11.871  21.374  0.00  0.00    +0.000 C 
ENDBRANCH  16  21
ENDBRANCH  15  16
ENDBRANCH   1  15
TORSDOF 4
ENDMDL
MODEL 5
REMARK VINA RESULT:      -7.5      5.766      7.145
REMARK  Name = 
REMARK  5 active torsions:
REMARK  status: ('A' for Active; 'I' for Inactive)
REMARK    1  A    between atoms: C_1  and  N_2
REMARK    2  A    between atoms: C_5  and  C_6
REMARK    3  A    between atoms: C_6  and  C_7
REMARK    4  A    between atoms: C_7  and  N_8
REMARK    5  A    between atoms: C_14  and  N_15
REMARK                            x       y       z     vdW  Elec       q    Type
REMARK                         _______ _______ _______ _____ _____    ______ ____
ROOT
ATOM      1  N   UNL     1       2.338   6.556  19.526  0.00  0.00    +0.000 N 
ATOM      2  C   UNL     1       2.623   7.375  18.470  0.00  0.00    +0.000 C 
ATOM      3  O   UNL     1       2.130   8.431  18.130  0.00  0.00    +0.000 OA
ATOM      4  C   UNL     1       3.734   6.761  17.757  0.00  0.00    +0.000 A 
ATOM      5  C   UNL     1       4.377   7.180  16.611  0.00  0.00    +0.000 A 
ATOM      6  C   UNL     1       5.445   6.401  16.161  0.00  0.00    +0.000 A 
ATOM      7  C   UNL     1       5.831   5.236  16.872  0.00  0.00    +0.000 A 
ATOM      8  C   UNL     1       5.159   4.829  18.038  0.00  0.00    +0.000 A 
ATOM      9  C   UNL     1       4.109   5.623  18.449  0.00  0.00    +0.000 A 
ATOM     10  C   UNL     1       3.225   5.509  19.610  0.00  0.00    +0.000 C 
ATOM     11  O   UNL     1       3.334   4.655  20.457  0.00  0.00    +0.000 OA
ENDROOT
BRANCH   7  12
ATOM     12  N   UNL     1       6.960   4.439  16.375  0.00  0.00    +0.000 N 
ATOM     13  O   UNL     1       7.961   4.353  17.100  0.00  0.00    +0.000 OA
ATOM     14  O   UNL     1       6.843   3.908  15.264  0.00  0.00    +0.000 OA
ENDBRANCH   7  12
BRANCH   1  15
ATOM     15  C   UNL     1       1.362   6.841  20.561  0.00  0.00    +0.000 C 
BRANCH  15  16
ATOM     16  C   UNL     1       1.636   8.132  21.342  0.00  0.00    +0.000 C 
BRANCH  16  21
ATOM     17  C   UNL     1      -2.022  12.402  22.525  0.00  0.00    +0.000 C 
ATOM     18  N   UNL     1      -0.864  11.534  22.315  0.00  0.00    +0.000 NA
ATOM     19  C   UNL     1      -0.959  10.348  23.175  0.00  0.00    +0.000 C 
ATOM     20  C   UNL     1       0.240   9.429  22.982  0.00  0.00    +0.000 C 
ATOM     21  C   UNL     1       0.392   9.012  21.513  0.00  0.00    +0.000 C 
ATOM     22  C   UNL     1       0.447  10.269  20.636  0.00  0.00    +0.000 C 
ATOM     23  C   UNL     1      -0.762  11.167  20.897  0.00  0.00    +0.000 C 
ENDBRANCH  16  21
ENDBRANCH  15  16
ENDBRANCH   1  15
TORSDOF 4
ENDMDL
MODEL 6
REMARK VINA RESULT:      -7.4      4.719      6.483
REMARK  Name = 
REMARK  5 active torsions:
REMARK  status: ('A' for Active; 'I' for Inactive)
REMARK    1  A    between atoms: C_1  and  N_2
REMARK    2  A    between atoms: C_5  and  C_6
REMARK    3  A    between atoms: C_6  and  C_7
REMARK    4  A    between atoms: C_7  and  N_8
REMARK    5  A    between atoms: C_14  and  N_15
REMARK                            x       y       z     vdW  Elec       q    Type
REMARK                         _______ _______ _______ _____ _____    ______ ____
ROOT
ATOM      1  N   UNL     1       4.863   4.533  18.280  0.00  0.00    +0.000 N 
ATOM      2  C   UNL     1       4.304   3.803  17.269  0.00  0.00    +0.000 C 
ATOM      3  O   UNL     1       3.312   3.103  17.250  0.00  0.00    +0.000 OA
ATOM      4  C   UNL     1       5.127   4.031  16.089  0.00  0.00    +0.000 A 
ATOM      5  C   UNL     1       5.001   3.508  14.819  0.00  0.00    +0.000 A 
ATOM      6  C   UNL     1       5.926   3.931  13.863  0.00  0.00    +0.000 A 
ATOM      7  C   UNL     1       6.940   4.860  14.210  0.00  0.00    +0.000 A 
ATOM      8  C   UNL     1       7.047   5.380  15.512  0.00  0.00    +0.000 A 
ATOM      9  C   UNL     1       6.117   4.937  16.428  0.00  0.00    +0.000 A 
ATOM     10  C   UNL     1       5.926   5.284  17.837  0.00  0.00    +0.000 C 
ATOM     11  O   UNL     1       6.589   6.105  18.423  0.00  0.00    +0.000 OA
ENDROOT
BRANCH   7  12
ATOM     12  N   UNL     1       7.896   5.288  13.181  0.00  0.00    +0.000 N 
ATOM     13  O   UNL     1       8.843   6.002  13.542  0.00  0.00    +0.000 OA
ATOM     14  O   UNL     1       7.695   4.914  12.019  0.00  0.00    +0.000 OA
ENDBRANCH   7  12
BRANCH   1  15
ATOM     15  C   UNL     1       4.304   4.676  19.611  0.00  0.00    +0.000 C 
BRANCH  15  16
ATOM     16  C   UNL     1       2.855   5.178  19.630  0.00  0.00    +0.000 C 
BRANCH  16  21
ATOM     17  C   UNL     1       1.075  10.570  18.748  0.00  0.00    +0.000 C 
ATOM     18  N   UNL     1       1.224   9.121  18.879  0.00  0.00    +0.000 NA
ATOM     19  C   UNL     1       2.281   8.638  17.984  0.00  0.00    +0.000 C 
ATOM     20  C   UNL     1       2.452   7.128  18.095  0.00  0.00    +0.000 C 
ATOM     21  C   UNL     1       2.742   6.705  19.541  0.00  0.00    +0.000 C 
ATOM     22  C   UNL     1       1.644   7.258  20.458  0.00  0.00    +0.000 C 
ATOM     23  C   UNL     1       1.496   8.769  20.278  0.00  0.00    +0.000 C 
ENDBRANCH  16  21
ENDBRANCH  15  16
ENDBRANCH   1  15
TORSDOF 4
ENDMDL
MODEL 7
REMARK VINA RESULT:      -7.4      5.847      7.311
REMARK  Name = 
REMARK  5 active torsions:
REMARK  status: ('A' for Active; 'I' for Inactive)
REMARK    1  A    between atoms: C_1  and  N_2
REMARK    2  A    between atoms: C_5  and  C_6
REMARK    3  A    between atoms: C_6  and  C_7
REMARK    4  A    between atoms: C_7  and  N_8
REMARK    5  A    between atoms: C_14  and  N_15
REMARK                            x       y       z     vdW  Elec       q    Type
REMARK                         _______ _______ _______ _____ _____    ______ ____
ROOT
ATOM      1  N   UNL     1       2.364   7.404  19.168  0.00  0.00    +0.000 N 
ATOM      2  C   UNL     1       2.750   6.145  19.533  0.00  0.00    +0.000 C 
ATOM      3  O   UNL     1       2.390   5.440  20.453  0.00  0.00    +0.000 OA
ATOM      4  C   UNL     1       3.728   5.710  18.546  0.00  0.00    +0.000 A 
ATOM      5  C   UNL     1       4.435   4.527  18.476  0.00  0.00    +0.000 A 
ATOM      6  C   UNL     1       5.294   4.364  17.388  0.00  0.00    +0.000 A 
ATOM      7  C   UNL     1       5.414   5.385  16.411  0.00  0.00    +0.000 A 
ATOM      8  C   UNL     1       4.683   6.582  16.504  0.00  0.00    +0.000 A 
ATOM      9  C   UNL     1       3.847   6.707  17.594  0.00  0.00    +0.000 A 
ATOM     10  C   UNL     1       2.940   7.789  17.981  0.00  0.00    +0.000 C 
ATOM     11  O   UNL     1       2.758   8.783  17.320  0.00  0.00    +0.000 OA
ENDROOT
BRANCH   7  12
ATOM     12  N   UNL     1       6.324   5.182  15.276  0.00  0.00    +0.000 N 
ATOM     13  O   UNL     1       5.906   4.512  14.321  0.00  0.00    +0.000 OA
ATOM     14  O   UNL     1       7.450   5.690  15.345  0.00  0.00    +0.000 OA
ENDBRANCH   7  12
BRANCH   1  15
ATOM     15  C   UNL     1       1.322   8.177  19.820  0.00  0.00    +0.000 C 
BRANCH  15  16
ATOM     16  C   UNL     1       1.464   8.256  21.345  0.00  0.00    +0.000 C 
BRANCH  16  21
ATOM     17  C   UNL     1      -1.833  12.791  22.601  0.00  0.00    +0.000 C 
ATOM     18  N   UNL     1      -1.244  11.555  22.086  0.00  0.00    +0.000 NA
ATOM     19  C   UNL     1       0.014  11.848  21.389  0.00  0.00    +0.000 C 
ATOM     20  C   UNL     1       0.646  10.578  20.834  0.00  0.00    +0.000 C 
ATOM     21  C   UNL     1       0.878   9.541  21.942  0.00  0.00    +0.000 C 
ATOM     22  C   UNL     1      -0.443   9.287  22.678  0.00  0.00    +0.000 C 
ATOM     23  C   UNL     1      -1.046  10.599  23.182  0.00  0.00    +0.000 C 
ENDBRANCH  16  21
ENDBRANCH  15  16
ENDBRANCH   1  15
TORSDOF 4
ENDMDL
MODEL 8
REMARK VINA RESULT:      -7.4      6.483      8.108
REMARK  Name = 
REMARK  5 active torsions:
REMARK  status: ('A' for Active; 'I' for Inactive)
REMARK    1  A    between atoms: C_1  and  N_2
REMARK    2  A    between atoms: C_5  and  C_6
REMARK    3  A    between atoms: C_6  and  C_7
REMARK    4  A    between atoms: C_7  and  N_8
REMARK    5  A    between atoms: C_14  and  N_15
REMARK                            x       y       z     vdW  Elec       q    Type
REMARK                         _______ _______ _______ _____ _____    ______ ____
ROOT
ATOM      1  N   UNL     1       1.580   8.704  19.426  0.00  0.00    +0.000 N 
ATOM      2  C   UNL     1       2.222   8.190  18.334  0.00  0.00    +0.000 C 
ATOM      3  O   UNL     1       2.537   8.708  17.283  0.00  0.00    +0.000 OA
ATOM      4  C   UNL     1       2.540   6.805  18.654  0.00  0.00    +0.000 A 
ATOM      5  C   UNL     1       3.165   5.850  17.880  0.00  0.00    +0.000 A 
ATOM      6  C   UNL     1       3.369   4.596  18.461  0.00  0.00    +0.000 A 
ATOM      7  C   UNL     1       2.944   4.346  19.791  0.00  0.00    +0.000 A 
ATOM      8  C   UNL     1       2.309   5.337  20.560  0.00  0.00    +0.000 A 
ATOM      9  C   UNL     1       2.124   6.561  19.951  0.00  0.00    +0.000 A 
ATOM     10  C   UNL     1       1.531   7.798  20.459  0.00  0.00    +0.000 C 
ATOM     11  O   UNL     1       1.129   7.937  21.589  0.00  0.00    +0.000 OA
ENDROOT
BRANCH   7  12
ATOM     12  N   UNL     1       3.175   3.019  20.375  0.00  0.00    +0.000 N 
ATOM     13  O   UNL     1       3.815   2.200  19.700  0.00  0.00    +0.000 OA
ATOM     14  O   UNL     1       2.715   2.799  21.502  0.00  0.00    +0.000 OA
ENDBRANCH   7  12
BRANCH   1  15
ATOM     15  C   UNL     1       1.175  10.089  19.578  0.00  0.00    +0.000 C 
BRANCH  15  16
ATOM     16  C   UNL     1       0.413  10.654  18.372  0.00  0.00    +0.000 C 
BRANCH  16  21
ATOM     17  C   UNL     1      -5.275  11.177  17.745  0.00  0.00    +0.000 C 
ATOM     18  N   UNL     1      -3.817  11.238  17.642  0.00  0.00    +0.000 NA
ATOM     19  C   UNL     1      -3.248  11.823  18.861  0.00  0.00    +0.000 C 
ATOM     20  C   UNL     1      -1.729  11.906  18.777  0.00  0.00    +0.000 C 
ATOM     21  C   UNL     1      -1.110  10.529  18.506  0.00  0.00    +0.000 C 
ATOM     22  C   UNL     1      -1.752   9.926  17.250  0.00  0.00    +0.000 C 
ATOM     23  C   UNL     1      -3.276   9.899  17.379  0.00  0.00    +0.000 C 
ENDBRANCH  16  21
ENDBRANCH  15  16
ENDBRANCH   1  15
TORSDOF 4
ENDMDL
MODEL 9
REMARK VINA RESULT:      -7.4      4.546      7.348
REMARK  Name = 
REMARK  5 active torsions:
REMARK  status: ('A' for Active; 'I' for Inactive)
REMARK    1  A    between atoms: C_1  and  N_2
REMARK    2  A    between atoms: C_5  and  C_6
REMARK    3  A    between atoms: C_6  and  C_7
REMARK    4  A    between atoms: C_7  and  N_8
REMARK    5  A    between atoms: C_14  and  N_15
REMARK                            x       y       z     vdW  Elec       q    Type
REMARK                         _______ _______ _______ _____ _____    ______ ____
ROOT
ATOM      1  N   UNL     1       5.729   5.568  16.600  0.00  0.00    +0.000 N 
ATOM      2  C   UNL     1       6.843   5.772  15.836  0.00  0.00    +0.000 C 
ATOM      3  O   UNL     1       7.848   6.416  16.055  0.00  0.00    +0.000 OA
ATOM      4  C   UNL     1       6.654   5.002  14.614  0.00  0.00    +0.000 A 
ATOM      5  C   UNL     1       7.478   4.891  13.513  0.00  0.00    +0.000 A 
ATOM      6  C   UNL     1       7.053   4.048  12.485  0.00  0.00    +0.000 A 
ATOM      7  C   UNL     1       5.824   3.348  12.594  0.00  0.00    +0.000 A 
ATOM      8  C   UNL     1       5.001   3.479  13.727  0.00  0.00    +0.000 A 
ATOM      9  C   UNL     1       5.454   4.321  14.720  0.00  0.00    +0.000 A 
ATOM     10  C   UNL     1       4.872   4.664  16.018  0.00  0.00    +0.000 C 
ATOM     11  O   UNL     1       3.851   4.181  16.446  0.00  0.00    +0.000 OA
ENDROOT
BRANCH   7  12
ATOM     12  N   UNL     1       5.406   2.466  11.497  0.00  0.00    +0.000 N 
ATOM     13  O   UNL     1       6.203   1.592  11.130  0.00  0.00    +0.000 OA
ATOM     14  O   UNL     1       4.287   2.654  11.004  0.00  0.00    +0.000 OA
ENDBRANCH   7  12
BRANCH   1  15
ATOM     15  C   UNL     1       5.542   6.067  17.950  0.00  0.00    +0.000 C 
BRANCH  15  16
ATOM     16  C   UNL     1       6.016   5.104  19.045  0.00  0.00    +0.000 C 
BRANCH  16  21
ATOM     17  C   UNL     1       1.039   2.896  20.882  0.00  0.00    +0.000 C 
ATOM     18  N   UNL     1       2.173   3.415  20.118  0.00  0.00    +0.000 NA
ATOM     19  C   UNL     1       2.429   4.814  20.480  0.00  0.00    +0.000 C 
ATOM     20  C   UNL     1       3.602   5.382  19.692  0.00  0.00    +0.000 C 
ATOM     21  C   UNL     1       4.868   4.539  19.891  0.00  0.00    +0.000 C 
ATOM     22  C   UNL     1       4.560   3.077  19.544  0.00  0.00    +0.000 C 
ATOM     23  C   UNL     1       3.355   2.573  20.340  0.00  0.00    +0.000 C 
ENDBRANCH  16  21
ENDBRANCH  15  16
ENDBRANCH   1  15
TORSDOF 4
ENDMDL
