MODEL 1
REMARK VINA RESULT:      -8.9      0.000      0.000
REMARK  Name = 
REMARK  4 active torsions:
REMARK  status: ('A' for Active; 'I' for Inactive)
REMARK    1  A    between atoms: C_3  and  C_4
REMARK    2  A    between atoms: C_4  and  C_5
REMARK    3  A    between atoms: C_11  and  C_12
REMARK    4  A    between atoms: N_19  and  C_20
REMARK                            x       y       z     vdW  Elec       q    Type
REMARK                         _______ _______ _______ _____ _____    ______ ____
ROOT
ATOM      1  O   UNL     1       2.361   3.532  16.455  0.00  0.00    +0.000 OA
ATOM      2  C   UNL     1       3.328   3.865  17.113  0.00  0.00    +0.000 C 
ATOM      3  C   UNL     1       4.609   4.447  16.581  0.00  0.00    +0.000 C 
ATOM      4  C   UNL     1       5.235   4.935  17.876  0.00  0.00    +0.000 C 
ATOM      5  N   UNL     1       4.579   4.573  18.940  0.00  0.00    +0.000 NA
ATOM      6  N   UNL     1       3.405   3.975  18.525  0.00  0.00    +0.000 N 
ENDROOT
BRANCH   4   7
ATOM      7  C   UNL     1       6.350   5.912  17.932  0.00  0.00    +0.000 A 
ATOM      8  C   UNL     1       6.292   7.111  17.215  0.00  0.00    +0.000 A 
ATOM      9  C   UNL     1       7.244   8.111  17.436  0.00  0.00    +0.000 A 
ATOM     10  C   UNL     1       8.261   7.919  18.370  0.00  0.00    +0.000 A 
ATOM     11  C   UNL     1       8.339   6.720  19.077  0.00  0.00    +0.000 A 
ATOM     12  C   UNL     1       7.387   5.720  18.860  0.00  0.00    +0.000 A 
ENDBRANCH   4   7
BRANCH   6  13
ATOM     13  C   UNL     1       2.157   4.373  19.181  0.00  0.00    +0.000 C 
ATOM     14  C   UNL     1       0.990   3.379  19.099  0.00  0.00    +0.000 C 
ATOM     15  C   UNL     1       0.976   2.271  20.153  0.00  0.00    +0.000 C 
ATOM     16  C   UNL     1       1.330   2.748  21.560  0.00  0.00    +0.000 C 
ATOM     17  C   UNL     1       2.599   3.583  21.575  0.00  0.00    +0.000 C 
ATOM     18  C   UNL     1       2.452   4.782  20.642  0.00  0.00    +0.000 C 
ENDBRANCH   6  13
BRANCH   3  19
ATOM     19  C   UNL     1       5.439   3.400  15.853  0.00  0.00    +0.000 C 
BRANCH  19  20
ATOM     20  C   UNL     1       6.112   3.876  14.582  0.00  0.00    +0.000 A 
ATOM     21  C   UNL     1       7.139   4.830  14.594  0.00  0.00    +0.000 A 
ATOM     22  C   UNL     1       7.776   5.206  13.405  0.00  0.00    +0.000 A 
ATOM     23  C   UNL     1       7.402   4.623  12.195  0.00  0.00    +0.000 A 
ATOM     24  C   UNL     1       6.366   3.696  12.166  0.00  0.00    +0.000 A 
ATOM     25  C   UNL     1       5.717   3.336  13.350  0.00  0.00    +0.000 A 
ENDBRANCH  19  20
ENDBRANCH   3  19
TORSDOF 4
ENDMDL
MODEL 2
REMARK VINA RESULT:      -8.7      0.282      1.393
REMARK  Name = 
REMARK  4 active torsions:
REMARK  status: ('A' for Active; 'I' for Inactive)
REMARK    1  A    between atoms: C_3  and  C_4
REMARK    2  A    between atoms: C_4  and  C_5
REMARK    3  A    between atoms: C_11  and  C_12
REMARK    4  A    between atoms: N_19  and  C_20
REMARK                            x       y       z     vdW  Elec       q    Type
REMARK                         _______ _______ _______ _____ _____    ______ ____
ROOT
ATOM      1  O   UNL     1       2.437   3.284  16.332  0.00  0.00    +0.000 OA
ATOM      2  C   UNL     1       3.315   3.696  17.065  0.00  0.00    +0.000 C 
ATOM      3  C   UNL     1       4.586   4.378  16.637  0.00  0.00    +0.000 C 
ATOM      4  C   UNL     1       5.060   4.918  17.976  0.00  0.00    +0.000 C 
ATOM      5  N   UNL     1       4.346   4.509  18.984  0.00  0.00    +0.000 NA
ATOM      6  N   UNL     1       3.263   3.817  18.478  0.00  0.00    +0.000 N 
ENDROOT
BRANCH   4   7
ATOM      7  C   UNL     1       6.084   5.982  18.115  0.00  0.00    +0.000 A 
ATOM      8  C   UNL     1       7.205   5.799  18.930  0.00  0.00    +0.000 A 
ATOM      9  C   UNL     1       8.261   6.715  18.892  0.00  0.00    +0.000 A 
ATOM     10  C   UNL     1       8.203   7.819  18.044  0.00  0.00    +0.000 A 
ATOM     11  C   UNL     1       7.083   8.021  17.240  0.00  0.00    +0.000 A 
ATOM     12  C   UNL     1       6.027   7.106  17.274  0.00  0.00    +0.000 A 
ENDBRANCH   4   7
BRANCH   6  13
ATOM     13  C   UNL     1       1.936   4.116  19.022  0.00  0.00    +0.000 C 
ATOM     14  C   UNL     1       0.961   2.937  19.144  0.00  0.00    +0.000 C 
ATOM     15  C   UNL     1       1.088   2.088  20.410  0.00  0.00    +0.000 C 
ATOM     16  C   UNL     1       1.290   2.904  21.686  0.00  0.00    +0.000 C 
ATOM     17  C   UNL     1       2.395   3.934  21.534  0.00  0.00    +0.000 C 
ATOM     18  C   UNL     1       2.088   4.867  20.364  0.00  0.00    +0.000 C 
ENDBRANCH   6  13
BRANCH   3  19
ATOM     19  C   UNL     1       5.556   3.398  15.993  0.00  0.00    +0.000 C 
BRANCH  19  20
ATOM     20  C   UNL     1       6.211   3.881  14.715  0.00  0.00    +0.000 A 
ATOM     21  C   UNL     1       5.839   3.391  13.455  0.00  0.00    +0.000 A 
ATOM     22  C   UNL     1       6.427   3.901  12.291  0.00  0.00    +0.000 A 
ATOM     23  C   UNL     1       7.382   4.913  12.373  0.00  0.00    +0.000 A 
ATOM     24  C   UNL     1       7.780   5.387  13.619  0.00  0.00    +0.000 A 
ATOM     25  C   UNL     1       7.207   4.865  14.781  0.00  0.00    +0.000 A 
ENDBRANCH  19  20
ENDBRANCH   3  19
TORSDOF 4
ENDMDL
MODEL 3
REMARK VINA RESULT:      -8.6      2.192      4.054
REMARK  Name = 
REMARK  4 active torsions:
REMARK  status: ('A' for Active; 'I' for Inactive)
REMARK    1  A    between atoms: C_3  and  C_4
REMARK    2  A    between atoms: C_4  and  C_5
REMARK    3  A    between atoms: C_11  and  C_12
REMARK    4  A    between atoms: N_19  and  C_20
REMARK                            x       y       z     vdW  Elec       q    Type
REMARK                         _______ _______ _______ _____ _____    ______ ____
ROOT
ATOM      1  O   UNL     1       4.052   2.517  16.914  0.00  0.00    +0.000 OA
ATOM      2  C   UNL     1       4.054   3.509  17.618  0.00  0.00    +0.000 C 
ATOM      3  C   UNL     1       3.774   4.918  17.173  0.00  0.00    +0.000 C 
ATOM      4  C   UNL     1       3.606   5.594  18.523  0.00  0.00    +0.000 C 
ATOM      5  N   UNL     1       3.895   4.821  19.531  0.00  0.00    +0.000 NA
ATOM      6  N   UNL     1       4.119   3.552  19.035  0.00  0.00    +0.000 N 
ENDROOT
BRANCH   4   7
ATOM      7  C   UNL     1       2.965   6.919  18.704  0.00  0.00    +0.000 A 
ATOM      8  C   UNL     1       2.886   7.830  17.647  0.00  0.00    +0.000 A 
ATOM      9  C   UNL     1       2.103   8.982  17.766  0.00  0.00    +0.000 A 
ATOM     10  C   UNL     1       1.397   9.234  18.942  0.00  0.00    +0.000 A 
ATOM     11  C   UNL     1       1.483   8.341  20.009  0.00  0.00    +0.000 A 
ATOM     12  C   UNL     1       2.264   7.187  19.891  0.00  0.00    +0.000 A 
ENDBRANCH   4   7
BRANCH   6  13
ATOM     13  C   UNL     1       3.480   2.422  19.715  0.00  0.00    +0.000 C 
ATOM     14  C   UNL     1       3.330   2.532  21.239  0.00  0.00    +0.000 C 
ATOM     15  C   UNL     1       2.101   3.292  21.740  0.00  0.00    +0.000 C 
ATOM     16  C   UNL     1       0.818   2.965  20.979  0.00  0.00    +0.000 C 
ATOM     17  C   UNL     1       1.011   3.050  19.475  0.00  0.00    +0.000 C 
ATOM     18  C   UNL     1       2.129   2.108  19.034  0.00  0.00    +0.000 C 
ENDBRANCH   6  13
BRANCH   3  19
ATOM     19  C   UNL     1       4.918   5.481  16.342  0.00  0.00    +0.000 C 
BRANCH  19  20
ATOM     20  C   UNL     1       6.107   5.984  17.136  0.00  0.00    +0.000 A 
ATOM     21  C   UNL     1       6.487   7.334  17.133  0.00  0.00    +0.000 A 
ATOM     22  C   UNL     1       7.557   7.773  17.922  0.00  0.00    +0.000 A 
ATOM     23  C   UNL     1       8.249   6.873  18.730  0.00  0.00    +0.000 A 
ATOM     24  C   UNL     1       7.899   5.527  18.720  0.00  0.00    +0.000 A 
ATOM     25  C   UNL     1       6.844   5.084  17.918  0.00  0.00    +0.000 A 
ENDBRANCH  19  20
ENDBRANCH   3  19
TORSDOF 4
ENDMDL
MODEL 4
REMARK VINA RESULT:      -8.3      2.267      4.262
REMARK  Name = 
REMARK  4 active torsions:
REMARK  status: ('A' for Active; 'I' for Inactive)
REMARK    1  A    between atoms: C_3  and  C_4
REMARK    2  A    between atoms: C_4  and  C_5
REMARK    3  A    between atoms: C_11  and  C_12
REMARK    4  A    between atoms: N_19  and  C_20
REMARK                            x       y       z     vdW  Elec       q    Type
REMARK                         _______ _______ _______ _____ _____    ______ ____
ROOT
ATOM      1  O   UNL     1       4.301   2.775  16.846  0.00  0.00    +0.000 OA
ATOM      2  C   UNL     1       4.155   3.743  17.567  0.00  0.00    +0.000 C 
ATOM      3  C   UNL     1       3.754   5.126  17.131  0.00  0.00    +0.000 C 
ATOM      4  C   UNL     1       3.434   5.746  18.481  0.00  0.00    +0.000 C 
ATOM      5  N   UNL     1       3.740   4.982  19.490  0.00  0.00    +0.000 NA
ATOM      6  N   UNL     1       4.127   3.757  18.985  0.00  0.00    +0.000 N 
ENDROOT
BRANCH   4   7
ATOM      7  C   UNL     1       2.646   6.992  18.646  0.00  0.00    +0.000 A 
ATOM      8  C   UNL     1       2.097   7.337  19.884  0.00  0.00    +0.000 A 
ATOM      9  C   UNL     1       1.539   8.604  20.079  0.00  0.00    +0.000 A 
ATOM     10  C   UNL     1       1.522   9.532  19.039  0.00  0.00    +0.000 A 
ATOM     11  C   UNL     1       2.051   9.192  17.794  0.00  0.00    +0.000 A 
ATOM     12  C   UNL     1       2.611   7.927  17.598  0.00  0.00    +0.000 A 
ENDBRANCH   4   7
BRANCH   6  13
ATOM     13  C   UNL     1       3.572   2.548  19.602  0.00  0.00    +0.000 C 
ATOM     14  C   UNL     1       3.468   2.545  21.134  0.00  0.00    +0.000 C 
ATOM     15  C   UNL     1       2.218   3.200  21.724  0.00  0.00    +0.000 C 
ATOM     16  C   UNL     1       0.929   2.857  20.981  0.00  0.00    +0.000 C 
ATOM     17  C   UNL     1       1.066   3.056  19.481  0.00  0.00    +0.000 C 
ATOM     18  C   UNL     1       2.217   2.210  18.941  0.00  0.00    +0.000 C 
ENDBRANCH   6  13
BRANCH   3  19
ATOM     19  C   UNL     1       4.881   5.826  16.386  0.00  0.00    +0.000 C 
BRANCH  19  20
ATOM     20  C   UNL     1       6.052   6.261  17.244  0.00  0.00    +0.000 A 
ATOM     21  C   UNL     1       6.757   5.359  18.054  0.00  0.00    +0.000 A 
ATOM     22  C   UNL     1       7.869   5.786  18.791  0.00  0.00    +0.000 A 
ATOM     23  C   UNL     1       8.295   7.110  18.715  0.00  0.00    +0.000 A 
ATOM     24  C   UNL     1       7.587   8.020  17.937  0.00  0.00    +0.000 A 
ATOM     25  C   UNL     1       6.466   7.600  17.217  0.00  0.00    +0.000 A 
ENDBRANCH  19  20
ENDBRANCH   3  19
TORSDOF 4
ENDMDL
MODEL 5
REMARK VINA RESULT:      -8.3      0.688      1.599
REMARK  Name = 
REMARK  4 active torsions:
REMARK  status: ('A' for Active; 'I' for Inactive)
REMARK    1  A    between atoms: C_3  and  C_4
REMARK    2  A    between atoms: C_4  and  C_5
REMARK    3  A    between atoms: C_11  and  C_12
REMARK    4  A    between atoms: N_19  and  C_20
REMARK                            x       y       z     vdW  Elec       q    Type
REMARK                         _______ _______ _______ _____ _____    ______ ____
ROOT
ATOM      1  O   UNL     1       2.602   3.069  16.049  0.00  0.00    +0.000 OA
ATOM      2  C   UNL     1       3.457   3.441  16.829  0.00  0.00    +0.000 C 
ATOM      3  C   UNL     1       4.707   4.203  16.483  0.00  0.00    +0.000 C 
ATOM      4  C   UNL     1       5.147   4.633  17.873  0.00  0.00    +0.000 C 
ATOM      5  N   UNL     1       4.438   4.106  18.829  0.00  0.00    +0.000 NA
ATOM      6  N   UNL     1       3.386   3.428  18.246  0.00  0.00    +0.000 N 
ENDROOT
BRANCH   4   7
ATOM      7  C   UNL     1       6.132   5.714  18.124  0.00  0.00    +0.000 A 
ATOM      8  C   UNL     1       7.178   5.536  19.033  0.00  0.00    +0.000 A 
ATOM      9  C   UNL     1       8.213   6.473  19.108  0.00  0.00    +0.000 A 
ATOM     10  C   UNL     1       8.207   7.595  18.279  0.00  0.00    +0.000 A 
ATOM     11  C   UNL     1       7.159   7.790  17.382  0.00  0.00    +0.000 A 
ATOM     12  C   UNL     1       6.125   6.854  17.303  0.00  0.00    +0.000 A 
ENDBRANCH   4   7
BRANCH   6  13
ATOM     13  C   UNL     1       2.043   3.629  18.798  0.00  0.00    +0.000 C 
ATOM     14  C   UNL     1       1.861   3.327  20.291  0.00  0.00    +0.000 C 
ATOM     15  C   UNL     1       2.227   4.458  21.255  0.00  0.00    +0.000 C 
ATOM     16  C   UNL     1       1.749   5.836  20.804  0.00  0.00    +0.000 C 
ATOM     17  C   UNL     1       2.124   6.124  19.360  0.00  0.00    +0.000 C 
ATOM     18  C   UNL     1       1.548   5.049  18.441  0.00  0.00    +0.000 C 
ENDBRANCH   6  13
BRANCH   3  19
ATOM     19  C   UNL     1       5.718   3.321  15.765  0.00  0.00    +0.000 C 
BRANCH  19  20
ATOM     20  C   UNL     1       6.305   3.909  14.498  0.00  0.00    +0.000 A 
ATOM     21  C   UNL     1       7.245   4.949  14.525  0.00  0.00    +0.000 A 
ATOM     22  C   UNL     1       7.808   5.430  13.336  0.00  0.00    +0.000 A 
ATOM     23  C   UNL     1       7.447   4.871  12.112  0.00  0.00    +0.000 A 
ATOM     24  C   UNL     1       6.494   3.858  12.070  0.00  0.00    +0.000 A 
ATOM     25  C   UNL     1       5.918   3.390  13.254  0.00  0.00    +0.000 A 
ENDBRANCH  19  20
ENDBRANCH   3  19
TORSDOF 4
ENDMDL
MODEL 6
REMARK VINA RESULT:      -7.9      2.208      3.319
REMARK  Name = 
REMARK  4 active torsions:
REMARK  status: ('A' for Active; 'I' for Inactive)
REMARK    1  A    between atoms: C_3  and  C_4
REMARK    2  A    between atoms: C_4  and  C_5
REMARK    3  A    between atoms: C_11  and  C_12
REMARK    4  A    between atoms: N_19  and  C_20
REMARK                            x       y       z     vdW  Elec       q    Type
REMARK                         _______ _______ _______ _____ _____    ______ ____
ROOT
ATOM      1  O   UNL     1       4.499   2.663  17.161  0.00  0.00    +0.000 OA
ATOM      2  C   UNL     1       4.347   3.644  17.863  0.00  0.00    +0.000 C 
ATOM      3  C   UNL     1       4.109   5.052  17.388  0.00  0.00    +0.000 C 
ATOM      4  C   UNL     1       3.686   5.703  18.693  0.00  0.00    +0.000 C 
ATOM      5  N   UNL     1       3.813   4.925  19.729  0.00  0.00    +0.000 NA
ATOM      6  N   UNL     1       4.158   3.669  19.269  0.00  0.00    +0.000 N 
ENDROOT
BRANCH   4   7
ATOM      7  C   UNL     1       2.984   7.009  18.769  0.00  0.00    +0.000 A 
ATOM      8  C   UNL     1       2.894   7.843  17.651  0.00  0.00    +0.000 A 
ATOM      9  C   UNL     1       2.060   8.964  17.675  0.00  0.00    +0.000 A 
ATOM     10  C   UNL     1       1.314   9.262  18.814  0.00  0.00    +0.000 A 
ATOM     11  C   UNL     1       1.410   8.447  19.941  0.00  0.00    +0.000 A 
ATOM     12  C   UNL     1       2.242   7.324  19.919  0.00  0.00    +0.000 A 
ENDBRANCH   4   7
BRANCH   6  13
ATOM     13  C   UNL     1       3.442   2.513  19.815  0.00  0.00    +0.000 C 
ATOM     14  C   UNL     1       2.968   2.622  21.270  0.00  0.00    +0.000 C 
ATOM     15  C   UNL     1       1.627   3.325  21.489  0.00  0.00    +0.000 C 
ATOM     16  C   UNL     1       0.550   2.934  20.479  0.00  0.00    +0.000 C 
ATOM     17  C   UNL     1       1.054   3.021  19.048  0.00  0.00    +0.000 C 
ATOM     18  C   UNL     1       2.282   2.132  18.867  0.00  0.00    +0.000 C 
ENDBRANCH   6  13
BRANCH   3  19
ATOM     19  C   UNL     1       5.366   5.656  16.779  0.00  0.00    +0.000 C 
BRANCH  19  20
ATOM     20  C   UNL     1       5.783   5.074  15.444  0.00  0.00    +0.000 A 
ATOM     21  C   UNL     1       4.870   4.440  14.589  0.00  0.00    +0.000 A 
ATOM     22  C   UNL     1       5.280   3.963  13.338  0.00  0.00    +0.000 A 
ATOM     23  C   UNL     1       6.600   4.126  12.923  0.00  0.00    +0.000 A 
ATOM     24  C   UNL     1       7.522   4.728  13.774  0.00  0.00    +0.000 A 
ATOM     25  C   UNL     1       7.118   5.187  15.030  0.00  0.00    +0.000 A 
ENDBRANCH  19  20
ENDBRANCH   3  19
TORSDOF 4
ENDMDL
MODEL 7
REMARK VINA RESULT:      -7.8      2.303      3.492
REMARK  Name = 
REMARK  4 active torsions:
REMARK  status: ('A' for Active; 'I' for Inactive)
REMARK    1  A    between atoms: C_3  and  C_4
REMARK    2  A    between atoms: C_4  and  C_5
REMARK    3  A    between atoms: C_11  and  C_12
REMARK    4  A    between atoms: N_19  and  C_20
REMARK                            x       y       z     vdW  Elec       q    Type
REMARK                         _______ _______ _______ _____ _____    ______ ____
ROOT
ATOM      1  O   UNL     1       4.509   2.868  17.123  0.00  0.00    +0.000 OA
ATOM      2  C   UNL     1       4.279   3.833  17.826  0.00  0.00    +0.000 C 
ATOM      3  C   UNL     1       3.888   5.207  17.354  0.00  0.00    +0.000 C 
ATOM      4  C   UNL     1       3.437   5.820  18.668  0.00  0.00    +0.000 C 
ATOM      5  N   UNL     1       3.669   5.064  19.702  0.00  0.00    +0.000 NA
ATOM      6  N   UNL     1       4.126   3.847  19.237  0.00  0.00    +0.000 N 
ENDROOT
BRANCH   4   7
ATOM      7  C   UNL     1       2.611   7.050  18.760  0.00  0.00    +0.000 A 
ATOM      8  C   UNL     1       1.999   7.417  19.962  0.00  0.00    +0.000 A 
ATOM      9  C   UNL     1       1.401   8.674  20.092  0.00  0.00    +0.000 A 
ATOM     10  C   UNL     1       1.407   9.570  19.024  0.00  0.00    +0.000 A 
ATOM     11  C   UNL     1       1.998   9.206  17.815  0.00  0.00    +0.000 A 
ATOM     12  C   UNL     1       2.599   7.951  17.683  0.00  0.00    +0.000 A 
ENDBRANCH   4   7
BRANCH   6  13
ATOM     13  C   UNL     1       3.544   2.628  19.805  0.00  0.00    +0.000 C 
ATOM     14  C   UNL     1       3.221   2.655  21.305  0.00  0.00    +0.000 C 
ATOM     15  C   UNL     1       1.870   3.260  21.691  0.00  0.00    +0.000 C 
ATOM     16  C   UNL     1       0.718   2.836  20.782  0.00  0.00    +0.000 C 
ATOM     17  C   UNL     1       1.061   3.006  19.312  0.00  0.00    +0.000 C 
ATOM     18  C   UNL     1       2.315   2.206  18.968  0.00  0.00    +0.000 C 
ENDBRANCH   6  13
BRANCH   3  19
ATOM     19  C   UNL     1       5.062   5.931  16.709  0.00  0.00    +0.000 C 
BRANCH  19  20
ATOM     20  C   UNL     1       5.643   5.258  15.483  0.00  0.00    +0.000 A 
ATOM     21  C   UNL     1       4.838   4.595  14.545  0.00  0.00    +0.000 A 
ATOM     22  C   UNL     1       5.404   4.032  13.394  0.00  0.00    +0.000 A 
ATOM     23  C   UNL     1       6.774   4.138  13.162  0.00  0.00    +0.000 A 
ATOM     24  C   UNL     1       7.586   4.769  14.098  0.00  0.00    +0.000 A 
ATOM     25  C   UNL     1       7.025   5.313  15.256  0.00  0.00    +0.000 A 
ENDBRANCH  19  20
ENDBRANCH   3  19
TORSDOF 4
ENDMDL
MODEL 8
REMARK VINA RESULT:      -7.7      0.711      1.396
REMARK  Name = 
REMARK  4 active torsions:
REMARK  status: ('A' for Active; 'I' for Inactive)
REMARK    1  A    between atoms: C_3  and  C_4
REMARK    2  A    between atoms: C_4  and  C_5
REMARK    3  A    between atoms: C_11  and  C_12
REMARK    4  A    between atoms: N_19  and  C_20
REMARK                            x       y       z     vdW  Elec       q    Type
REMARK                         _______ _______ _______ _____ _____    ______ ____
ROOT
ATOM      1  O   UNL     1       2.496   3.258  16.039  0.00  0.00    +0.000 OA
ATOM      2  C   UNL     1       3.424   3.581  16.755  0.00  0.00    +0.000 C 
ATOM      3  C   UNL     1       4.701   4.241  16.313  0.00  0.00    +0.000 C 
ATOM      4  C   UNL     1       5.259   4.665  17.662  0.00  0.00    +0.000 C 
ATOM      5  N   UNL     1       4.577   4.211  18.673  0.00  0.00    +0.000 NA
ATOM      6  N   UNL     1       3.443   3.601  18.173  0.00  0.00    +0.000 N 
ENDROOT
BRANCH   4   7
ATOM      7  C   UNL     1       6.334   5.675  17.824  0.00  0.00    +0.000 A 
ATOM      8  C   UNL     1       6.294   6.886  17.127  0.00  0.00    +0.000 A 
ATOM      9  C   UNL     1       7.192   7.910  17.442  0.00  0.00    +0.000 A 
ATOM     10  C   UNL     1       8.138   7.730  18.451  0.00  0.00    +0.000 A 
ATOM     11  C   UNL     1       8.197   6.520  19.140  0.00  0.00    +0.000 A 
ATOM     12  C   UNL     1       7.299   5.496  18.829  0.00  0.00    +0.000 A 
ENDBRANCH   4   7
BRANCH   6  13
ATOM     13  C   UNL     1       2.157   3.912  18.803  0.00  0.00    +0.000 C 
ATOM     14  C   UNL     1       2.066   3.703  20.321  0.00  0.00    +0.000 C 
ATOM     15  C   UNL     1       2.563   4.860  21.189  0.00  0.00    +0.000 C 
ATOM     16  C   UNL     1       2.131   6.238  20.693  0.00  0.00    +0.000 C 
ATOM     17  C   UNL     1       2.417   6.425  19.213  0.00  0.00    +0.000 C 
ATOM     18  C   UNL     1       1.718   5.337  18.399  0.00  0.00    +0.000 C 
ENDBRANCH   6  13
BRANCH   3  19
ATOM     19  C   UNL     1       5.597   3.273  15.554  0.00  0.00    +0.000 C 
BRANCH  19  20
ATOM     20  C   UNL     1       6.246   3.835  14.306  0.00  0.00    +0.000 A 
ATOM     21  C   UNL     1       7.206   4.857  14.360  0.00  0.00    +0.000 A 
ATOM     22  C   UNL     1       7.825   5.313  13.190  0.00  0.00    +0.000 A 
ATOM     23  C   UNL     1       7.502   4.747  11.958  0.00  0.00    +0.000 A 
ATOM     24  C   UNL     1       6.532   3.752  11.889  0.00  0.00    +0.000 A 
ATOM     25  C   UNL     1       5.899   3.310  13.053  0.00  0.00    +0.000 A 
ENDBRANCH  19  20
ENDBRANCH   3  19
TORSDOF 4
ENDMDL
MODEL 9
REMARK VINA RESULT:      -7.7      2.389      3.920
REMARK  Name = 
REMARK  4 active torsions:
REMARK  status: ('A' for Active; 'I' for Inactive)
REMARK    1  A    between atoms: C_3  and  C_4
REMARK    2  A    between atoms: C_4  and  C_5
REMARK    3  A    between atoms: C_11  and  C_12
REMARK    4  A    between atoms: N_19  and  C_20
REMARK                            x       y       z     vdW  Elec       q    Type
REMARK                         _______ _______ _______ _____ _____    ______ ____
ROOT
ATOM      1  O   UNL     1       3.554   3.831  16.682  0.00  0.00    +0.000 OA
ATOM      2  C   UNL     1       3.492   4.577  17.640  0.00  0.00    +0.000 C 
ATOM      3  C   UNL     1       3.106   6.031  17.615  0.00  0.00    +0.000 C 
ATOM      4  C   UNL     1       2.905   6.277  19.100  0.00  0.00    +0.000 C 
ATOM      5  N   UNL     1       3.259   5.271  19.847  0.00  0.00    +0.000 NA
ATOM      6  N   UNL     1       3.568   4.217  19.010  0.00  0.00    +0.000 N 
ENDROOT
BRANCH   4   7
ATOM      7  C   UNL     1       2.173   7.446  19.647  0.00  0.00    +0.000 A 
ATOM      8  C   UNL     1       1.877   8.549  18.842  0.00  0.00    +0.000 A 
ATOM      9  C   UNL     1       1.012   9.546  19.304  0.00  0.00    +0.000 A 
ATOM     10  C   UNL     1       0.441   9.450  20.572  0.00  0.00    +0.000 A 
ATOM     11  C   UNL     1       0.744   8.362  21.390  0.00  0.00    +0.000 A 
ATOM     12  C   UNL     1       1.606   7.363  20.929  0.00  0.00    +0.000 A 
ENDBRANCH   4   7
BRANCH   6  13
ATOM     13  C   UNL     1       3.019   2.896  19.331  0.00  0.00    +0.000 C 
ATOM     14  C   UNL     1       3.378   2.319  20.707  0.00  0.00    +0.000 C 
ATOM     15  C   UNL     1       2.497   2.766  21.875  0.00  0.00    +0.000 C 
ATOM     16  C   UNL     1       1.005   2.798  21.548  0.00  0.00    +0.000 C 
ATOM     17  C   UNL     1       0.722   3.542  20.255  0.00  0.00    +0.000 C 
ATOM     18  C   UNL     1       1.491   2.904  19.100  0.00  0.00    +0.000 C 
ENDBRANCH   6  13
BRANCH   3  19
ATOM     19  C   UNL     1       4.199   6.888  16.992  0.00  0.00    +0.000 C 
BRANCH  19  20
ATOM     20  C   UNL     1       5.364   6.122  16.399  0.00  0.00    +0.000 A 
ATOM     21  C   UNL     1       6.441   5.681  17.181  0.00  0.00    +0.000 A 
ATOM     22  C   UNL     1       7.473   4.927  16.609  0.00  0.00    +0.000 A 
ATOM     23  C   UNL     1       7.434   4.597  15.256  0.00  0.00    +0.000 A 
ATOM     24  C   UNL     1       6.385   5.053  14.464  0.00  0.00    +0.000 A 
ATOM     25  C   UNL     1       5.365   5.821  15.030  0.00  0.00    +0.000 A 
ENDBRANCH  19  20
ENDBRANCH   3  19
TORSDOF 4
ENDMDL
