MODEL 1
REMARK VINA RESULT:      -7.0      0.000      0.000
REMARK  Name = 
REMARK  5 active torsions:
REMARK  status: ('A' for Active; 'I' for Inactive)
REMARK    1  A    between atoms: C_2  and  N_3
REMARK    2  A    between atoms: C_2  and  N_10
REMARK    3  A    between atoms: N_3  and  C_4
REMARK    4  A    between atoms: N_10  and  C_11
REMARK    5  A    between atoms: C_16  and  N_17
REMARK                            x       y       z     vdW  Elec       q    Type
REMARK                         _______ _______ _______ _____ _____    ______ ____
ROOT
ATOM      1  N   UNL     1       3.431   6.288  17.611  0.00  0.00    +0.000 N 
ATOM      2  H   UNL     1       2.865   5.739  16.971  0.00  0.00    +0.000 HD
ENDROOT
BRANCH   1   3
ATOM      3  C   UNL     1       4.825   6.037  17.574  0.00  0.00    +0.000 A 
ATOM      4  C   UNL     1       5.703   7.122  17.399  0.00  0.00    +0.000 A 
ATOM      5  C   UNL     1       7.080   6.968  17.557  0.00  0.00    +0.000 A 
ATOM      6  C   UNL     1       7.605   5.725  17.881  0.00  0.00    +0.000 A 
ATOM      7  C   UNL     1       6.753   4.633  18.055  0.00  0.00    +0.000 A 
ATOM      8  C   UNL     1       5.359   4.774  17.905  0.00  0.00    +0.000 A 
BRANCH   8   9
ATOM      9  N   UNL     1       4.547   3.606  18.044  0.00  0.00    +0.000 N 
ATOM     10  C   UNL     1       3.561   3.165  17.179  0.00  0.00    +0.000 A 
ATOM     11  C   UNL     1       2.984   2.022  17.687  0.00  0.00    +0.000 A 
ATOM     12  C   UNL     1       3.659   1.712  18.883  0.00  0.00    +0.000 A 
ATOM     13  C   UNL     1       4.629   2.674  19.065  0.00  0.00    +0.000 A 
ENDBRANCH   8   9
ENDBRANCH   1   3
BRANCH   1  15
ATOM     14  S   UNL     1       2.084   8.464  18.142  0.00  0.00    +0.000 S 
ATOM     15  C   UNL     1       2.717   6.973  18.566  0.00  0.00    +0.000 C 
BRANCH  15  16
ATOM     16  N   UNL     1       2.753   6.410  19.823  0.00  0.00    +0.000 N 
ATOM     17  H   UNL     1       3.022   7.071  20.546  0.00  0.00    +0.000 HD
BRANCH  16  18
ATOM     18  C   UNL     1       2.167   5.213  20.268  0.00  0.00    +0.000 A 
ATOM     19  C   UNL     1       1.125   4.601  19.570  0.00  0.00    +0.000 A 
ATOM     20  C   UNL     1       0.613   3.376  20.002  0.00  0.00    +0.000 A 
ATOM     21  C   UNL     1       1.132   2.763  21.140  0.00  0.00    +0.000 A 
ATOM     22  C   UNL     1       2.178   3.366  21.837  0.00  0.00    +0.000 A 
ATOM     23  C   UNL     1       2.711   4.578  21.390  0.00  0.00    +0.000 A 
ENDBRANCH  16  18
ENDBRANCH  15  16
ENDBRANCH   1  15
TORSDOF 5
ENDMDL
MODEL 2
REMARK VINA RESULT:      -6.9      0.301      1.352
REMARK  Name = 
REMARK  5 active torsions:
REMARK  status: ('A' for Active; 'I' for Inactive)
REMARK    1  A    between atoms: C_2  and  N_3
REMARK    2  A    between atoms: C_2  and  N_10
REMARK    3  A    between atoms: N_3  and  C_4
REMARK    4  A    between atoms: N_10  and  C_11
REMARK    5  A    between atoms: C_16  and  N_17
REMARK                            x       y       z     vdW  Elec       q    Type
REMARK                         _______ _______ _______ _____ _____    ______ ____
ROOT
ATOM      1  N   UNL     1       3.419   6.195  17.640  0.00  0.00    +0.000 N 
ATOM      2  H   UNL     1       2.879   5.488  17.150  0.00  0.00    +0.000 HD
ENDROOT
BRANCH   1   3
ATOM      3  C   UNL     1       4.827   6.066  17.556  0.00  0.00    +0.000 A 
ATOM      4  C   UNL     1       5.594   7.205  17.253  0.00  0.00    +0.000 A 
ATOM      5  C   UNL     1       6.984   7.187  17.358  0.00  0.00    +0.000 A 
ATOM      6  C   UNL     1       7.634   6.027  17.754  0.00  0.00    +0.000 A 
ATOM      7  C   UNL     1       6.894   4.883  18.055  0.00  0.00    +0.000 A 
ATOM      8  C   UNL     1       5.487   4.887  17.961  0.00  0.00    +0.000 A 
BRANCH   8   9
ATOM      9  N   UNL     1       4.792   3.667  18.232  0.00  0.00    +0.000 N 
ATOM     10  C   UNL     1       4.817   2.932  19.403  0.00  0.00    +0.000 A 
ATOM     11  C   UNL     1       4.046   1.801  19.251  0.00  0.00    +0.000 A 
ATOM     12  C   UNL     1       3.485   1.852  17.961  0.00  0.00    +0.000 A 
ATOM     13  C   UNL     1       3.929   3.015  17.368  0.00  0.00    +0.000 A 
ENDBRANCH   8   9
ENDBRANCH   1   3
BRANCH   1  15
ATOM     14  S   UNL     1       2.231   8.502  17.964  0.00  0.00    +0.000 S 
ATOM     15  C   UNL     1       2.688   6.982  18.499  0.00  0.00    +0.000 C 
BRANCH  15  16
ATOM     16  N   UNL     1       2.563   6.476  19.774  0.00  0.00    +0.000 N 
ATOM     17  H   UNL     1       2.549   7.197  20.489  0.00  0.00    +0.000 HD
BRANCH  16  18
ATOM     18  C   UNL     1       2.125   5.202  20.176  0.00  0.00    +0.000 A 
ATOM     19  C   UNL     1       2.506   4.645  21.398  0.00  0.00    +0.000 A 
ATOM     20  C   UNL     1       1.997   3.407  21.796  0.00  0.00    +0.000 A 
ATOM     21  C   UNL     1       1.115   2.715  20.969  0.00  0.00    +0.000 A 
ATOM     22  C   UNL     1       0.725   3.270  19.751  0.00  0.00    +0.000 A 
ATOM     23  C   UNL     1       1.212   4.521  19.364  0.00  0.00    +0.000 A 
ENDBRANCH  16  18
ENDBRANCH  15  16
ENDBRANCH   1  15
TORSDOF 5
ENDMDL
MODEL 3
REMARK VINA RESULT:      -6.8      1.928      5.042
REMARK  Name = 
REMARK  5 active torsions:
REMARK  status: ('A' for Active; 'I' for Inactive)
REMARK    1  A    between atoms: C_2  and  N_3
REMARK    2  A    between atoms: C_2  and  N_10
REMARK    3  A    between atoms: N_3  and  C_4
REMARK    4  A    between atoms: N_10  and  C_11
REMARK    5  A    between atoms: C_16  and  N_17
REMARK                            x       y       z     vdW  Elec       q    Type
REMARK                         _______ _______ _______ _____ _____    ______ ____
ROOT
ATOM      1  N   UNL     1       2.529   4.703  17.544  0.00  0.00    +0.000 N 
ATOM      2  H   UNL     1       1.769   4.574  16.882  0.00  0.00    +0.000 HD
ENDROOT
BRANCH   1   3
ATOM      3  C   UNL     1       2.443   5.851  18.369  0.00  0.00    +0.000 A 
ATOM      4  C   UNL     1       2.559   7.121  17.777  0.00  0.00    +0.000 A 
ATOM      5  C   UNL     1       2.280   8.281  18.498  0.00  0.00    +0.000 A 
ATOM      6  C   UNL     1       1.893   8.194  19.829  0.00  0.00    +0.000 A 
ATOM      7  C   UNL     1       1.776   6.944  20.439  0.00  0.00    +0.000 A 
ATOM      8  C   UNL     1       2.048   5.761  19.721  0.00  0.00    +0.000 A 
BRANCH   8   9
ATOM      9  N   UNL     1       1.961   4.517  20.419  0.00  0.00    +0.000 N 
ATOM     10  C   UNL     1       0.885   3.649  20.450  0.00  0.00    +0.000 A 
ATOM     11  C   UNL     1       1.182   2.580  21.267  0.00  0.00    +0.000 A 
ATOM     12  C   UNL     1       2.501   2.761  21.724  0.00  0.00    +0.000 A 
ATOM     13  C   UNL     1       2.968   3.934  21.169  0.00  0.00    +0.000 A 
ENDBRANCH   8   9
ENDBRANCH   1   3
BRANCH   1  15
ATOM     14  S   UNL     1       3.545   2.324  17.923  0.00  0.00    +0.000 S 
ATOM     15  C   UNL     1       3.617   3.889  17.332  0.00  0.00    +0.000 C 
BRANCH  15  16
ATOM     16  N   UNL     1       4.714   4.526  16.794  0.00  0.00    +0.000 N 
ATOM     17  H   UNL     1       4.623   4.700  15.797  0.00  0.00    +0.000 HD
BRANCH  16  18
ATOM     18  C   UNL     1       5.729   5.240  17.454  0.00  0.00    +0.000 A 
ATOM     19  C   UNL     1       6.150   4.899  18.740  0.00  0.00    +0.000 A 
ATOM     20  C   UNL     1       7.208   5.585  19.339  0.00  0.00    +0.000 A 
ATOM     21  C   UNL     1       7.842   6.624  18.659  0.00  0.00    +0.000 A 
ATOM     22  C   UNL     1       7.430   6.964  17.372  0.00  0.00    +0.000 A 
ATOM     23  C   UNL     1       6.390   6.259  16.760  0.00  0.00    +0.000 A 
ENDBRANCH  16  18
ENDBRANCH  15  16
ENDBRANCH   1  15
TORSDOF 5
ENDMDL
MODEL 4
REMARK VINA RESULT:      -6.7      1.892      5.062
REMARK  Name = 
REMARK  5 active torsions:
REMARK  status: ('A' for Active; 'I' for Inactive)
REMARK    1  A    between atoms: C_2  and  N_3
REMARK    2  A    between atoms: C_2  and  N_10
REMARK    3  A    between atoms: N_3  and  C_4
REMARK    4  A    between atoms: N_10  and  C_11
REMARK    5  A    between atoms: C_16  and  N_17
REMARK                            x       y       z     vdW  Elec       q    Type
REMARK                         _______ _______ _______ _____ _____    ______ ____
ROOT
ATOM      1  N   UNL     1       2.599   4.825  17.529  0.00  0.00    +0.000 N 
ATOM      2  H   UNL     1       1.842   4.664  16.872  0.00  0.00    +0.000 HD
ENDROOT
BRANCH   1   3
ATOM      3  C   UNL     1       2.476   5.975  18.346  0.00  0.00    +0.000 A 
ATOM      4  C   UNL     1       2.626   7.243  17.756  0.00  0.00    +0.000 A 
ATOM      5  C   UNL     1       2.316   8.407  18.458  0.00  0.00    +0.000 A 
ATOM      6  C   UNL     1       1.862   8.325  19.768  0.00  0.00    +0.000 A 
ATOM      7  C   UNL     1       1.710   7.078  20.375  0.00  0.00    +0.000 A 
ATOM      8  C   UNL     1       2.013   5.892  19.676  0.00  0.00    +0.000 A 
BRANCH   8   9
ATOM      9  N   UNL     1       1.887   4.650  20.373  0.00  0.00    +0.000 N 
ATOM     10  C   UNL     1       0.878   3.713  20.236  0.00  0.00    +0.000 A 
ATOM     11  C   UNL     1       1.098   2.673  21.112  0.00  0.00    +0.000 A 
ATOM     12  C   UNL     1       2.304   2.945  21.784  0.00  0.00    +0.000 A 
ATOM     13  C   UNL     1       2.784   4.141  21.295  0.00  0.00    +0.000 A 
ENDBRANCH   8   9
ENDBRANCH   1   3
BRANCH   1  15
ATOM     14  S   UNL     1       3.761   2.542  18.052  0.00  0.00    +0.000 S 
ATOM     15  C   UNL     1       3.714   4.047  17.321  0.00  0.00    +0.000 C 
BRANCH  15  16
ATOM     16  N   UNL     1       4.741   4.684  16.659  0.00  0.00    +0.000 N 
ATOM     17  H   UNL     1       4.541   4.845  15.676  0.00  0.00    +0.000 HD
BRANCH  16  18
ATOM     18  C   UNL     1       5.818   5.411  17.196  0.00  0.00    +0.000 A 
ATOM     19  C   UNL     1       6.066   6.735  16.832  0.00  0.00    +0.000 A 
ATOM     20  C   UNL     1       7.101   7.449  17.437  0.00  0.00    +0.000 A 
ATOM     21  C   UNL     1       7.901   6.838  18.401  0.00  0.00    +0.000 A 
ATOM     22  C   UNL     1       7.654   5.518  18.774  0.00  0.00    +0.000 A 
ATOM     23  C   UNL     1       6.600   4.811  18.189  0.00  0.00    +0.000 A 
ENDBRANCH  16  18
ENDBRANCH  15  16
ENDBRANCH   1  15
TORSDOF 5
ENDMDL
MODEL 5
REMARK VINA RESULT:      -6.6      1.949      5.064
REMARK  Name = 
REMARK  5 active torsions:
REMARK  status: ('A' for Active; 'I' for Inactive)
REMARK    1  A    between atoms: C_2  and  N_3
REMARK    2  A    between atoms: C_2  and  N_10
REMARK    3  A    between atoms: N_3  and  C_4
REMARK    4  A    between atoms: N_10  and  C_11
REMARK    5  A    between atoms: C_16  and  N_17
REMARK                            x       y       z     vdW  Elec       q    Type
REMARK                         _______ _______ _______ _____ _____    ______ ____
ROOT
ATOM      1  N   UNL     1       3.316   4.203  17.673  0.00  0.00    +0.000 N 
ATOM      2  H   UNL     1       3.050   4.091  16.699  0.00  0.00    +0.000 HD
ENDROOT
BRANCH   1   3
ATOM      3  C   UNL     1       3.062   5.475  18.240  0.00  0.00    +0.000 A 
ATOM      4  C   UNL     1       3.377   6.625  17.494  0.00  0.00    +0.000 A 
ATOM      5  C   UNL     1       2.965   7.890  17.910  0.00  0.00    +0.000 A 
ATOM      6  C   UNL     1       2.242   8.032  19.086  0.00  0.00    +0.000 A 
ATOM      7  C   UNL     1       1.922   6.905  19.845  0.00  0.00    +0.000 A 
ATOM      8  C   UNL     1       2.325   5.619  19.435  0.00  0.00    +0.000 A 
BRANCH   8   9
ATOM      9  N   UNL     1       2.011   4.513  20.285  0.00  0.00    +0.000 N 
ATOM     10  C   UNL     1       2.731   4.070  21.380  0.00  0.00    +0.000 A 
ATOM     11  C   UNL     1       2.121   2.954  21.908  0.00  0.00    +0.000 A 
ATOM     12  C   UNL     1       0.958   2.718  21.150  0.00  0.00    +0.000 A 
ATOM     13  C   UNL     1       0.895   3.700  20.184  0.00  0.00    +0.000 A 
ENDBRANCH   8   9
ENDBRANCH   1   3
BRANCH   1  15
ATOM     14  S   UNL     1       3.411   1.677  18.341  0.00  0.00    +0.000 S 
ATOM     15  C   UNL     1       4.104   3.193  18.172  0.00  0.00    +0.000 C 
BRANCH  15  16
ATOM     16  N   UNL     1       5.337   3.600  18.632  0.00  0.00    +0.000 N 
ATOM     17  H   UNL     1       5.781   2.916  19.237  0.00  0.00    +0.000 HD
BRANCH  16  18
ATOM     18  C   UNL     1       6.171   4.616  18.132  0.00  0.00    +0.000 A 
ATOM     19  C   UNL     1       6.398   4.774  16.765  0.00  0.00    +0.000 A 
ATOM     20  C   UNL     1       7.176   5.836  16.299  0.00  0.00    +0.000 A 
ATOM     21  C   UNL     1       7.739   6.737  17.199  0.00  0.00    +0.000 A 
ATOM     22  C   UNL     1       7.509   6.589  18.566  0.00  0.00    +0.000 A 
ATOM     23  C   UNL     1       6.708   5.543  19.032  0.00  0.00    +0.000 A 
ENDBRANCH  16  18
ENDBRANCH  15  16
ENDBRANCH   1  15
TORSDOF 5
ENDMDL
MODEL 6
REMARK VINA RESULT:      -6.6      3.232      5.870
REMARK  Name = 
REMARK  5 active torsions:
REMARK  status: ('A' for Active; 'I' for Inactive)
REMARK    1  A    between atoms: C_2  and  N_3
REMARK    2  A    between atoms: C_2  and  N_10
REMARK    3  A    between atoms: N_3  and  C_4
REMARK    4  A    between atoms: N_10  and  C_11
REMARK    5  A    between atoms: C_16  and  N_17
REMARK                            x       y       z     vdW  Elec       q    Type
REMARK                         _______ _______ _______ _____ _____    ______ ____
ROOT
ATOM      1  N   UNL     1       5.470   5.152  16.792  0.00  0.00    +0.000 N 
ATOM      2  H   UNL     1       5.170   4.517  16.059  0.00  0.00    +0.000 HD
ENDROOT
BRANCH   1   3
ATOM      3  C   UNL     1       4.439   5.856  17.461  0.00  0.00    +0.000 A 
ATOM      4  C   UNL     1       4.287   7.231  17.213  0.00  0.00    +0.000 A 
ATOM      5  C   UNL     1       3.173   7.930  17.678  0.00  0.00    +0.000 A 
ATOM      6  C   UNL     1       2.198   7.269  18.412  0.00  0.00    +0.000 A 
ATOM      7  C   UNL     1       2.330   5.904  18.675  0.00  0.00    +0.000 A 
ATOM      8  C   UNL     1       3.446   5.183  18.205  0.00  0.00    +0.000 A 
BRANCH   8   9
ATOM      9  N   UNL     1       3.549   3.801  18.555  0.00  0.00    +0.000 N 
ATOM     10  C   UNL     1       4.217   3.259  19.638  0.00  0.00    +0.000 A 
ATOM     11  C   UNL     1       4.112   1.886  19.602  0.00  0.00    +0.000 A 
ATOM     12  C   UNL     1       3.316   1.560  18.488  0.00  0.00    +0.000 A 
ATOM     13  C   UNL     1       2.958   2.745  17.881  0.00  0.00    +0.000 A 
ENDBRANCH   8   9
ENDBRANCH   1   3
BRANCH   1  15
ATOM     14  S   UNL     1       7.541   5.641  18.311  0.00  0.00    +0.000 S 
ATOM     15  C   UNL     1       6.822   5.402  16.818  0.00  0.00    +0.000 C 
BRANCH  15  16
ATOM     16  N   UNL     1       7.394   5.588  15.578  0.00  0.00    +0.000 N 
ATOM     17  H   UNL     1       8.279   6.085  15.620  0.00  0.00    +0.000 HD
BRANCH  16  18
ATOM     18  C   UNL     1       7.116   4.923  14.372  0.00  0.00    +0.000 A 
ATOM     19  C   UNL     1       6.118   3.952  14.281  0.00  0.00    +0.000 A 
ATOM     20  C   UNL     1       5.822   3.361  13.051  0.00  0.00    +0.000 A 
ATOM     21  C   UNL     1       6.529   3.731  11.909  0.00  0.00    +0.000 A 
ATOM     22  C   UNL     1       7.521   4.706  11.992  0.00  0.00    +0.000 A 
ATOM     23  C   UNL     1       7.800   5.318  13.217  0.00  0.00    +0.000 A 
ENDBRANCH  16  18
ENDBRANCH  15  16
ENDBRANCH   1  15
TORSDOF 5
ENDMDL
MODEL 7
REMARK VINA RESULT:      -6.5      3.212      5.862
REMARK  Name = 
REMARK  5 active torsions:
REMARK  status: ('A' for Active; 'I' for Inactive)
REMARK    1  A    between atoms: C_2  and  N_3
REMARK    2  A    between atoms: C_2  and  N_10
REMARK    3  A    between atoms: N_3  and  C_4
REMARK    4  A    between atoms: N_10  and  C_11
REMARK    5  A    between atoms: C_16  and  N_17
REMARK                            x       y       z     vdW  Elec       q    Type
REMARK                         _______ _______ _______ _____ _____    ______ ____
ROOT
ATOM      1  N   UNL     1       5.260   5.501  16.559  0.00  0.00    +0.000 N 
ATOM      2  H   UNL     1       4.964   5.236  15.624  0.00  0.00    +0.000 HD
ENDROOT
BRANCH   1   3
ATOM      3  C   UNL     1       4.279   6.128  17.364  0.00  0.00    +0.000 A 
ATOM      4  C   UNL     1       4.070   7.512  17.221  0.00  0.00    +0.000 A 
ATOM      5  C   UNL     1       2.988   8.145  17.832  0.00  0.00    +0.000 A 
ATOM      6  C   UNL     1       2.102   7.409  18.607  0.00  0.00    +0.000 A 
ATOM      7  C   UNL     1       2.293   6.035  18.767  0.00  0.00    +0.000 A 
ATOM      8  C   UNL     1       3.378   5.380  18.150  0.00  0.00    +0.000 A 
BRANCH   8   9
ATOM      9  N   UNL     1       3.547   3.982  18.397  0.00  0.00    +0.000 N 
ATOM     10  C   UNL     1       4.224   3.395  19.451  0.00  0.00    +0.000 A 
ATOM     11  C   UNL     1       4.192   2.025  19.310  0.00  0.00    +0.000 A 
ATOM     12  C   UNL     1       3.433   1.744  18.158  0.00  0.00    +0.000 A 
ATOM     13  C   UNL     1       3.023   2.952  17.635  0.00  0.00    +0.000 A 
ENDBRANCH   8   9
ENDBRANCH   1   3
BRANCH   1  15
ATOM     14  S   UNL     1       7.167   5.578  18.345  0.00  0.00    +0.000 S 
ATOM     15  C   UNL     1       6.618   5.437  16.769  0.00  0.00    +0.000 C 
BRANCH  15  16
ATOM     16  N   UNL     1       7.377   5.430  15.620  0.00  0.00    +0.000 N 
ATOM     17  H   UNL     1       8.360   5.617  15.792  0.00  0.00    +0.000 HD
BRANCH  16  18
ATOM     18  C   UNL     1       7.063   4.887  14.362  0.00  0.00    +0.000 A 
ATOM     19  C   UNL     1       7.732   5.283  13.203  0.00  0.00    +0.000 A 
ATOM     20  C   UNL     1       7.443   4.673  11.980  0.00  0.00    +0.000 A 
ATOM     21  C   UNL     1       6.476   3.672  11.910  0.00  0.00    +0.000 A 
ATOM     22  C   UNL     1       5.810   3.267  13.065  0.00  0.00    +0.000 A 
ATOM     23  C   UNL     1       6.118   3.857  14.294  0.00  0.00    +0.000 A 
ENDBRANCH  16  18
ENDBRANCH  15  16
ENDBRANCH   1  15
TORSDOF 5
ENDMDL
MODEL 8
REMARK VINA RESULT:      -6.4      1.196      1.402
REMARK  Name = 
REMARK  5 active torsions:
REMARK  status: ('A' for Active; 'I' for Inactive)
REMARK    1  A    between atoms: C_2  and  N_3
REMARK    2  A    between atoms: C_2  and  N_10
REMARK    3  A    between atoms: N_3  and  C_4
REMARK    4  A    between atoms: N_10  and  C_11
REMARK    5  A    between atoms: C_16  and  N_17
REMARK                            x       y       z     vdW  Elec       q    Type
REMARK                         _______ _______ _______ _____ _____    ______ ____
ROOT
ATOM      1  N   UNL     1       4.132   6.212  18.559  0.00  0.00    +0.000 N 
ATOM      2  H   UNL     1       4.876   6.281  19.247  0.00  0.00    +0.000 HD
ENDROOT
BRANCH   1   3
ATOM      3  C   UNL     1       4.525   5.791  17.264  0.00  0.00    +0.000 A 
ATOM      4  C   UNL     1       4.830   6.768  16.300  0.00  0.00    +0.000 A 
ATOM      5  C   UNL     1       5.414   6.421  15.082  0.00  0.00    +0.000 A 
ATOM      6  C   UNL     1       5.692   5.090  14.801  0.00  0.00    +0.000 A 
ATOM      7  C   UNL     1       5.393   4.103  15.742  0.00  0.00    +0.000 A 
ATOM      8  C   UNL     1       4.809   4.439  16.980  0.00  0.00    +0.000 A 
BRANCH   8   9
ATOM      9  N   UNL     1       4.478   3.376  17.877  0.00  0.00    +0.000 N 
ATOM     10  C   UNL     1       3.661   2.290  17.622  0.00  0.00    +0.000 A 
ATOM     11  C   UNL     1       3.563   1.513  18.755  0.00  0.00    +0.000 A 
ATOM     12  C   UNL     1       4.381   2.106  19.736  0.00  0.00    +0.000 A 
ATOM     13  C   UNL     1       4.953   3.224  19.169  0.00  0.00    +0.000 A 
ENDBRANCH   8   9
ENDBRANCH   1   3
BRANCH   1  15
ATOM     14  S   UNL     1       2.377   8.078  18.039  0.00  0.00    +0.000 S 
ATOM     15  C   UNL     1       2.942   6.785  18.941  0.00  0.00    +0.000 C 
BRANCH  15  16
ATOM     16  N   UNL     1       2.438   6.319  20.135  0.00  0.00    +0.000 N 
ATOM     17  H   UNL     1       2.172   7.064  20.772  0.00  0.00    +0.000 HD
BRANCH  16  18
ATOM     18  C   UNL     1       1.944   5.039  20.443  0.00  0.00    +0.000 A 
ATOM     19  C   UNL     1       1.116   4.340  19.564  0.00  0.00    +0.000 A 
ATOM     20  C   UNL     1       0.700   3.043  19.870  0.00  0.00    +0.000 A 
ATOM     21  C   UNL     1       1.101   2.444  21.062  0.00  0.00    +0.000 A 
ATOM     22  C   UNL     1       1.935   3.134  21.941  0.00  0.00    +0.000 A 
ATOM     23  C   UNL     1       2.375   4.422  21.622  0.00  0.00    +0.000 A 
ENDBRANCH  16  18
ENDBRANCH  15  16
ENDBRANCH   1  15
TORSDOF 5
ENDMDL
MODEL 9
REMARK VINA RESULT:      -6.4      1.194      1.757
REMARK  Name = 
REMARK  5 active torsions:
REMARK  status: ('A' for Active; 'I' for Inactive)
REMARK    1  A    between atoms: C_2  and  N_3
REMARK    2  A    between atoms: C_2  and  N_10
REMARK    3  A    between atoms: N_3  and  C_4
REMARK    4  A    between atoms: N_10  and  C_11
REMARK    5  A    between atoms: C_16  and  N_17
REMARK                            x       y       z     vdW  Elec       q    Type
REMARK                         _______ _______ _______ _____ _____    ______ ____
ROOT
ATOM      1  N   UNL     1       4.164   6.216  18.521  0.00  0.00    +0.000 N 
ATOM      2  H   UNL     1       4.914   6.303  19.202  0.00  0.00    +0.000 HD
ENDROOT
BRANCH   1   3
ATOM      3  C   UNL     1       4.549   5.780  17.230  0.00  0.00    +0.000 A 
ATOM      4  C   UNL     1       4.856   6.744  16.254  0.00  0.00    +0.000 A 
ATOM      5  C   UNL     1       5.433   6.381  15.037  0.00  0.00    +0.000 A 
ATOM      6  C   UNL     1       5.701   5.045  14.770  0.00  0.00    +0.000 A 
ATOM      7  C   UNL     1       5.400   4.070  15.722  0.00  0.00    +0.000 A 
ATOM      8  C   UNL     1       4.823   4.423  16.959  0.00  0.00    +0.000 A 
BRANCH   8   9
ATOM      9  N   UNL     1       4.490   3.372  17.869  0.00  0.00    +0.000 N 
ATOM     10  C   UNL     1       3.656   2.294  17.632  0.00  0.00    +0.000 A 
ATOM     11  C   UNL     1       3.562   1.528  18.773  0.00  0.00    +0.000 A 
ATOM     12  C   UNL     1       4.398   2.118  19.739  0.00  0.00    +0.000 A 
ATOM     13  C   UNL     1       4.978   3.224  19.156  0.00  0.00    +0.000 A 
ENDBRANCH   8   9
ENDBRANCH   1   3
BRANCH   1  15
ATOM     14  S   UNL     1       2.407   8.084  18.012  0.00  0.00    +0.000 S 
ATOM     15  C   UNL     1       2.973   6.785  18.906  0.00  0.00    +0.000 C 
BRANCH  15  16
ATOM     16  N   UNL     1       2.468   6.310  20.097  0.00  0.00    +0.000 N 
ATOM     17  H   UNL     1       2.147   7.049  20.715  0.00  0.00    +0.000 HD
BRANCH  16  18
ATOM     18  C   UNL     1       2.039   5.010  20.414  0.00  0.00    +0.000 A 
ATOM     19  C   UNL     1       2.391   4.393  21.615  0.00  0.00    +0.000 A 
ATOM     20  C   UNL     1       1.890   3.128  21.929  0.00  0.00    +0.000 A 
ATOM     21  C   UNL     1       1.044   2.470  21.038  0.00  0.00    +0.000 A 
ATOM     22  C   UNL     1       0.683   3.084  19.841  0.00  0.00    +0.000 A 
ATOM     23  C   UNL     1       1.162   4.362  19.538  0.00  0.00    +0.000 A 
ENDBRANCH  16  18
ENDBRANCH  15  16
ENDBRANCH   1  15
TORSDOF 5
ENDMDL
