MODEL 1
REMARK VINA RESULT:      -7.5      0.000      0.000
REMARK  Name = 
REMARK  11 active torsions:
REMARK  status: ('A' for Active; 'I' for Inactive)
REMARK    1  A    between atoms: C_1  and  C_2
REMARK    2  A    between atoms: C_2  and  C_9
REMARK    3  A    between atoms: N_3  and  O_4
REMARK    4  A    between atoms: O_4  and  C_5
REMARK    5  A    between atoms: C_5  and  C_6
REMARK    6  A    between atoms: C_6  and  C_7
REMARK    7  A    between atoms: C_6  and  C_8
REMARK    8  A    between atoms: N_21  and  C_22
REMARK    9  A    between atoms: C_22  and  C_23
REMARK   10  A    between atoms: C_22  and  C_24
REMARK   11  A    between atoms: N_29  and  C_30
REMARK                            x       y       z     vdW  Elec       q    Type
REMARK                         _______ _______ _______ _____ _____    ______ ____
ROOT
ATOM      1  C   UNL     1       0.267  10.436  19.836  0.00  0.00    +0.000 A 
ATOM      2  C   UNL     1       0.797  11.253  20.839  0.00  0.00    +0.000 A 
ATOM      3  C   UNL     1       0.028  12.262  21.409  0.00  0.00    +0.000 A 
ATOM      4  C   UNL     1      -1.284  12.461  20.946  0.00  0.00    +0.000 A 
ATOM      5  C   UNL     1      -1.807  11.701  19.850  0.00  0.00    +0.000 A 
ATOM      6  C   UNL     1      -1.029  10.681  19.324  0.00  0.00    +0.000 A 
ATOM      7  C   UNL     1      -3.045  12.314  19.652  0.00  0.00    +0.000 A 
ATOM      8  C   UNL     1      -4.129  12.008  18.776  0.00  0.00    +0.000 A 
ATOM      9  C   UNL     1      -5.345  12.884  18.882  0.00  0.00    +0.000 A 
ATOM     10  C   UNL     1      -5.457  13.936  19.880  0.00  0.00    +0.000 A 
ATOM     11  C   UNL     1      -4.667  13.423  20.929  0.00  0.00    +0.000 A 
ATOM     12  C   UNL     1      -3.357  13.150  20.659  0.00  0.00    +0.000 A 
ATOM     13  N   UNL     1      -2.245  13.334  21.396  0.00  0.00    +0.000 N 
ATOM     14  C   UNL     1      -5.500  12.492  21.837  0.00  0.00    +0.000 C 
ATOM     15  C   UNL     1      -6.035  13.492  22.801  0.00  0.00    +0.000 C 
ATOM     16  C   UNL     1      -6.928  14.369  21.975  0.00  0.00    +0.000 A 
ATOM     17  N   UNL     1      -7.677  15.249  22.617  0.00  0.00    +0.000 NA
ATOM     18  N   UNL     1      -7.232  16.388  22.082  0.00  0.00    +0.000 N 
ATOM     19  C   UNL     1      -7.230  17.506  23.017  0.00  0.00    +0.000 C 
ATOM     20  C   UNL     1      -6.550  16.153  20.870  0.00  0.00    +0.000 A 
ATOM     21  C   UNL     1      -6.578  14.746  20.596  0.00  0.00    +0.000 A 
ATOM     22  C   UNL     1      -6.346  12.190  18.074  0.00  0.00    +0.000 C 
ATOM     23  O   UNL     1      -7.530  12.383  17.869  0.00  0.00    +0.000 OA
ATOM     24  N   UNL     1      -5.687  11.047  17.575  0.00  0.00    +0.000 N 
ATOM     25  C   UNL     1      -4.328  10.799  17.980  0.00  0.00    +0.000 C 
ATOM     26  H   UNL     1      -6.249  10.309  17.132  0.00  0.00    +0.000 HD
ENDROOT
BRANCH   1  28
ATOM     27  C   UNL     1       1.406   9.167  17.882  0.00  0.00    +0.000 C 
ATOM     28  C   UNL     1       1.082   9.263  19.378  0.00  0.00    +0.000 C 
ATOM     29  N   UNL     1       1.485   8.379  20.250  0.00  0.00    +0.000 NA
BRANCH  29  30
ATOM     30  O   UNL     1       2.216   7.353  19.633  0.00  0.00    +0.000 OA
BRANCH  30  31
ATOM     31  C   UNL     1       2.008   6.126  20.329  0.00  0.00    +0.000 C 
BRANCH  31  32
ATOM     32  C   UNL     1       2.415   4.965  19.412  0.00  0.00    +0.000 C 
ATOM     33  C   UNL     1       1.323   3.894  19.334  0.00  0.00    +0.000 C 
ATOM     34  C   UNL     1       2.760   5.473  18.014  0.00  0.00    +0.000 C 
ENDBRANCH  31  32
ENDBRANCH  30  31
ENDBRANCH  29  30
ENDBRANCH   1  28
BRANCH  13  35
ATOM     35  C   UNL     1      -2.192  14.426  22.348  0.00  0.00    +0.000 C 
ATOM     36  C   UNL     1      -1.926  14.045  23.805  0.00  0.00    +0.000 C 
ATOM     37  C   UNL     1      -1.277  15.570  21.899  0.00  0.00    +0.000 C 
ENDBRANCH  13  35
TORSDOF 5
ENDMDL
MODEL 2
REMARK VINA RESULT:      -7.0      0.909      1.276
REMARK  Name = 
REMARK  11 active torsions:
REMARK  status: ('A' for Active; 'I' for Inactive)
REMARK    1  A    between atoms: C_1  and  C_2
REMARK    2  A    between atoms: C_2  and  C_9
REMARK    3  A    between atoms: N_3  and  O_4
REMARK    4  A    between atoms: O_4  and  C_5
REMARK    5  A    between atoms: C_5  and  C_6
REMARK    6  A    between atoms: C_6  and  C_7
REMARK    7  A    between atoms: C_6  and  C_8
REMARK    8  A    between atoms: N_21  and  C_22
REMARK    9  A    between atoms: C_22  and  C_23
REMARK   10  A    between atoms: C_22  and  C_24
REMARK   11  A    between atoms: N_29  and  C_30
REMARK                            x       y       z     vdW  Elec       q    Type
REMARK                         _______ _______ _______ _____ _____    ______ ____
ROOT
ATOM      1  C   UNL     1       0.256  10.293  20.012  0.00  0.00    +0.000 A 
ATOM      2  C   UNL     1       0.774  11.131  21.004  0.00  0.00    +0.000 A 
ATOM      3  C   UNL     1       0.013  12.178  21.513  0.00  0.00    +0.000 A 
ATOM      4  C   UNL     1      -1.277  12.393  20.998  0.00  0.00    +0.000 A 
ATOM      5  C   UNL     1      -1.783  11.609  19.912  0.00  0.00    +0.000 A 
ATOM      6  C   UNL     1      -1.015  10.552  19.448  0.00  0.00    +0.000 A 
ATOM      7  C   UNL     1      -2.998  12.245  19.651  0.00  0.00    +0.000 A 
ATOM      8  C   UNL     1      -4.059  11.935  18.748  0.00  0.00    +0.000 A 
ATOM      9  C   UNL     1      -5.255  12.845  18.782  0.00  0.00    +0.000 A 
ATOM     10  C   UNL     1      -5.373  13.934  19.740  0.00  0.00    +0.000 A 
ATOM     11  C   UNL     1      -4.632  13.438  20.833  0.00  0.00    +0.000 A 
ATOM     12  C   UNL     1      -3.321  13.123  20.617  0.00  0.00    +0.000 A 
ATOM     13  N   UNL     1      -2.230  13.305  21.385  0.00  0.00    +0.000 N 
ATOM     14  C   UNL     1      -5.519  12.560  21.742  0.00  0.00    +0.000 C 
ATOM     15  C   UNL     1      -6.059  13.606  22.652  0.00  0.00    +0.000 C 
ATOM     16  C   UNL     1      -6.902  14.475  21.767  0.00  0.00    +0.000 A 
ATOM     17  N   UNL     1      -7.648  15.396  22.353  0.00  0.00    +0.000 NA
ATOM     18  N   UNL     1      -7.156  16.504  21.795  0.00  0.00    +0.000 N 
ATOM     19  C   UNL     1      -7.156  17.654  22.691  0.00  0.00    +0.000 C 
ATOM     20  C   UNL     1      -6.440  16.210  20.616  0.00  0.00    +0.000 A 
ATOM     21  C   UNL     1      -6.495  14.795  20.389  0.00  0.00    +0.000 A 
ATOM     22  C   UNL     1      -6.246  12.148  17.964  0.00  0.00    +0.000 C 
ATOM     23  O   UNL     1      -7.417  12.364  17.713  0.00  0.00    +0.000 OA
ATOM     24  N   UNL     1      -5.601  10.973  17.528  0.00  0.00    +0.000 N 
ATOM     25  C   UNL     1      -4.263  10.705  17.987  0.00  0.00    +0.000 C 
ATOM     26  H   UNL     1      -6.167  10.234  17.091  0.00  0.00    +0.000 HD
ENDROOT
BRANCH   1  28
ATOM     27  C   UNL     1       1.439   8.100  20.732  0.00  0.00    +0.000 C 
ATOM     28  C   UNL     1       1.055   9.085  19.622  0.00  0.00    +0.000 C 
ATOM     29  N   UNL     1       1.389   8.911  18.372  0.00  0.00    +0.000 NA
BRANCH  29  30
ATOM     30  O   UNL     1       2.143   7.739  18.205  0.00  0.00    +0.000 OA
BRANCH  30  31
ATOM     31  C   UNL     1       3.367   8.043  17.541  0.00  0.00    +0.000 C 
BRANCH  31  32
ATOM     32  C   UNL     1       4.246   6.784  17.528  0.00  0.00    +0.000 C 
ATOM     33  C   UNL     1       3.436   5.525  17.851  0.00  0.00    +0.000 C 
ATOM     34  C   UNL     1       4.952   6.629  16.183  0.00  0.00    +0.000 C 
ENDBRANCH  31  32
ENDBRANCH  30  31
ENDBRANCH  29  30
ENDBRANCH   1  28
BRANCH  13  35
ATOM     35  C   UNL     1      -2.180  14.427  22.301  0.00  0.00    +0.000 C 
ATOM     36  C   UNL     1      -1.847  14.102  23.757  0.00  0.00    +0.000 C 
ATOM     37  C   UNL     1      -1.324  15.588  21.782  0.00  0.00    +0.000 C 
ENDBRANCH  13  35
TORSDOF 5
ENDMDL
MODEL 3
REMARK VINA RESULT:      -7.0      3.760      4.974
REMARK  Name = 
REMARK  11 active torsions:
REMARK  status: ('A' for Active; 'I' for Inactive)
REMARK    1  A    between atoms: C_1  and  C_2
REMARK    2  A    between atoms: C_2  and  C_9
REMARK    3  A    between atoms: N_3  and  O_4
REMARK    4  A    between atoms: O_4  and  C_5
REMARK    5  A    between atoms: C_5  and  C_6
REMARK    6  A    between atoms: C_6  and  C_7
REMARK    7  A    between atoms: C_6  and  C_8
REMARK    8  A    between atoms: N_21  and  C_22
REMARK    9  A    between atoms: C_22  and  C_23
REMARK   10  A    between atoms: C_22  and  C_24
REMARK   11  A    between atoms: N_29  and  C_30
REMARK                            x       y       z     vdW  Elec       q    Type
REMARK                         _______ _______ _______ _____ _____    ______ ____
ROOT
ATOM      1  C   UNL     1       1.152   8.730  20.801  0.00  0.00    +0.000 A 
ATOM      2  C   UNL     1       0.264   8.656  21.878  0.00  0.00    +0.000 A 
ATOM      3  C   UNL     1      -0.331   9.806  22.385  0.00  0.00    +0.000 A 
ATOM      4  C   UNL     1      -0.008  11.048  21.811  0.00  0.00    +0.000 A 
ATOM      5  C   UNL     1       0.976  11.153  20.776  0.00  0.00    +0.000 A 
ATOM      6  C   UNL     1       1.528   9.987  20.269  0.00  0.00    +0.000 A 
ATOM      7  C   UNL     1       1.068  12.537  20.619  0.00  0.00    +0.000 A 
ATOM      8  C   UNL     1       1.798  13.343  19.694  0.00  0.00    +0.000 A 
ATOM      9  C   UNL     1       1.606  14.829  19.803  0.00  0.00    +0.000 A 
ATOM     10  C   UNL     1       0.663  15.421  20.740  0.00  0.00    +0.000 A 
ATOM     11  C   UNL     1      -0.318  14.413  20.838  0.00  0.00    +0.000 A 
ATOM     12  C   UNL     1       0.082  13.181  21.268  0.00  0.00    +0.000 A 
ATOM     13  N   UNL     1      -0.513  12.295  22.089  0.00  0.00    +0.000 N 
ATOM     14  C   UNL     1      -1.366  14.558  19.711  0.00  0.00    +0.000 C 
ATOM     15  C   UNL     1      -2.325  15.481  20.377  0.00  0.00    +0.000 C 
ATOM     16  C   UNL     1      -1.556  16.756  20.556  0.00  0.00    +0.000 A 
ATOM     17  N   UNL     1      -2.227  17.816  20.974  0.00  0.00    +0.000 NA
ATOM     18  N   UNL     1      -1.581  18.085  22.110  0.00  0.00    +0.000 N 
ATOM     19  C   UNL     1      -2.444  18.621  23.155  0.00  0.00    +0.000 C 
ATOM     20  C   UNL     1      -0.315  17.464  22.139  0.00  0.00    +0.000 A 
ATOM     21  C   UNL     1      -0.127  16.752  20.909  0.00  0.00    +0.000 A 
ATOM     22  C   UNL     1       2.255  15.354  18.603  0.00  0.00    +0.000 C 
ATOM     23  O   UNL     1       2.336  16.468  18.121  0.00  0.00    +0.000 OA
ATOM     24  N   UNL     1       2.759  14.220  17.933  0.00  0.00    +0.000 N 
ATOM     25  C   UNL     1       2.496  12.916  18.484  0.00  0.00    +0.000 C 
ATOM     26  H   UNL     1       3.093  14.327  16.967  0.00  0.00    +0.000 HD
ENDROOT
BRANCH   1  28
ATOM     27  C   UNL     1       2.317   7.524  18.822  0.00  0.00    +0.000 C 
ATOM     28  C   UNL     1       1.632   7.447  20.192  0.00  0.00    +0.000 C 
ATOM     29  N   UNL     1       1.458   6.324  20.836  0.00  0.00    +0.000 NA
BRANCH  29  30
ATOM     30  O   UNL     1       1.955   5.236  20.104  0.00  0.00    +0.000 OA
BRANCH  30  31
ATOM     31  C   UNL     1       1.063   4.129  20.216  0.00  0.00    +0.000 C 
BRANCH  31  32
ATOM     32  C   UNL     1       1.119   3.317  18.914  0.00  0.00    +0.000 C 
ATOM     33  C   UNL     1       1.708   4.136  17.761  0.00  0.00    +0.000 C 
ATOM     34  C   UNL     1       1.916   2.031  19.112  0.00  0.00    +0.000 C 
ENDBRANCH  31  32
ENDBRANCH  30  31
ENDBRANCH  29  30
ENDBRANCH   1  28
BRANCH  13  35
ATOM     35  C   UNL     1      -1.389  12.772  23.140  0.00  0.00    +0.000 C 
ATOM     36  C   UNL     1      -1.095  14.168  23.690  0.00  0.00    +0.000 C 
ATOM     37  C   UNL     1      -2.876  12.613  22.802  0.00  0.00    +0.000 C 
ENDBRANCH  13  35
TORSDOF 5
ENDMDL
MODEL 4
REMARK VINA RESULT:      -6.9      2.725      3.512
REMARK  Name = 
REMARK  11 active torsions:
REMARK  status: ('A' for Active; 'I' for Inactive)
REMARK    1  A    between atoms: C_1  and  C_2
REMARK    2  A    between atoms: C_2  and  C_9
REMARK    3  A    between atoms: N_3  and  O_4
REMARK    4  A    between atoms: O_4  and  C_5
REMARK    5  A    between atoms: C_5  and  C_6
REMARK    6  A    between atoms: C_6  and  C_7
REMARK    7  A    between atoms: C_6  and  C_8
REMARK    8  A    between atoms: N_21  and  C_22
REMARK    9  A    between atoms: C_22  and  C_23
REMARK   10  A    between atoms: C_22  and  C_24
REMARK   11  A    between atoms: N_29  and  C_30
REMARK                            x       y       z     vdW  Elec       q    Type
REMARK                         _______ _______ _______ _____ _____    ______ ____
ROOT
ATOM      1  C   UNL     1       0.391   9.932  21.189  0.00  0.00    +0.000 A 
ATOM      2  C   UNL     1      -0.194   9.591  22.412  0.00  0.00    +0.000 A 
ATOM      3  C   UNL     1      -0.990  10.505  23.094  0.00  0.00    +0.000 A 
ATOM      4  C   UNL     1      -1.179  11.785  22.545  0.00  0.00    +0.000 A 
ATOM      5  C   UNL     1      -0.504  12.184  21.346  0.00  0.00    +0.000 A 
ATOM      6  C   UNL     1       0.256  11.242  20.671  0.00  0.00    +0.000 A 
ATOM      7  C   UNL     1      -0.866  13.530  21.259  0.00  0.00    +0.000 A 
ATOM      8  C   UNL     1      -0.616  14.519  20.260  0.00  0.00    +0.000 A 
ATOM      9  C   UNL     1      -1.219  15.875  20.495  0.00  0.00    +0.000 A 
ATOM     10  C   UNL     1      -2.084  16.152  21.631  0.00  0.00    +0.000 A 
ATOM     11  C   UNL     1      -2.676  14.892  21.857  0.00  0.00    +0.000 A 
ATOM     12  C   UNL     1      -1.846  13.842  22.125  0.00  0.00    +0.000 A 
ATOM     13  N   UNL     1      -1.967  12.818  22.991  0.00  0.00    +0.000 N 
ATOM     14  C   UNL     1      -3.926  14.707  20.968  0.00  0.00    +0.000 C 
ATOM     15  C   UNL     1      -4.960  15.293  21.862  0.00  0.00    +0.000 C 
ATOM     16  C   UNL     1      -4.590  16.743  21.965  0.00  0.00    +0.000 A 
ATOM     17  N   UNL     1      -5.448  17.548  22.569  0.00  0.00    +0.000 NA
ATOM     18  N   UNL     1      -4.695  18.003  23.572  0.00  0.00    +0.000 N 
ATOM     19  C   UNL     1      -5.447  18.251  24.796  0.00  0.00    +0.000 C 
ATOM     20  C   UNL     1      -3.323  17.799  23.316  0.00  0.00    +0.000 A 
ATOM     21  C   UNL     1      -3.186  17.177  22.032  0.00  0.00    +0.000 A 
ATOM     22  C   UNL     1      -1.017  16.571  19.225  0.00  0.00    +0.000 C 
ATOM     23  O   UNL     1      -1.374  17.655  18.805  0.00  0.00    +0.000 OA
ATOM     24  N   UNL     1      -0.344  15.644  18.402  0.00  0.00    +0.000 N 
ATOM     25  C   UNL     1      -0.085  14.323  18.913  0.00  0.00    +0.000 C 
ATOM     26  H   UNL     1      -0.262  15.847  17.398  0.00  0.00    +0.000 HD
ENDROOT
BRANCH   1  28
ATOM     27  C   UNL     1       1.467   9.151  18.962  0.00  0.00    +0.000 C 
ATOM     28  C   UNL     1       1.099   8.855  20.421  0.00  0.00    +0.000 C 
ATOM     29  N   UNL     1       1.378   7.723  21.008  0.00  0.00    +0.000 NA
BRANCH  29  30
ATOM     30  O   UNL     1       2.023   6.840  20.130  0.00  0.00    +0.000 OA
BRANCH  30  31
ATOM     31  C   UNL     1       2.230   5.584  20.773  0.00  0.00    +0.000 C 
BRANCH  31  32
ATOM     32  C   UNL     1       2.113   4.469  19.724  0.00  0.00    +0.000 C 
ATOM     33  C   UNL     1       0.907   3.565  19.990  0.00  0.00    +0.000 C 
ATOM     34  C   UNL     1       2.036   5.055  18.316  0.00  0.00    +0.000 C 
ENDBRANCH  31  32
ENDBRANCH  30  31
ENDBRANCH  29  30
ENDBRANCH   1  28
BRANCH  13  35
ATOM     35  C   UNL     1      -2.712  13.006  24.220  0.00  0.00    +0.000 C 
ATOM     36  C   UNL     1      -2.672  14.406  24.832  0.00  0.00    +0.000 C 
ATOM     37  C   UNL     1      -4.149  12.478  24.139  0.00  0.00    +0.000 C 
ENDBRANCH  13  35
TORSDOF 5
ENDMDL
MODEL 5
REMARK VINA RESULT:      -6.9      4.887      6.436
REMARK  Name = 
REMARK  11 active torsions:
REMARK  status: ('A' for Active; 'I' for Inactive)
REMARK    1  A    between atoms: C_1  and  C_2
REMARK    2  A    between atoms: C_2  and  C_9
REMARK    3  A    between atoms: N_3  and  O_4
REMARK    4  A    between atoms: O_4  and  C_5
REMARK    5  A    between atoms: C_5  and  C_6
REMARK    6  A    between atoms: C_6  and  C_7
REMARK    7  A    between atoms: C_6  and  C_8
REMARK    8  A    between atoms: N_21  and  C_22
REMARK    9  A    between atoms: C_22  and  C_23
REMARK   10  A    between atoms: C_22  and  C_24
REMARK   11  A    between atoms: N_29  and  C_30
REMARK                            x       y       z     vdW  Elec       q    Type
REMARK                         _______ _______ _______ _____ _____    ______ ____
ROOT
ATOM      1  C   UNL     1       4.634  15.678  19.045  0.00  0.00    +0.000 A 
ATOM      2  C   UNL     1       4.215  16.802  19.762  0.00  0.00    +0.000 A 
ATOM      3  C   UNL     1       2.940  16.852  20.317  0.00  0.00    +0.000 A 
ATOM      4  C   UNL     1       2.073  15.763  20.127  0.00  0.00    +0.000 A 
ATOM      5  C   UNL     1       2.450  14.649  19.309  0.00  0.00    +0.000 A 
ATOM      6  C   UNL     1       3.738  14.612  18.797  0.00  0.00    +0.000 A 
ATOM      7  C   UNL     1       1.269  13.904  19.291  0.00  0.00    +0.000 A 
ATOM      8  C   UNL     1       0.958  12.627  18.734  0.00  0.00    +0.000 A 
ATOM      9  C   UNL     1      -0.438  12.119  18.961  0.00  0.00    +0.000 A 
ATOM     10  C   UNL     1      -1.401  12.841  19.777  0.00  0.00    +0.000 A 
ATOM     11  C   UNL     1      -0.562  13.504  20.696  0.00  0.00    +0.000 A 
ATOM     12  C   UNL     1       0.380  14.354  20.194  0.00  0.00    +0.000 A 
ATOM     13  N   UNL     1       0.812  15.553  20.630  0.00  0.00    +0.000 N 
ATOM     14  C   UNL     1      -0.244  12.593  21.903  0.00  0.00    +0.000 C 
ATOM     15  C   UNL     1      -1.392  12.935  22.786  0.00  0.00    +0.000 C 
ATOM     16  C   UNL     1      -2.597  12.437  22.046  0.00  0.00    +0.000 A 
ATOM     17  N   UNL     1      -3.754  12.456  22.686  0.00  0.00    +0.000 NA
ATOM     18  N   UNL     1      -4.463  13.260  21.890  0.00  0.00    +0.000 N 
ATOM     19  C   UNL     1      -5.420  14.091  22.609  0.00  0.00    +0.000 C 
ATOM     20  C   UNL     1      -3.875  13.363  20.612  0.00  0.00    +0.000 A 
ATOM     21  C   UNL     1      -2.701  12.542  20.581  0.00  0.00    +0.000 A 
ATOM     22  C   UNL     1      -0.379  10.728  18.515  0.00  0.00    +0.000 C 
ATOM     23  O   UNL     1      -1.177   9.810  18.546  0.00  0.00    +0.000 OA
ATOM     24  N   UNL     1       0.948  10.540  18.075  0.00  0.00    +0.000 N 
ATOM     25  C   UNL     1       1.883  11.626  18.206  0.00  0.00    +0.000 C 
ATOM     26  H   UNL     1       1.273   9.582  17.890  0.00  0.00    +0.000 HD
ENDROOT
BRANCH   1  28
ATOM     27  C   UNL     1       6.895  16.900  18.698  0.00  0.00    +0.000 C 
ATOM     28  C   UNL     1       6.069  15.611  18.614  0.00  0.00    +0.000 C 
ATOM     29  N   UNL     1       6.562  14.478  18.193  0.00  0.00    +0.000 NA
BRANCH  29  30
ATOM     30  O   UNL     1       7.908  14.616  17.821  0.00  0.00    +0.000 OA
BRANCH  30  31
ATOM     31  C   UNL     1       8.711  13.707  18.570  0.00  0.00    +0.000 C 
BRANCH  31  32
ATOM     32  C   UNL     1       9.333  12.689  17.603  0.00  0.00    +0.000 C 
ATOM     33  C   UNL     1      10.763  13.076  17.214  0.00  0.00    +0.000 C 
ATOM     34  C   UNL     1       9.309  11.286  18.203  0.00  0.00    +0.000 C 
ENDBRANCH  31  32
ENDBRANCH  30  31
ENDBRANCH  29  30
ENDBRANCH   1  28
BRANCH  13  35
ATOM     35  C   UNL     1      -0.096  16.417  21.358  0.00  0.00    +0.000 C 
ATOM     36  C   UNL     1       0.291  16.748  22.800  0.00  0.00    +0.000 C 
ATOM     37  C   UNL     1      -0.473  17.684  20.581  0.00  0.00    +0.000 C 
ENDBRANCH  13  35
TORSDOF 5
ENDMDL
MODEL 6
REMARK VINA RESULT:      -6.8      4.589      5.973
REMARK  Name = 
REMARK  11 active torsions:
REMARK  status: ('A' for Active; 'I' for Inactive)
REMARK    1  A    between atoms: C_1  and  C_2
REMARK    2  A    between atoms: C_2  and  C_9
REMARK    3  A    between atoms: N_3  and  O_4
REMARK    4  A    between atoms: O_4  and  C_5
REMARK    5  A    between atoms: C_5  and  C_6
REMARK    6  A    between atoms: C_6  and  C_7
REMARK    7  A    between atoms: C_6  and  C_8
REMARK    8  A    between atoms: N_21  and  C_22
REMARK    9  A    between atoms: C_22  and  C_23
REMARK   10  A    between atoms: C_22  and  C_24
REMARK   11  A    between atoms: N_29  and  C_30
REMARK                            x       y       z     vdW  Elec       q    Type
REMARK                         _______ _______ _______ _____ _____    ______ ____
ROOT
ATOM      1  C   UNL     1       4.419  15.195  19.341  0.00  0.00    +0.000 A 
ATOM      2  C   UNL     1       4.113  16.310  20.125  0.00  0.00    +0.000 A 
ATOM      3  C   UNL     1       2.855  16.445  20.703  0.00  0.00    +0.000 A 
ATOM      4  C   UNL     1       1.889  15.451  20.467  0.00  0.00    +0.000 A 
ATOM      5  C   UNL     1       2.153  14.356  19.583  0.00  0.00    +0.000 A 
ATOM      6  C   UNL     1       3.426  14.230  19.049  0.00  0.00    +0.000 A 
ATOM      7  C   UNL     1       0.908  13.724  19.543  0.00  0.00    +0.000 A 
ATOM      8  C   UNL     1       0.475  12.514  18.922  0.00  0.00    +0.000 A 
ATOM      9  C   UNL     1      -0.959  12.124  19.143  0.00  0.00    +0.000 A 
ATOM     10  C   UNL     1      -1.843  12.884  20.013  0.00  0.00    +0.000 A 
ATOM     11  C   UNL     1      -0.937  13.415  20.954  0.00  0.00    +0.000 A 
ATOM     12  C   UNL     1       0.074  14.202  20.484  0.00  0.00    +0.000 A 
ATOM     13  N   UNL     1       0.619  15.330  20.978  0.00  0.00    +0.000 N 
ATOM     14  C   UNL     1      -0.691  12.412  22.103  0.00  0.00    +0.000 C 
ATOM     15  C   UNL     1      -1.792  12.807  23.022  0.00  0.00    +0.000 C 
ATOM     16  C   UNL     1      -3.046  12.463  22.275  0.00  0.00    +0.000 A 
ATOM     17  N   UNL     1      -4.189  12.552  22.934  0.00  0.00    +0.000 NA
ATOM     18  N   UNL     1      -4.830  13.460  22.195  0.00  0.00    +0.000 N 
ATOM     19  C   UNL     1      -5.698  14.334  22.974  0.00  0.00    +0.000 C 
ATOM     20  C   UNL     1      -4.249  13.582  20.916  0.00  0.00    +0.000 A 
ATOM     21  C   UNL     1      -3.156  12.660  20.821  0.00  0.00    +0.000 A 
ATOM     22  C   UNL     1      -1.034  10.761  18.620  0.00  0.00    +0.000 C 
ATOM     23  O   UNL     1      -1.913   9.920  18.614  0.00  0.00    +0.000 OA
ATOM     24  N   UNL     1       0.265  10.477  18.149  0.00  0.00    +0.000 N 
ATOM     25  C   UNL     1       1.297  11.465  18.325  0.00  0.00    +0.000 C 
ATOM     26  H   UNL     1       0.499   9.506  17.906  0.00  0.00    +0.000 HD
ENDROOT
BRANCH   1  28
ATOM     27  C   UNL     1       6.930  15.760  19.667  0.00  0.00    +0.000 C 
ATOM     28  C   UNL     1       5.837  15.021  18.884  0.00  0.00    +0.000 C 
ATOM     29  N   UNL     1       6.093  14.259  17.856  0.00  0.00    +0.000 NA
BRANCH  29  30
ATOM     30  O   UNL     1       7.467  14.233  17.571  0.00  0.00    +0.000 OA
BRANCH  30  31
ATOM     31  C   UNL     1       7.864  12.907  17.229  0.00  0.00    +0.000 C 
BRANCH  31  32
ATOM     32  C   UNL     1       9.119  12.545  18.037  0.00  0.00    +0.000 C 
ATOM     33  C   UNL     1       9.247  11.033  18.237  0.00  0.00    +0.000 C 
ATOM     34  C   UNL     1      10.374  13.100  17.368  0.00  0.00    +0.000 C 
ENDBRANCH  31  32
ENDBRANCH  30  31
ENDBRANCH  29  30
ENDBRANCH   1  28
BRANCH  13  35
ATOM     35  C   UNL     1      -0.196  16.231  21.768  0.00  0.00    +0.000 C 
ATOM     36  C   UNL     1      -1.655  16.383  21.336  0.00  0.00    +0.000 C 
ATOM     37  C   UNL     1      -0.089  15.973  23.275  0.00  0.00    +0.000 C 
ENDBRANCH  13  35
TORSDOF 5
ENDMDL
MODEL 7
REMARK VINA RESULT:      -6.7      3.842      5.029
REMARK  Name = 
REMARK  11 active torsions:
REMARK  status: ('A' for Active; 'I' for Inactive)
REMARK    1  A    between atoms: C_1  and  C_2
REMARK    2  A    between atoms: C_2  and  C_9
REMARK    3  A    between atoms: N_3  and  O_4
REMARK    4  A    between atoms: O_4  and  C_5
REMARK    5  A    between atoms: C_5  and  C_6
REMARK    6  A    between atoms: C_6  and  C_7
REMARK    7  A    between atoms: C_6  and  C_8
REMARK    8  A    between atoms: N_21  and  C_22
REMARK    9  A    between atoms: C_22  and  C_23
REMARK   10  A    between atoms: C_22  and  C_24
REMARK   11  A    between atoms: N_29  and  C_30
REMARK                            x       y       z     vdW  Elec       q    Type
REMARK                         _______ _______ _______ _____ _____    ______ ____
ROOT
ATOM      1  C   UNL     1       1.851   8.182  19.399  0.00  0.00    +0.000 A 
ATOM      2  C   UNL     1       2.406   8.809  18.281  0.00  0.00    +0.000 A 
ATOM      3  C   UNL     1       2.175  10.160  18.040  0.00  0.00    +0.000 A 
ATOM      4  C   UNL     1       1.355  10.878  18.928  0.00  0.00    +0.000 A 
ATOM      5  C   UNL     1       0.696  10.227  20.020  0.00  0.00    +0.000 A 
ATOM      6  C   UNL     1       0.972   8.889  20.254  0.00  0.00    +0.000 A 
ATOM      7  C   UNL     1      -0.093  11.261  20.526  0.00  0.00    +0.000 A 
ATOM      8  C   UNL     1      -0.942  11.338  21.671  0.00  0.00    +0.000 A 
ATOM      9  C   UNL     1      -1.606  12.662  21.925  0.00  0.00    +0.000 A 
ATOM     10  C   UNL     1      -1.337  13.833  21.106  0.00  0.00    +0.000 A 
ATOM     11  C   UNL     1      -0.010  13.597  20.692  0.00  0.00    +0.000 A 
ATOM     12  C   UNL     1       0.240  12.451  19.994  0.00  0.00    +0.000 A 
ATOM     13  N   UNL     1       1.043  12.216  18.939  0.00  0.00    +0.000 N 
ATOM     14  C   UNL     1       0.993  14.119  21.745  0.00  0.00    +0.000 C 
ATOM     15  C   UNL     1       1.151  15.520  21.269  0.00  0.00    +0.000 C 
ATOM     16  C   UNL     1      -0.200  16.139  21.469  0.00  0.00    +0.000 A 
ATOM     17  N   UNL     1      -0.303  17.445  21.286  0.00  0.00    +0.000 NA
ATOM     18  N   UNL     1      -1.202  17.486  20.301  0.00  0.00    +0.000 N 
ATOM     19  C   UNL     1      -0.990  18.585  19.367  0.00  0.00    +0.000 C 
ATOM     20  C   UNL     1      -1.911  16.271  20.202  0.00  0.00    +0.000 A 
ATOM     21  C   UNL     1      -1.439  15.383  21.224  0.00  0.00    +0.000 A 
ATOM     22  C   UNL     1      -2.183  12.511  23.260  0.00  0.00    +0.000 C 
ATOM     23  O   UNL     1      -2.753  13.279  24.011  0.00  0.00    +0.000 OA
ATOM     24  N   UNL     1      -1.853  11.198  23.656  0.00  0.00    +0.000 N 
ATOM     25  C   UNL     1      -1.045  10.391  22.779  0.00  0.00    +0.000 C 
ATOM     26  H   UNL     1      -1.994  10.930  24.639  0.00  0.00    +0.000 HD
ENDROOT
BRANCH   1  28
ATOM     27  C   UNL     1       3.360   6.155  18.815  0.00  0.00    +0.000 C 
ATOM     28  C   UNL     1       2.269   6.773  19.697  0.00  0.00    +0.000 C 
ATOM     29  N   UNL     1       1.704   6.129  20.683  0.00  0.00    +0.000 NA
BRANCH  29  30
ATOM     30  O   UNL     1       2.212   4.826  20.797  0.00  0.00    +0.000 OA
BRANCH  30  31
ATOM     31  C   UNL     1       1.152   3.881  20.666  0.00  0.00    +0.000 C 
BRANCH  31  32
ATOM     32  C   UNL     1       1.570   2.811  19.648  0.00  0.00    +0.000 C 
ATOM     33  C   UNL     1       1.242   3.234  18.213  0.00  0.00    +0.000 C 
ATOM     34  C   UNL     1       3.057   2.489  19.778  0.00  0.00    +0.000 C 
ENDBRANCH  31  32
ENDBRANCH  30  31
ENDBRANCH  29  30
ENDBRANCH   1  28
BRANCH  13  35
ATOM     35  C   UNL     1       1.296  13.277  17.984  0.00  0.00    +0.000 C 
ATOM     36  C   UNL     1       0.195  14.325  17.824  0.00  0.00    +0.000 C 
ATOM     37  C   UNL     1       2.667  13.937  18.169  0.00  0.00    +0.000 C 
ENDBRANCH  13  35
TORSDOF 5
ENDMDL
MODEL 8
REMARK VINA RESULT:      -6.6      3.799      5.137
REMARK  Name = 
REMARK  11 active torsions:
REMARK  status: ('A' for Active; 'I' for Inactive)
REMARK    1  A    between atoms: C_1  and  C_2
REMARK    2  A    between atoms: C_2  and  C_9
REMARK    3  A    between atoms: N_3  and  O_4
REMARK    4  A    between atoms: O_4  and  C_5
REMARK    5  A    between atoms: C_5  and  C_6
REMARK    6  A    between atoms: C_6  and  C_7
REMARK    7  A    between atoms: C_6  and  C_8
REMARK    8  A    between atoms: N_21  and  C_22
REMARK    9  A    between atoms: C_22  and  C_23
REMARK   10  A    between atoms: C_22  and  C_24
REMARK   11  A    between atoms: N_29  and  C_30
REMARK                            x       y       z     vdW  Elec       q    Type
REMARK                         _______ _______ _______ _____ _____    ______ ____
ROOT
ATOM      1  C   UNL     1       2.070   7.845  19.339  0.00  0.00    +0.000 A 
ATOM      2  C   UNL     1       2.544   8.499  18.199  0.00  0.00    +0.000 A 
ATOM      3  C   UNL     1       2.219   9.830  17.959  0.00  0.00    +0.000 A 
ATOM      4  C   UNL     1       1.386  10.500  18.872  0.00  0.00    +0.000 A 
ATOM      5  C   UNL     1       0.809   9.816  19.990  0.00  0.00    +0.000 A 
ATOM      6  C   UNL     1       1.179   8.500  20.221  0.00  0.00    +0.000 A 
ATOM      7  C   UNL     1      -0.026  10.802  20.519  0.00  0.00    +0.000 A 
ATOM      8  C   UNL     1      -0.838  10.832  21.693  0.00  0.00    +0.000 A 
ATOM      9  C   UNL     1      -1.576  12.113  21.964  0.00  0.00    +0.000 A 
ATOM     10  C   UNL     1      -1.411  13.293  21.131  0.00  0.00    +0.000 A 
ATOM     11  C   UNL     1      -0.087  13.139  20.671  0.00  0.00    +0.000 A 
ATOM     12  C   UNL     1       0.211  12.006  19.970  0.00  0.00    +0.000 A 
ATOM     13  N   UNL     1       0.990  11.816  18.888  0.00  0.00    +0.000 N 
ATOM     14  C   UNL     1       0.917  13.732  21.685  0.00  0.00    +0.000 C 
ATOM     15  C   UNL     1       0.968  15.137  21.197  0.00  0.00    +0.000 C 
ATOM     16  C   UNL     1      -0.413  15.669  21.441  0.00  0.00    +0.000 A 
ATOM     17  N   UNL     1      -0.606  16.964  21.256  0.00  0.00    +0.000 NA
ATOM     18  N   UNL     1      -1.539  16.942  20.303  0.00  0.00    +0.000 N 
ATOM     19  C   UNL     1      -1.430  18.046  19.358  0.00  0.00    +0.000 C 
ATOM     20  C   UNL     1      -2.171  15.683  20.235  0.00  0.00    +0.000 A 
ATOM     21  C   UNL     1      -1.608  14.834  21.244  0.00  0.00    +0.000 A 
ATOM     22  C   UNL     1      -2.095  11.935  23.319  0.00  0.00    +0.000 C 
ATOM     23  O   UNL     1      -2.686  12.671  24.087  0.00  0.00    +0.000 OA
ATOM     24  N   UNL     1      -1.668  10.649  23.710  0.00  0.00    +0.000 N 
ATOM     25  C   UNL     1      -0.841   9.889  22.809  0.00  0.00    +0.000 C 
ATOM     26  H   UNL     1      -1.757  10.380  24.698  0.00  0.00    +0.000 HD
ENDROOT
BRANCH   1  28
ATOM     27  C   UNL     1       1.716   5.550  20.494  0.00  0.00    +0.000 C 
ATOM     28  C   UNL     1       2.588   6.468  19.629  0.00  0.00    +0.000 C 
ATOM     29  N   UNL     1       3.742   6.098  19.142  0.00  0.00    +0.000 NA
BRANCH  29  30
ATOM     30  O   UNL     1       4.062   4.789  19.532  0.00  0.00    +0.000 OA
BRANCH  30  31
ATOM     31  C   UNL     1       4.839   4.159  18.516  0.00  0.00    +0.000 C 
BRANCH  31  32
ATOM     32  C   UNL     1       4.107   4.307  17.174  0.00  0.00    +0.000 C 
ATOM     33  C   UNL     1       5.044   4.059  15.988  0.00  0.00    +0.000 C 
ATOM     34  C   UNL     1       2.905   3.369  17.106  0.00  0.00    +0.000 C 
ENDBRANCH  31  32
ENDBRANCH  30  31
ENDBRANCH  29  30
ENDBRANCH   1  28
BRANCH  13  35
ATOM     35  C   UNL     1       1.141  12.884  17.920  0.00  0.00    +0.000 C 
ATOM     36  C   UNL     1      -0.040  13.843  17.775  0.00  0.00    +0.000 C 
ATOM     37  C   UNL     1       2.461  13.649  18.070  0.00  0.00    +0.000 C 
ENDBRANCH  13  35
TORSDOF 5
ENDMDL
MODEL 9
REMARK VINA RESULT:      -6.5      3.667      8.313
REMARK  Name = 
REMARK  11 active torsions:
REMARK  status: ('A' for Active; 'I' for Inactive)
REMARK    1  A    between atoms: C_1  and  C_2
REMARK    2  A    between atoms: C_2  and  C_9
REMARK    3  A    between atoms: N_3  and  O_4
REMARK    4  A    between atoms: O_4  and  C_5
REMARK    5  A    between atoms: C_5  and  C_6
REMARK    6  A    between atoms: C_6  and  C_7
REMARK    7  A    between atoms: C_6  and  C_8
REMARK    8  A    between atoms: N_21  and  C_22
REMARK    9  A    between atoms: C_22  and  C_23
REMARK   10  A    between atoms: C_22  and  C_24
REMARK   11  A    between atoms: N_29  and  C_30
REMARK                            x       y       z     vdW  Elec       q    Type
REMARK                         _______ _______ _______ _____ _____    ______ ____
ROOT
ATOM      1  C   UNL     1      -3.980  13.909  22.399  0.00  0.00    +0.000 A 
ATOM      2  C   UNL     1      -3.803  15.094  23.119  0.00  0.00    +0.000 A 
ATOM      3  C   UNL     1      -2.612  15.807  23.026  0.00  0.00    +0.000 A 
ATOM      4  C   UNL     1      -1.581  15.305  22.214  0.00  0.00    +0.000 A 
ATOM      5  C   UNL     1      -1.707  14.042  21.551  0.00  0.00    +0.000 A 
ATOM      6  C   UNL     1      -2.917  13.371  21.635  0.00  0.00    +0.000 A 
ATOM      7  C   UNL     1      -0.435  13.890  20.997  0.00  0.00    +0.000 A 
ATOM      8  C   UNL     1       0.113  12.896  20.132  0.00  0.00    +0.000 A 
ATOM      9  C   UNL     1       1.538  13.097  19.698  0.00  0.00    +0.000 A 
ATOM     10  C   UNL     1       2.299  14.282  20.063  0.00  0.00    +0.000 A 
ATOM     11  C   UNL     1       1.283  15.254  20.173  0.00  0.00    +0.000 A 
ATOM     12  C   UNL     1       0.283  15.025  21.074  0.00  0.00    +0.000 A 
ATOM     13  N   UNL     1      -0.360  15.859  21.912  0.00  0.00    +0.000 N 
ATOM     14  C   UNL     1       0.980  15.888  18.797  0.00  0.00    +0.000 C 
ATOM     15  C   UNL     1       1.970  16.999  18.809  0.00  0.00    +0.000 C 
ATOM     16  C   UNL     1       3.304  16.314  18.797  0.00  0.00    +0.000 A 
ATOM     17  N   UNL     1       4.375  17.071  18.629  0.00  0.00    +0.000 NA
ATOM     18  N   UNL     1       5.036  16.817  19.760  0.00  0.00    +0.000 N 
ATOM     19  C   UNL     1       5.784  17.962  20.265  0.00  0.00    +0.000 C 
ATOM     20  C   UNL     1       4.572  15.633  20.370  0.00  0.00    +0.000 A 
ATOM     21  C   UNL     1       3.539  15.071  19.550  0.00  0.00    +0.000 A 
ATOM     22  C   UNL     1       1.728  12.095  18.651  0.00  0.00    +0.000 C 
ATOM     23  O   UNL     1       2.644  11.853  17.887  0.00  0.00    +0.000 OA
ATOM     24  N   UNL     1       0.495  11.416  18.564  0.00  0.00    +0.000 N 
ATOM     25  C   UNL     1      -0.597  11.854  19.394  0.00  0.00    +0.000 C 
ATOM     26  H   UNL     1       0.332  10.791  17.764  0.00  0.00    +0.000 HD
ENDROOT
BRANCH   1  28
ATOM     27  C   UNL     1      -6.429  13.945  23.250  0.00  0.00    +0.000 C 
ATOM     28  C   UNL     1      -5.338  13.274  22.407  0.00  0.00    +0.000 C 
ATOM     29  N   UNL     1      -5.548  12.193  21.706  0.00  0.00    +0.000 NA
BRANCH  29  30
ATOM     30  O   UNL     1      -6.868  11.740  21.852  0.00  0.00    +0.000 OA
BRANCH  30  31
ATOM     31  C   UNL     1      -7.291  11.092  20.654  0.00  0.00    +0.000 C 
BRANCH  31  32
ATOM     32  C   UNL     1      -6.749  11.879  19.451  0.00  0.00    +0.000 C 
ATOM     33  C   UNL     1      -6.489  10.967  18.249  0.00  0.00    +0.000 C 
ATOM     34  C   UNL     1      -7.703  13.006  19.066  0.00  0.00    +0.000 C 
ENDBRANCH  31  32
ENDBRANCH  30  31
ENDBRANCH  29  30
ENDBRANCH   1  28
BRANCH  13  35
ATOM     35  C   UNL     1       0.333  17.019  22.437  0.00  0.00    +0.000 C 
ATOM     36  C   UNL     1      -0.270  18.382  22.099  0.00  0.00    +0.000 C 
ATOM     37  C   UNL     1       0.643  16.907  23.934  0.00  0.00    +0.000 C 
ENDBRANCH  13  35
TORSDOF 5
ENDMDL
