MODEL 1
REMARK VINA RESULT:      -6.6      0.000      0.000
REMARK  Name = 
REMARK  11 active torsions:
REMARK  status: ('A' for Active; 'I' for Inactive)
REMARK    1  A    between atoms: C_1  and  C_2
REMARK    2  A    between atoms: C_2  and  C_3
REMARK    3  A    between atoms: C_4  and  C_5
REMARK    4  A    between atoms: C_5  and  N_6
REMARK    5  A    between atoms: C_7  and  N_8
REMARK    6  A    between atoms: C_12  and  N_13
REMARK    7  A    between atoms: C_15  and  C_16
REMARK    8  A    between atoms: N_22  and  C_23
REMARK    9  A    between atoms: C_23  and  C_24
REMARK   10  A    between atoms: C_29  and  C_30
REMARK   11  A    between atoms: N_34  and  C_35
REMARK                            x       y       z     vdW  Elec       q    Type
REMARK                         _______ _______ _______ _____ _____    ______ ____
ROOT
ATOM      1  N   UNL     1      -1.648  11.177  19.329  0.00  0.00    +0.000 N 
ATOM      2  C   UNL     1      -0.277  11.196  19.628  0.00  0.00    +0.000 A 
ATOM      3  C   UNL     1      -0.036  12.393  20.289  0.00  0.00    +0.000 A 
ATOM      4  C   UNL     1      -1.279  13.035  20.516  0.00  0.00    +0.000 A 
ATOM      5  C   UNL     1      -2.251  12.304  19.878  0.00  0.00    +0.000 A 
ATOM      6  C   UNL     1      -3.637  12.707  19.874  0.00  0.00    +0.000 A 
ATOM      7  O   UNL     1      -4.522  12.085  19.292  0.00  0.00    +0.000 OA
ATOM      8  N   UNL     1      -3.893  13.854  20.636  0.00  0.00    +0.000 N 
ATOM      9  C   UNL     1      -2.949  14.546  21.393  0.00  0.00    +0.000 A 
ATOM     10  O   UNL     1      -3.287  15.440  22.176  0.00  0.00    +0.000 OA
ATOM     11  N   UNL     1      -1.611  14.170  21.256  0.00  0.00    +0.000 N 
ATOM     12  C   UNL     1      -0.613  14.928  22.001  0.00  0.00    +0.000 C 
ENDROOT
BRANCH   2  13
ATOM     13  N   UNL     1       0.551  10.119  19.387  0.00  0.00    +0.000 N 
ATOM     14  C   UNL     1       0.855   9.766  17.978  0.00  0.00    +0.000 C 
ATOM     15  C   UNL     1       2.198   9.048  17.899  0.00  0.00    +0.000 C 
ATOM     16  C   UNL     1       2.233   7.816  18.800  0.00  0.00    +0.000 C 
ATOM     17  C   UNL     1       1.788   8.154  20.230  0.00  0.00    +0.000 C 
ATOM     18  C   UNL     1       0.426   8.900  20.211  0.00  0.00    +0.000 C 
BRANCH  17  19
ATOM     19  N   UNL     1       1.764   6.923  21.028  0.00  0.00    +0.000 NA
ATOM     20  H   UNL     1       2.448   6.258  20.671  0.00  0.00    +0.000 HD
ATOM     21  H   UNL     1       0.851   6.476  20.944  0.00  0.00    +0.000 HD
ENDBRANCH  17  19
ENDBRANCH   2  13
BRANCH   3  22
ATOM     22  C   UNL     1       1.247  12.850  20.720  0.00  0.00    +0.000 C 
ATOM     23  N   UNL     1       2.297  13.219  21.057  0.00  0.00    +0.000 NA
ENDBRANCH   3  22
BRANCH   1  24
ATOM     24  C   UNL     1      -2.368  10.070  18.681  0.00  0.00    +0.000 C 
BRANCH  24  28
ATOM     25  C   UNL     1      -2.814  10.341  14.801  0.00  0.00    +0.000 C 
ATOM     26  C   UNL     1      -3.138  10.451  16.267  0.00  0.00    +0.000 C 
ATOM     27  C   UNL     1      -4.502  10.965  16.630  0.00  0.00    +0.000 C 
ATOM     28  C   UNL     1      -2.215  10.084  17.180  0.00  0.00    +0.000 C 
ENDBRANCH  24  28
ENDBRANCH   1  24
BRANCH   8  29
ATOM     29  C   UNL     1      -5.262  14.360  20.671  0.00  0.00    +0.000 C 
BRANCH  29  30
ATOM     30  C   UNL     1      -6.034  13.992  21.938  0.00  0.00    +0.000 A 
ATOM     31  N   UNL     1      -5.943  12.709  22.393  0.00  0.00    +0.000 NA
ATOM     32  C   UNL     1      -6.539  12.411  23.570  0.00  0.00    +0.000 A 
ATOM     33  C   UNL     1      -7.228  13.332  24.339  0.00  0.00    +0.000 A 
ATOM     34  C   UNL     1      -7.356  14.627  23.850  0.00  0.00    +0.000 A 
ATOM     35  C   UNL     1      -6.768  14.966  22.627  0.00  0.00    +0.000 A 
BRANCH  35  36
ATOM     36  C   UNL     1      -6.929  16.293  22.117  0.00  0.00    +0.000 C 
ATOM     37  N   UNL     1      -7.050  17.367  21.694  0.00  0.00    +0.000 NA
ENDBRANCH  35  36
ENDBRANCH  29  30
ENDBRANCH   8  29
TORSDOF 8
ENDMDL
MODEL 2
REMARK VINA RESULT:      -6.6      0.713      1.174
REMARK  Name = 
REMARK  11 active torsions:
REMARK  status: ('A' for Active; 'I' for Inactive)
REMARK    1  A    between atoms: C_1  and  C_2
REMARK    2  A    between atoms: C_2  and  C_3
REMARK    3  A    between atoms: C_4  and  C_5
REMARK    4  A    between atoms: C_5  and  N_6
REMARK    5  A    between atoms: C_7  and  N_8
REMARK    6  A    between atoms: C_12  and  N_13
REMARK    7  A    between atoms: C_15  and  C_16
REMARK    8  A    between atoms: N_22  and  C_23
REMARK    9  A    between atoms: C_23  and  C_24
REMARK   10  A    between atoms: C_29  and  C_30
REMARK   11  A    between atoms: N_34  and  C_35
REMARK                            x       y       z     vdW  Elec       q    Type
REMARK                         _______ _______ _______ _____ _____    ______ ____
ROOT
ATOM      1  N   UNL     1      -1.777  11.157  19.481  0.00  0.00    +0.000 N 
ATOM      2  C   UNL     1      -0.414  11.179  19.814  0.00  0.00    +0.000 A 
ATOM      3  C   UNL     1      -0.184  12.394  20.446  0.00  0.00    +0.000 A 
ATOM      4  C   UNL     1      -1.429  13.047  20.624  0.00  0.00    +0.000 A 
ATOM      5  C   UNL     1      -2.388  12.303  19.982  0.00  0.00    +0.000 A 
ATOM      6  C   UNL     1      -3.771  12.712  19.932  0.00  0.00    +0.000 A 
ATOM      7  O   UNL     1      -4.645  12.077  19.345  0.00  0.00    +0.000 OA
ATOM      8  N   UNL     1      -4.040  13.881  20.653  0.00  0.00    +0.000 N 
ATOM      9  C   UNL     1      -3.112  14.591  21.415  0.00  0.00    +0.000 A 
ATOM     10  O   UNL     1      -3.466  15.508  22.162  0.00  0.00    +0.000 OA
ATOM     11  N   UNL     1      -1.773  14.204  21.322  0.00  0.00    +0.000 N 
ATOM     12  C   UNL     1      -0.790  14.979  22.070  0.00  0.00    +0.000 C 
ENDROOT
BRANCH   2  13
ATOM     13  N   UNL     1       0.414  10.092  19.625  0.00  0.00    +0.000 N 
ATOM     14  C   UNL     1       0.928   9.383  20.824  0.00  0.00    +0.000 C 
ATOM     15  C   UNL     1       1.244   7.933  20.474  0.00  0.00    +0.000 C 
ATOM     16  C   UNL     1       2.223   7.833  19.307  0.00  0.00    +0.000 C 
ATOM     17  C   UNL     1       1.758   8.677  18.112  0.00  0.00    +0.000 C 
ATOM     18  C   UNL     1       1.440  10.128  18.564  0.00  0.00    +0.000 C 
BRANCH  17  19
ATOM     19  N   UNL     1       2.773   8.608  17.054  0.00  0.00    +0.000 NA
ATOM     20  H   UNL     1       2.873   7.650  16.723  0.00  0.00    +0.000 HD
ATOM     21  H   UNL     1       3.680   8.883  17.429  0.00  0.00    +0.000 HD
ENDBRANCH  17  19
ENDBRANCH   2  13
BRANCH   3  22
ATOM     22  C   UNL     1       1.090  12.857  20.897  0.00  0.00    +0.000 C 
ATOM     23  N   UNL     1       2.126  13.247  21.253  0.00  0.00    +0.000 NA
ENDBRANCH   3  22
BRANCH   1  24
ATOM     24  C   UNL     1      -2.487  10.036  18.847  0.00  0.00    +0.000 C 
BRANCH  24  28
ATOM     25  C   UNL     1      -2.692  10.176  14.940  0.00  0.00    +0.000 C 
ATOM     26  C   UNL     1      -3.087  10.375  16.379  0.00  0.00    +0.000 C 
ATOM     27  C   UNL     1      -4.420  11.015  16.641  0.00  0.00    +0.000 C 
ATOM     28  C   UNL     1      -2.250   9.973  17.358  0.00  0.00    +0.000 C 
ENDBRANCH  24  28
ENDBRANCH   1  24
BRANCH   8  29
ATOM     29  C   UNL     1      -5.407  14.395  20.639  0.00  0.00    +0.000 C 
BRANCH  29  30
ATOM     30  C   UNL     1      -6.222  14.042  21.884  0.00  0.00    +0.000 A 
ATOM     31  N   UNL     1      -6.235  12.741  22.293  0.00  0.00    +0.000 NA
ATOM     32  C   UNL     1      -6.868  12.448  23.452  0.00  0.00    +0.000 A 
ATOM     33  C   UNL     1      -7.495  13.392  24.247  0.00  0.00    +0.000 A 
ATOM     34  C   UNL     1      -7.517  14.709  23.803  0.00  0.00    +0.000 A 
ATOM     35  C   UNL     1      -6.889  15.045  22.600  0.00  0.00    +0.000 A 
BRANCH  35  36
ATOM     36  C   UNL     1      -6.942  16.398  22.136  0.00  0.00    +0.000 C 
ATOM     37  N   UNL     1      -6.995  17.491  21.752  0.00  0.00    +0.000 NA
ENDBRANCH  35  36
ENDBRANCH  29  30
ENDBRANCH   8  29
TORSDOF 8
ENDMDL
MODEL 3
REMARK VINA RESULT:      -6.6      2.209      8.692
REMARK  Name = 
REMARK  11 active torsions:
REMARK  status: ('A' for Active; 'I' for Inactive)
REMARK    1  A    between atoms: C_1  and  C_2
REMARK    2  A    between atoms: C_2  and  C_3
REMARK    3  A    between atoms: C_4  and  C_5
REMARK    4  A    between atoms: C_5  and  N_6
REMARK    5  A    between atoms: C_7  and  N_8
REMARK    6  A    between atoms: C_12  and  N_13
REMARK    7  A    between atoms: C_15  and  C_16
REMARK    8  A    between atoms: N_22  and  C_23
REMARK    9  A    between atoms: C_23  and  C_24
REMARK   10  A    between atoms: C_29  and  C_30
REMARK   11  A    between atoms: N_34  and  C_35
REMARK                            x       y       z     vdW  Elec       q    Type
REMARK                         _______ _______ _______ _____ _____    ______ ____
ROOT
ATOM      1  N   UNL     1      -2.782  12.607  20.545  0.00  0.00    +0.000 N 
ATOM      2  C   UNL     1      -4.062  12.683  19.974  0.00  0.00    +0.000 A 
ATOM      3  C   UNL     1      -3.984  12.034  18.749  0.00  0.00    +0.000 A 
ATOM      4  C   UNL     1      -2.701  11.443  18.638  0.00  0.00    +0.000 A 
ATOM      5  C   UNL     1      -1.959  11.845  19.721  0.00  0.00    +0.000 A 
ATOM      6  C   UNL     1      -0.580  11.455  19.896  0.00  0.00    +0.000 A 
ATOM      7  O   UNL     1       0.113  11.820  20.843  0.00  0.00    +0.000 OA
ATOM      8  N   UNL     1      -0.112  10.580  18.908  0.00  0.00    +0.000 N 
ATOM      9  C   UNL     1      -0.877  10.058  17.865  0.00  0.00    +0.000 A 
ATOM     10  O   UNL     1      -0.441   9.157  17.142  0.00  0.00    +0.000 OA
ATOM     11  N   UNL     1      -2.165  10.570  17.692  0.00  0.00    +0.000 N 
ATOM     12  C   UNL     1      -2.948  10.069  16.568  0.00  0.00    +0.000 C 
ENDROOT
BRANCH   2  13
ATOM     13  N   UNL     1      -5.146  13.204  20.649  0.00  0.00    +0.000 N 
ATOM     14  C   UNL     1      -6.279  12.299  20.966  0.00  0.00    +0.000 C 
ATOM     15  C   UNL     1      -7.025  12.810  22.194  0.00  0.00    +0.000 C 
ATOM     16  C   UNL     1      -7.500  14.249  22.008  0.00  0.00    +0.000 C 
ATOM     17  C   UNL     1      -6.355  15.161  21.547  0.00  0.00    +0.000 C 
ATOM     18  C   UNL     1      -5.641  14.554  20.310  0.00  0.00    +0.000 C 
BRANCH  17  19
ATOM     19  N   UNL     1      -6.884  16.510  21.308  0.00  0.00    +0.000 NA
ATOM     20  H   UNL     1      -7.597  16.484  20.582  0.00  0.00    +0.000 HD
ATOM     21  H   UNL     1      -6.139  17.115  20.963  0.00  0.00    +0.000 HD
ENDBRANCH  17  19
ENDBRANCH   2  13
BRANCH   3  22
ATOM     22  C   UNL     1      -5.051  11.930  17.805  0.00  0.00    +0.000 C 
ATOM     23  N   UNL     1      -5.929  11.837  17.048  0.00  0.00    +0.000 NA
ENDBRANCH   3  22
BRANCH   1  24
ATOM     24  C   UNL     1      -2.405  13.111  21.875  0.00  0.00    +0.000 C 
BRANCH  24  28
ATOM     25  C   UNL     1      -4.576  12.343  25.042  0.00  0.00    +0.000 C 
ATOM     26  C   UNL     1      -3.835  13.140  24.001  0.00  0.00    +0.000 C 
ATOM     27  C   UNL     1      -3.803  14.632  24.176  0.00  0.00    +0.000 C 
ATOM     28  C   UNL     1      -3.234  12.499  22.978  0.00  0.00    +0.000 C 
ENDBRANCH  24  28
ENDBRANCH   1  24
BRANCH   8  29
ATOM     29  C   UNL     1       1.282  10.150  18.979  0.00  0.00    +0.000 C 
BRANCH  29  30
ATOM     30  C   UNL     1       1.486   8.803  19.671  0.00  0.00    +0.000 A 
ATOM     31  N   UNL     1       0.904   8.614  20.891  0.00  0.00    +0.000 NA
ATOM     32  C   UNL     1       0.996   7.387  21.453  0.00  0.00    +0.000 A 
ATOM     33  C   UNL     1       1.641   6.315  20.862  0.00  0.00    +0.000 A 
ATOM     34  C   UNL     1       2.271   6.524  19.641  0.00  0.00    +0.000 A 
ATOM     35  C   UNL     1       2.212   7.785  19.038  0.00  0.00    +0.000 A 
BRANCH  35  36
ATOM     36  C   UNL     1       2.888   8.000  17.795  0.00  0.00    +0.000 C 
ATOM     37  N   UNL     1       3.424   8.172  16.781  0.00  0.00    +0.000 NA
ENDBRANCH  35  36
ENDBRANCH  29  30
ENDBRANCH   8  29
TORSDOF 8
ENDMDL
MODEL 4
REMARK VINA RESULT:      -6.5      1.248      1.643
REMARK  Name = 
REMARK  11 active torsions:
REMARK  status: ('A' for Active; 'I' for Inactive)
REMARK    1  A    between atoms: C_1  and  C_2
REMARK    2  A    between atoms: C_2  and  C_3
REMARK    3  A    between atoms: C_4  and  C_5
REMARK    4  A    between atoms: C_5  and  N_6
REMARK    5  A    between atoms: C_7  and  N_8
REMARK    6  A    between atoms: C_12  and  N_13
REMARK    7  A    between atoms: C_15  and  C_16
REMARK    8  A    between atoms: N_22  and  C_23
REMARK    9  A    between atoms: C_23  and  C_24
REMARK   10  A    between atoms: C_29  and  C_30
REMARK   11  A    between atoms: N_34  and  C_35
REMARK                            x       y       z     vdW  Elec       q    Type
REMARK                         _______ _______ _______ _____ _____    ______ ____
ROOT
ATOM      1  N   UNL     1      -1.434  11.308  19.638  0.00  0.00    +0.000 N 
ATOM      2  C   UNL     1      -0.053  11.249  19.880  0.00  0.00    +0.000 A 
ATOM      3  C   UNL     1       0.297  12.464  20.454  0.00  0.00    +0.000 A 
ATOM      4  C   UNL     1      -0.888  13.204  20.689  0.00  0.00    +0.000 A 
ATOM      5  C   UNL     1      -1.935  12.506  20.138  0.00  0.00    +0.000 A 
ATOM      6  C   UNL     1      -3.288  13.005  20.163  0.00  0.00    +0.000 A 
ATOM      7  O   UNL     1      -4.239  12.413  19.657  0.00  0.00    +0.000 OA
ATOM      8  N   UNL     1      -3.432  14.211  20.860  0.00  0.00    +0.000 N 
ATOM      9  C   UNL     1      -2.411  14.880  21.534  0.00  0.00    +0.000 A 
ATOM     10  O   UNL     1      -2.653  15.841  22.271  0.00  0.00    +0.000 OA
ATOM     11  N   UNL     1      -1.109  14.402  21.368  0.00  0.00    +0.000 N 
ATOM     12  C   UNL     1      -0.030  15.132  22.024  0.00  0.00    +0.000 C 
ENDROOT
BRANCH   2  13
ATOM     13  N   UNL     1       0.688  10.103  19.676  0.00  0.00    +0.000 N 
ATOM     14  C   UNL     1       1.204   9.378  20.863  0.00  0.00    +0.000 C 
ATOM     15  C   UNL     1       1.402   7.904  20.527  0.00  0.00    +0.000 C 
ATOM     16  C   UNL     1       2.321   7.718  19.321  0.00  0.00    +0.000 C 
ATOM     17  C   UNL     1       1.863   8.575  18.132  0.00  0.00    +0.000 C 
ATOM     18  C   UNL     1       1.667  10.052  18.571  0.00  0.00    +0.000 C 
BRANCH  17  19
ATOM     19  N   UNL     1       2.823   8.420  17.032  0.00  0.00    +0.000 NA
ATOM     20  H   UNL     1       3.739   8.767  17.313  0.00  0.00    +0.000 HD
ATOM     21  H   UNL     1       2.529   8.985  16.237  0.00  0.00    +0.000 HD
ENDBRANCH  17  19
ENDBRANCH   2  13
BRANCH   3  22
ATOM     22  C   UNL     1       1.626  12.854  20.805  0.00  0.00    +0.000 C 
ATOM     23  N   UNL     1       2.713  13.166  21.076  0.00  0.00    +0.000 NA
ENDBRANCH   3  22
BRANCH   1  24
ATOM     24  C   UNL     1      -2.256  10.218  19.090  0.00  0.00    +0.000 C 
BRANCH  24  28
ATOM     25  C   UNL     1      -2.716  10.112  15.203  0.00  0.00    +0.000 C 
ATOM     26  C   UNL     1      -3.032  10.369  16.653  0.00  0.00    +0.000 C 
ATOM     27  C   UNL     1      -4.387  10.935  16.968  0.00  0.00    +0.000 C 
ATOM     28  C   UNL     1      -2.109  10.082  17.594  0.00  0.00    +0.000 C 
ENDBRANCH  24  28
ENDBRANCH   1  24
BRANCH   8  29
ATOM     29  C   UNL     1      -4.761  14.815  20.917  0.00  0.00    +0.000 C 
BRANCH  29  30
ATOM     30  C   UNL     1      -5.729  14.108  21.866  0.00  0.00    +0.000 A 
ATOM     31  N   UNL     1      -5.331  13.908  23.155  0.00  0.00    +0.000 NA
ATOM     32  C   UNL     1      -6.227  13.379  24.020  0.00  0.00    +0.000 A 
ATOM     33  C   UNL     1      -7.521  13.035  23.673  0.00  0.00    +0.000 A 
ATOM     34  C   UNL     1      -7.908  13.200  22.348  0.00  0.00    +0.000 A 
ATOM     35  C   UNL     1      -7.002  13.727  21.422  0.00  0.00    +0.000 A 
BRANCH  35  36
ATOM     36  C   UNL     1      -7.399  13.865  20.054  0.00  0.00    +0.000 C 
ATOM     37  N   UNL     1      -7.710  13.970  18.941  0.00  0.00    +0.000 NA
ENDBRANCH  35  36
ENDBRANCH  29  30
ENDBRANCH   8  29
TORSDOF 8
ENDMDL
MODEL 5
REMARK VINA RESULT:      -6.5      2.745      4.789
REMARK  Name = 
REMARK  11 active torsions:
REMARK  status: ('A' for Active; 'I' for Inactive)
REMARK    1  A    between atoms: C_1  and  C_2
REMARK    2  A    between atoms: C_2  and  C_3
REMARK    3  A    between atoms: C_4  and  C_5
REMARK    4  A    between atoms: C_5  and  N_6
REMARK    5  A    between atoms: C_7  and  N_8
REMARK    6  A    between atoms: C_12  and  N_13
REMARK    7  A    between atoms: C_15  and  C_16
REMARK    8  A    between atoms: N_22  and  C_23
REMARK    9  A    between atoms: C_23  and  C_24
REMARK   10  A    between atoms: C_29  and  C_30
REMARK   11  A    between atoms: N_34  and  C_35
REMARK                            x       y       z     vdW  Elec       q    Type
REMARK                         _______ _______ _______ _____ _____    ______ ____
ROOT
ATOM      1  N   UNL     1       0.077  13.716  20.671  0.00  0.00    +0.000 N 
ATOM      2  C   UNL     1       0.705  14.902  20.261  0.00  0.00    +0.000 A 
ATOM      3  C   UNL     1      -0.288  15.870  20.197  0.00  0.00    +0.000 A 
ATOM      4  C   UNL     1      -1.489  15.312  20.702  0.00  0.00    +0.000 A 
ATOM      5  C   UNL     1      -1.263  13.978  20.939  0.00  0.00    +0.000 A 
ATOM      6  C   UNL     1      -2.300  13.098  21.422  0.00  0.00    +0.000 A 
ATOM      7  O   UNL     1      -2.132  11.897  21.620  0.00  0.00    +0.000 OA
ATOM      8  N   UNL     1      -3.512  13.747  21.689  0.00  0.00    +0.000 N 
ATOM      9  C   UNL     1      -3.735  15.119  21.574  0.00  0.00    +0.000 A 
ATOM     10  O   UNL     1      -4.774  15.635  21.996  0.00  0.00    +0.000 OA
ATOM     11  N   UNL     1      -2.725  15.888  20.991  0.00  0.00    +0.000 N 
ATOM     12  C   UNL     1      -2.976  17.314  20.816  0.00  0.00    +0.000 C 
ENDROOT
BRANCH   2  13
ATOM     13  N   UNL     1       2.073  15.005  20.112  0.00  0.00    +0.000 N 
ATOM     14  C   UNL     1       2.838  15.753  21.141  0.00  0.00    +0.000 C 
ATOM     15  C   UNL     1       4.274  15.243  21.193  0.00  0.00    +0.000 C 
ATOM     16  C   UNL     1       4.953  15.325  19.828  0.00  0.00    +0.000 C 
ATOM     17  C   UNL     1       4.096  14.669  18.736  0.00  0.00    +0.000 C 
ATOM     18  C   UNL     1       2.649  15.231  18.771  0.00  0.00    +0.000 C 
BRANCH  17  19
ATOM     19  N   UNL     1       4.756  14.847  17.437  0.00  0.00    +0.000 NA
ATOM     20  H   UNL     1       5.642  15.334  17.556  0.00  0.00    +0.000 HD
ATOM     21  H   UNL     1       4.179  15.435  16.837  0.00  0.00    +0.000 HD
ENDBRANCH  17  19
ENDBRANCH   2  13
BRANCH   3  22
ATOM     22  C   UNL     1      -0.096  17.217  19.760  0.00  0.00    +0.000 C 
ATOM     23  N   UNL     1       0.065  18.307  19.390  0.00  0.00    +0.000 NA
ENDBRANCH   3  22
BRANCH   1  24
ATOM     24  C   UNL     1       0.751  12.435  20.933  0.00  0.00    +0.000 C 
BRANCH  24  28
ATOM     25  C   UNL     1       1.162   9.676  18.186  0.00  0.00    +0.000 C 
ATOM     26  C   UNL     1       0.835  10.302  19.515  0.00  0.00    +0.000 C 
ATOM     27  C   UNL     1       0.371   9.383  20.609  0.00  0.00    +0.000 C 
ATOM     28  C   UNL     1       0.975  11.635  19.673  0.00  0.00    +0.000 C 
ENDBRANCH  24  28
ENDBRANCH   1  24
BRANCH   8  29
ATOM     29  C   UNL     1      -4.634  12.936  22.153  0.00  0.00    +0.000 C 
BRANCH  29  30
ATOM     30  C   UNL     1      -5.563  12.455  21.038  0.00  0.00    +0.000 A 
ATOM     31  N   UNL     1      -5.052  12.356  19.777  0.00  0.00    +0.000 NA
ATOM     32  C   UNL     1      -5.843  11.831  18.813  0.00  0.00    +0.000 A 
ATOM     33  C   UNL     1      -7.134  11.386  19.034  0.00  0.00    +0.000 A 
ATOM     34  C   UNL     1      -7.665  11.529  20.310  0.00  0.00    +0.000 A 
ATOM     35  C   UNL     1      -6.883  12.085  21.328  0.00  0.00    +0.000 A 
BRANCH  35  36
ATOM     36  C   UNL     1      -7.448  12.256  22.632  0.00  0.00    +0.000 C 
ATOM     37  N   UNL     1      -7.894  12.392  23.694  0.00  0.00    +0.000 NA
ENDBRANCH  35  36
ENDBRANCH  29  30
ENDBRANCH   8  29
TORSDOF 8
ENDMDL
MODEL 6
REMARK VINA RESULT:      -6.5      1.493      2.504
REMARK  Name = 
REMARK  11 active torsions:
REMARK  status: ('A' for Active; 'I' for Inactive)
REMARK    1  A    between atoms: C_1  and  C_2
REMARK    2  A    between atoms: C_2  and  C_3
REMARK    3  A    between atoms: C_4  and  C_5
REMARK    4  A    between atoms: C_5  and  N_6
REMARK    5  A    between atoms: C_7  and  N_8
REMARK    6  A    between atoms: C_12  and  N_13
REMARK    7  A    between atoms: C_15  and  C_16
REMARK    8  A    between atoms: N_22  and  C_23
REMARK    9  A    between atoms: C_23  and  C_24
REMARK   10  A    between atoms: C_29  and  C_30
REMARK   11  A    between atoms: N_34  and  C_35
REMARK                            x       y       z     vdW  Elec       q    Type
REMARK                         _______ _______ _______ _____ _____    ______ ____
ROOT
ATOM      1  N   UNL     1      -1.519  11.435  19.615  0.00  0.00    +0.000 N 
ATOM      2  C   UNL     1      -0.129  11.401  19.808  0.00  0.00    +0.000 A 
ATOM      3  C   UNL     1       0.201  12.562  20.493  0.00  0.00    +0.000 A 
ATOM      4  C   UNL     1      -1.000  13.231  20.840  0.00  0.00    +0.000 A 
ATOM      5  C   UNL     1      -2.041  12.557  20.252  0.00  0.00    +0.000 A 
ATOM      6  C   UNL     1      -3.409  13.002  20.370  0.00  0.00    +0.000 A 
ATOM      7  O   UNL     1      -4.356  12.431  19.835  0.00  0.00    +0.000 OA
ATOM      8  N   UNL     1      -3.568  14.124  21.192  0.00  0.00    +0.000 N 
ATOM      9  C   UNL     1      -2.547  14.756  21.901  0.00  0.00    +0.000 A 
ATOM     10  O   UNL     1      -2.795  15.627  22.741  0.00  0.00    +0.000 OA
ATOM     11  N   UNL     1      -1.236  14.345  21.646  0.00  0.00    +0.000 N 
ATOM     12  C   UNL     1      -0.160  15.042  22.341  0.00  0.00    +0.000 C 
ENDROOT
BRANCH   2  13
ATOM     13  N   UNL     1       0.642  10.310  19.463  0.00  0.00    +0.000 N 
ATOM     14  C   UNL     1       0.863  10.032  18.022  0.00  0.00    +0.000 C 
ATOM     15  C   UNL     1       2.171   9.270  17.834  0.00  0.00    +0.000 C 
ATOM     16  C   UNL     1       2.199   7.985  18.658  0.00  0.00    +0.000 C 
ATOM     17  C   UNL     1       1.836   8.253  20.126  0.00  0.00    +0.000 C 
ATOM     18  C   UNL     1       0.506   9.049  20.219  0.00  0.00    +0.000 C 
BRANCH  17  19
ATOM     19  N   UNL     1       1.800   6.976  20.851  0.00  0.00    +0.000 NA
ATOM     20  H   UNL     1       0.968   6.449  20.593  0.00  0.00    +0.000 HD
ATOM     21  H   UNL     1       1.735   7.152  21.853  0.00  0.00    +0.000 HD
ENDBRANCH  17  19
ENDBRANCH   2  13
BRANCH   3  22
ATOM     22  C   UNL     1       1.527  12.963  20.842  0.00  0.00    +0.000 C 
ATOM     23  N   UNL     1       2.609  13.293  21.110  0.00  0.00    +0.000 NA
ENDBRANCH   3  22
BRANCH   1  24
ATOM     24  C   UNL     1      -2.323  10.378  18.983  0.00  0.00    +0.000 C 
BRANCH  24  28
ATOM     25  C   UNL     1      -2.919  10.591  15.119  0.00  0.00    +0.000 C 
ATOM     26  C   UNL     1      -3.203  10.677  16.595  0.00  0.00    +0.000 C 
ATOM     27  C   UNL     1      -4.596  11.065  17.002  0.00  0.00    +0.000 C 
ATOM     28  C   UNL     1      -2.221  10.400  17.477  0.00  0.00    +0.000 C 
ENDBRANCH  24  28
ENDBRANCH   1  24
BRANCH   8  29
ATOM     29  C   UNL     1      -4.913  14.670  21.352  0.00  0.00    +0.000 C 
BRANCH  29  30
ATOM     30  C   UNL     1      -5.297  15.706  20.297  0.00  0.00    +0.000 A 
ATOM     31  N   UNL     1      -4.575  16.863  20.241  0.00  0.00    +0.000 NA
ATOM     32  C   UNL     1      -4.847  17.732  19.241  0.00  0.00    +0.000 A 
ATOM     33  C   UNL     1      -5.809  17.513  18.271  0.00  0.00    +0.000 A 
ATOM     34  C   UNL     1      -6.572  16.354  18.357  0.00  0.00    +0.000 A 
ATOM     35  C   UNL     1      -6.332  15.442  19.389  0.00  0.00    +0.000 A 
BRANCH  35  36
ATOM     36  C   UNL     1      -7.142  14.266  19.488  0.00  0.00    +0.000 C 
ATOM     37  N   UNL     1      -7.802  13.315  19.555  0.00  0.00    +0.000 NA
ENDBRANCH  35  36
ENDBRANCH  29  30
ENDBRANCH   8  29
TORSDOF 8
ENDMDL
MODEL 7
REMARK VINA RESULT:      -6.5      2.041      8.492
REMARK  Name = 
REMARK  11 active torsions:
REMARK  status: ('A' for Active; 'I' for Inactive)
REMARK    1  A    between atoms: C_1  and  C_2
REMARK    2  A    between atoms: C_2  and  C_3
REMARK    3  A    between atoms: C_4  and  C_5
REMARK    4  A    between atoms: C_5  and  N_6
REMARK    5  A    between atoms: C_7  and  N_8
REMARK    6  A    between atoms: C_12  and  N_13
REMARK    7  A    between atoms: C_15  and  C_16
REMARK    8  A    between atoms: N_22  and  C_23
REMARK    9  A    between atoms: C_23  and  C_24
REMARK   10  A    between atoms: C_29  and  C_30
REMARK   11  A    between atoms: N_34  and  C_35
REMARK                            x       y       z     vdW  Elec       q    Type
REMARK                         _______ _______ _______ _____ _____    ______ ____
ROOT
ATOM      1  N   UNL     1      -3.232  13.331  20.577  0.00  0.00    +0.000 N 
ATOM      2  C   UNL     1      -4.572  13.099  20.231  0.00  0.00    +0.000 A 
ATOM      3  C   UNL     1      -4.552  12.240  19.139  0.00  0.00    +0.000 A 
ATOM      4  C   UNL     1      -3.212  11.840  18.911  0.00  0.00    +0.000 A 
ATOM      5  C   UNL     1      -2.410  12.555  19.766  0.00  0.00    +0.000 A 
ATOM      6  C   UNL     1      -0.973  12.419  19.764  0.00  0.00    +0.000 A 
ATOM      7  O   UNL     1      -0.231  13.063  20.501  0.00  0.00    +0.000 OA
ATOM      8  N   UNL     1      -0.499  11.447  18.874  0.00  0.00    +0.000 N 
ATOM      9  C   UNL     1      -1.297  10.620  18.084  0.00  0.00    +0.000 A 
ATOM     10  O   UNL     1      -0.812   9.671  17.460  0.00  0.00    +0.000 OA
ATOM     11  N   UNL     1      -2.667  10.888  18.050  0.00  0.00    +0.000 N 
ATOM     12  C   UNL     1      -3.497  10.064  17.180  0.00  0.00    +0.000 C 
ENDROOT
BRANCH   2  13
ATOM     13  N   UNL     1      -5.627  13.573  20.983  0.00  0.00    +0.000 N 
ATOM     14  C   UNL     1      -6.586  12.592  21.547  0.00  0.00    +0.000 C 
ATOM     15  C   UNL     1      -7.240  13.164  22.800  0.00  0.00    +0.000 C 
ATOM     16  C   UNL     1      -7.916  14.505  22.522  0.00  0.00    +0.000 C 
ATOM     17  C   UNL     1      -6.962  15.477  21.815  0.00  0.00    +0.000 C 
ATOM     18  C   UNL     1      -6.329  14.804  20.567  0.00  0.00    +0.000 C 
BRANCH  17  19
ATOM     19  N   UNL     1      -7.685  16.715  21.501  0.00  0.00    +0.000 NA
ATOM     20  H   UNL     1      -8.597  16.499  21.102  0.00  0.00    +0.000 HD
ATOM     21  H   UNL     1      -7.175  17.242  20.793  0.00  0.00    +0.000 HD
ENDBRANCH  17  19
ENDBRANCH   2  13
BRANCH   3  22
ATOM     22  C   UNL     1      -5.706  11.793  18.425  0.00  0.00    +0.000 C 
ATOM     23  N   UNL     1      -6.636  11.416  17.837  0.00  0.00    +0.000 NA
ENDBRANCH   3  22
BRANCH   1  24
ATOM     24  C   UNL     1      -2.768  14.137  21.716  0.00  0.00    +0.000 C 
BRANCH  24  28
ATOM     25  C   UNL     1      -4.269  12.538  24.960  0.00  0.00    +0.000 C 
ATOM     26  C   UNL     1      -3.393  12.704  23.746  0.00  0.00    +0.000 C 
ATOM     27  C   UNL     1      -2.428  11.594  23.442  0.00  0.00    +0.000 C 
ATOM     28  C   UNL     1      -3.511  13.815  22.990  0.00  0.00    +0.000 C 
ENDBRANCH  24  28
ENDBRANCH   1  24
BRANCH   8  29
ATOM     29  C   UNL     1       0.945  11.255  18.777  0.00  0.00    +0.000 C 
BRANCH  29  30
ATOM     30  C   UNL     1       1.390   9.795  18.870  0.00  0.00    +0.000 A 
ATOM     31  N   UNL     1       1.827   9.184  17.731  0.00  0.00    +0.000 NA
ATOM     32  C   UNL     1       2.319   7.928  17.835  0.00  0.00    +0.000 A 
ATOM     33  C   UNL     1       2.408   7.232  19.027  0.00  0.00    +0.000 A 
ATOM     34  C   UNL     1       1.921   7.842  20.178  0.00  0.00    +0.000 A 
ATOM     35  C   UNL     1       1.388   9.133  20.105  0.00  0.00    +0.000 A 
BRANCH  35  36
ATOM     36  C   UNL     1       0.861   9.741  21.288  0.00  0.00    +0.000 C 
ATOM     37  N   UNL     1       0.426  10.224  22.249  0.00  0.00    +0.000 NA
ENDBRANCH  35  36
ENDBRANCH  29  30
ENDBRANCH   8  29
TORSDOF 8
ENDMDL
MODEL 8
REMARK VINA RESULT:      -6.4      4.414      8.940
REMARK  Name = 
REMARK  11 active torsions:
REMARK  status: ('A' for Active; 'I' for Inactive)
REMARK    1  A    between atoms: C_1  and  C_2
REMARK    2  A    between atoms: C_2  and  C_3
REMARK    3  A    between atoms: C_4  and  C_5
REMARK    4  A    between atoms: C_5  and  N_6
REMARK    5  A    between atoms: C_7  and  N_8
REMARK    6  A    between atoms: C_12  and  N_13
REMARK    7  A    between atoms: C_15  and  C_16
REMARK    8  A    between atoms: N_22  and  C_23
REMARK    9  A    between atoms: C_23  and  C_24
REMARK   10  A    between atoms: C_29  and  C_30
REMARK   11  A    between atoms: N_34  and  C_35
REMARK                            x       y       z     vdW  Elec       q    Type
REMARK                         _______ _______ _______ _____ _____    ______ ____
ROOT
ATOM      1  N   UNL     1       0.407  14.565  20.819  0.00  0.00    +0.000 N 
ATOM      2  C   UNL     1      -0.878  15.115  20.939  0.00  0.00    +0.000 A 
ATOM      3  C   UNL     1      -0.881  16.275  20.177  0.00  0.00    +0.000 A 
ATOM      4  C   UNL     1       0.353  16.357  19.484  0.00  0.00    +0.000 A 
ATOM      5  C   UNL     1       1.151  15.330  19.927  0.00  0.00    +0.000 A 
ATOM      6  C   UNL     1       2.501  15.147  19.451  0.00  0.00    +0.000 A 
ATOM      7  O   UNL     1       3.244  14.252  19.848  0.00  0.00    +0.000 OA
ATOM      8  N   UNL     1       2.878  16.059  18.458  0.00  0.00    +0.000 N 
ATOM      9  C   UNL     1       2.050  17.034  17.901  0.00  0.00    +0.000 A 
ATOM     10  O   UNL     1       2.400  17.680  16.909  0.00  0.00    +0.000 OA
ATOM     11  N   UNL     1       0.798  17.229  18.491  0.00  0.00    +0.000 N 
ATOM     12  C   UNL     1      -0.048  18.285  17.950  0.00  0.00    +0.000 C 
ENDROOT
BRANCH   2  13
ATOM     13  N   UNL     1      -1.904  14.470  21.599  0.00  0.00    +0.000 N 
ATOM     14  C   UNL     1      -2.974  13.837  20.789  0.00  0.00    +0.000 C 
ATOM     15  C   UNL     1      -3.607  12.690  21.568  0.00  0.00    +0.000 C 
ATOM     16  C   UNL     1      -4.137  13.153  22.924  0.00  0.00    +0.000 C 
ATOM     17  C   UNL     1      -3.068  13.927  23.708  0.00  0.00    +0.000 C 
ATOM     18  C   UNL     1      -2.466  15.058  22.832  0.00  0.00    +0.000 C 
BRANCH  17  19
ATOM     19  N   UNL     1      -3.655  14.415  24.962  0.00  0.00    +0.000 NA
ATOM     20  H   UNL     1      -3.856  15.411  24.893  0.00  0.00    +0.000 HD
ATOM     21  H   UNL     1      -2.982  14.306  25.721  0.00  0.00    +0.000 HD
ENDBRANCH  17  19
ENDBRANCH   2  13
BRANCH   3  22
ATOM     22  C   UNL     1      -1.977  17.185  20.068  0.00  0.00    +0.000 C 
ATOM     23  N   UNL     1      -2.877  17.917  19.991  0.00  0.00    +0.000 NA
ENDBRANCH   3  22
BRANCH   1  24
ATOM     24  C   UNL     1       0.855  13.295  21.412  0.00  0.00    +0.000 C 
BRANCH  24  28
ATOM     25  C   UNL     1      -0.554   9.871  20.138  0.00  0.00    +0.000 C 
ATOM     26  C   UNL     1      -0.225  10.994  21.086  0.00  0.00    +0.000 C 
ATOM     27  C   UNL     1      -0.610  10.810  22.526  0.00  0.00    +0.000 C 
ATOM     28  C   UNL     1       0.397  12.096  20.618  0.00  0.00    +0.000 C 
ENDBRANCH  24  28
ENDBRANCH   1  24
BRANCH   8  29
ATOM     29  C   UNL     1       4.238  15.976  17.932  0.00  0.00    +0.000 C 
BRANCH  29  30
ATOM     30  C   UNL     1       5.303  16.566  18.856  0.00  0.00    +0.000 A 
ATOM     31  N   UNL     1       4.985  17.685  19.569  0.00  0.00    +0.000 NA
ATOM     32  C   UNL     1       5.889  18.144  20.464  0.00  0.00    +0.000 A 
ATOM     33  C   UNL     1       7.112  17.542  20.700  0.00  0.00    +0.000 A 
ATOM     34  C   UNL     1       7.451  16.429  19.940  0.00  0.00    +0.000 A 
ATOM     35  C   UNL     1       6.548  15.937  18.992  0.00  0.00    +0.000 A 
BRANCH  35  36
ATOM     36  C   UNL     1       6.916  14.808  18.193  0.00  0.00    +0.000 C 
ATOM     37  N   UNL     1       7.205  13.896  17.537  0.00  0.00    +0.000 NA
ENDBRANCH  35  36
ENDBRANCH  29  30
ENDBRANCH   8  29
TORSDOF 8
ENDMDL
MODEL 9
REMARK VINA RESULT:      -6.3      6.406     11.359
REMARK  Name = 
REMARK  11 active torsions:
REMARK  status: ('A' for Active; 'I' for Inactive)
REMARK    1  A    between atoms: C_1  and  C_2
REMARK    2  A    between atoms: C_2  and  C_3
REMARK    3  A    between atoms: C_4  and  C_5
REMARK    4  A    between atoms: C_5  and  N_6
REMARK    5  A    between atoms: C_7  and  N_8
REMARK    6  A    between atoms: C_12  and  N_13
REMARK    7  A    between atoms: C_15  and  C_16
REMARK    8  A    between atoms: N_22  and  C_23
REMARK    9  A    between atoms: C_23  and  C_24
REMARK   10  A    between atoms: C_29  and  C_30
REMARK   11  A    between atoms: N_34  and  C_35
REMARK                            x       y       z     vdW  Elec       q    Type
REMARK                         _______ _______ _______ _____ _____    ______ ____
ROOT
ATOM      1  N   UNL     1       3.673  15.233  19.752  0.00  0.00    +0.000 N 
ATOM      2  C   UNL     1       3.250  15.397  21.080  0.00  0.00    +0.000 A 
ATOM      3  C   UNL     1       4.398  15.400  21.860  0.00  0.00    +0.000 A 
ATOM      4  C   UNL     1       5.523  15.381  20.998  0.00  0.00    +0.000 A 
ATOM      5  C   UNL     1       5.064  15.226  19.713  0.00  0.00    +0.000 A 
ATOM      6  C   UNL     1       5.958  15.125  18.585  0.00  0.00    +0.000 A 
ATOM      7  O   UNL     1       5.574  14.963  17.429  0.00  0.00    +0.000 OA
ATOM      8  N   UNL     1       7.309  15.273  18.921  0.00  0.00    +0.000 N 
ATOM      9  C   UNL     1       7.797  15.553  20.197  0.00  0.00    +0.000 A 
ATOM     10  O   UNL     1       8.983  15.844  20.378  0.00  0.00    +0.000 OA
ATOM     11  N   UNL     1       6.886  15.521  21.256  0.00  0.00    +0.000 N 
ATOM     12  C   UNL     1       7.402  15.755  22.599  0.00  0.00    +0.000 C 
ENDROOT
BRANCH   2  13
ATOM     13  N   UNL     1       1.933  15.637  21.416  0.00  0.00    +0.000 N 
ATOM     14  C   UNL     1       1.605  16.906  22.111  0.00  0.00    +0.000 C 
ATOM     15  C   UNL     1       0.157  17.294  21.830  0.00  0.00    +0.000 C 
ATOM     16  C   UNL     1      -0.812  16.180  22.220  0.00  0.00    +0.000 C 
ATOM     17  C   UNL     1      -0.394  14.835  21.609  0.00  0.00    +0.000 C 
ATOM     18  C   UNL     1       1.095  14.533  21.928  0.00  0.00    +0.000 C 
BRANCH  17  19
ATOM     19  N   UNL     1      -1.311  13.789  22.081  0.00  0.00    +0.000 NA
ATOM     20  H   UNL     1      -2.266  14.007  21.802  0.00  0.00    +0.000 HD
ATOM     21  H   UNL     1      -1.304  13.761  23.100  0.00  0.00    +0.000 HD
ENDBRANCH  17  19
ENDBRANCH   2  13
BRANCH   3  22
ATOM     22  C   UNL     1       4.423  15.481  23.286  0.00  0.00    +0.000 C 
ATOM     23  N   UNL     1       4.455  15.559  24.446  0.00  0.00    +0.000 NA
ENDBRANCH   3  22
BRANCH   1  24
ATOM     24  C   UNL     1       2.799  15.230  18.568  0.00  0.00    +0.000 C 
BRANCH  24  28
ATOM     25  C   UNL     1       0.956  18.524  17.528  0.00  0.00    +0.000 C 
ATOM     26  C   UNL     1       1.152  17.117  18.027  0.00  0.00    +0.000 C 
ATOM     27  C   UNL     1      -0.083  16.332  18.365  0.00  0.00    +0.000 C 
ATOM     28  C   UNL     1       2.402  16.622  18.142  0.00  0.00    +0.000 C 
ENDBRANCH  24  28
ENDBRANCH   1  24
BRANCH   8  29
ATOM     29  C   UNL     1       8.297  15.156  17.851  0.00  0.00    +0.000 C 
BRANCH  29  30
ATOM     30  C   UNL     1       9.116  13.866  17.894  0.00  0.00    +0.000 A 
ATOM     31  N   UNL     1       8.474  12.710  18.231  0.00  0.00    +0.000 NA
ATOM     32  C   UNL     1       9.175  11.555  18.166  0.00  0.00    +0.000 A 
ATOM     33  C   UNL     1      10.499  11.479  17.774  0.00  0.00    +0.000 A 
ATOM     34  C   UNL     1      11.162  12.663  17.475  0.00  0.00    +0.000 A 
ATOM     35  C   UNL     1      10.474  13.879  17.549  0.00  0.00    +0.000 A 
BRANCH  35  36
ATOM     36  C   UNL     1      11.171  15.097  17.268  0.00  0.00    +0.000 C 
ATOM     37  N   UNL     1      11.737  16.087  17.053  0.00  0.00    +0.000 NA
ENDBRANCH  35  36
ENDBRANCH  29  30
ENDBRANCH   8  29
TORSDOF 8
ENDMDL
