MODEL 1
REMARK VINA RESULT:      -9.5      0.000      0.000
REMARK  Name = 
REMARK  7 active torsions:
REMARK  status: ('A' for Active; 'I' for Inactive)
REMARK    1  A    between atoms: C_3  and  C_4
REMARK    2  A    between atoms: C_7  and  O_8
REMARK    3  A    between atoms: C_15  and  O_16
REMARK    4  A    between atoms: O_16  and  C_17
REMARK    5  A    between atoms: C_18  and  N_19
REMARK    6  A    between atoms: C_23  and  N_24
REMARK    7  A    between atoms: C_28  and  C_29
REMARK                            x       y       z     vdW  Elec       q    Type
REMARK                         _______ _______ _______ _____ _____    ______ ____
ROOT
ATOM      1  O   UNL     1       0.055   8.199  21.261  0.00  0.00    +0.000 OA
ATOM      2  C   UNL     1       0.846   8.262  20.333  0.00  0.00    +0.000 A 
ATOM      3  C   UNL     1       0.880   9.402  19.381  0.00  0.00    +0.000 A 
ATOM      4  C   UNL     1       1.792   9.364  18.399  0.00  0.00    +0.000 A 
ATOM      5  O   UNL     1       2.709   8.362  18.174  0.00  0.00    +0.000 OA
ATOM      6  C   UNL     1       2.692   7.281  19.022  0.00  0.00    +0.000 A 
ATOM      7  C   UNL     1       3.608   6.255  18.779  0.00  0.00    +0.000 A 
ATOM      8  C   UNL     1       3.651   5.128  19.613  0.00  0.00    +0.000 A 
ATOM      9  C   UNL     1       2.743   5.009  20.667  0.00  0.00    +0.000 A 
ATOM     10  C   UNL     1       1.848   6.052  20.927  0.00  0.00    +0.000 A 
ATOM     11  C   UNL     1       1.818   7.179  20.096  0.00  0.00    +0.000 A 
ENDROOT
BRANCH   3  12
ATOM     12  C   UNL     1      -0.054  10.530  19.499  0.00  0.00    +0.000 A 
ATOM     13  C   UNL     1      -1.213  10.576  18.713  0.00  0.00    +0.000 A 
ATOM     14  C   UNL     1      -2.104  11.648  18.827  0.00  0.00    +0.000 A 
ATOM     15  C   UNL     1      -1.829  12.673  19.727  0.00  0.00    +0.000 A 
ATOM     16  C   UNL     1      -0.683  12.642  20.514  0.00  0.00    +0.000 A 
ATOM     17  C   UNL     1       0.206  11.570  20.401  0.00  0.00    +0.000 A 
BRANCH  15  18
ATOM     18  O   UNL     1      -2.666  13.739  19.869  0.00  0.00    +0.000 OA
ATOM     19  H   UNL     1      -2.824  13.886  20.815  0.00  0.00    +0.000 HD
ENDBRANCH  15  18
ENDBRANCH   3  12
BRANCH   8  20
ATOM     20  O   UNL     1       4.636   4.223  19.299  0.00  0.00    +0.000 OA
BRANCH  20  21
ATOM     21  C   UNL     1       5.300   4.230  18.097  0.00  0.00    +0.000 A 
ATOM     22  C   UNL     1       4.620   3.644  17.002  0.00  0.00    +0.000 A 
ATOM     23  C   UNL     1       5.096   3.699  15.683  0.00  0.00    +0.000 A 
ATOM     24  C   UNL     1       6.286   4.376  15.440  0.00  0.00    +0.000 A 
ATOM     25  C   UNL     1       6.985   4.962  16.502  0.00  0.00    +0.000 A 
ATOM     26  C   UNL     1       6.506   4.918  17.837  0.00  0.00    +0.000 A 
BRANCH  26  27
ATOM     27  C   UNL     1       7.388   5.621  18.848  0.00  0.00    +0.000 C 
ATOM     28  F   UNL     1       6.896   5.770  20.100  0.00  0.00    +0.000 F 
ATOM     29  F   UNL     1       8.581   4.972  18.975  0.00  0.00    +0.000 F 
ATOM     30  F   UNL     1       7.704   6.883  18.439  0.00  0.00    +0.000 F 
ENDBRANCH  26  27
BRANCH  22  31
ATOM     31  N   UNL     1       3.360   2.946  17.205  0.00  0.00    +0.000 N 
ATOM     32  O   UNL     1       2.330   3.493  16.796  0.00  0.00    +0.000 OA
ATOM     33  O   UNL     1       3.429   1.820  17.719  0.00  0.00    +0.000 OA
ENDBRANCH  22  31
BRANCH  24  34
ATOM     34  N   UNL     1       6.804   4.502  14.071  0.00  0.00    +0.000 N 
ATOM     35  O   UNL     1       7.660   5.370  13.863  0.00  0.00    +0.000 OA
ATOM     36  O   UNL     1       6.362   3.722  13.217  0.00  0.00    +0.000 OA
ENDBRANCH  24  34
ENDBRANCH  20  21
ENDBRANCH   8  20
TORSDOF 7
ENDMDL
MODEL 2
REMARK VINA RESULT:      -9.2      0.402      1.218
REMARK  Name = 
REMARK  7 active torsions:
REMARK  status: ('A' for Active; 'I' for Inactive)
REMARK    1  A    between atoms: C_3  and  C_4
REMARK    2  A    between atoms: C_7  and  O_8
REMARK    3  A    between atoms: C_15  and  O_16
REMARK    4  A    between atoms: O_16  and  C_17
REMARK    5  A    between atoms: C_18  and  N_19
REMARK    6  A    between atoms: C_23  and  N_24
REMARK    7  A    between atoms: C_28  and  C_29
REMARK                            x       y       z     vdW  Elec       q    Type
REMARK                         _______ _______ _______ _____ _____    ______ ____
ROOT
ATOM      1  O   UNL     1       0.338   8.672  21.308  0.00  0.00    +0.000 OA
ATOM      2  C   UNL     1       1.041   8.620  20.310  0.00  0.00    +0.000 A 
ATOM      3  C   UNL     1       1.068   9.698  19.288  0.00  0.00    +0.000 A 
ATOM      4  C   UNL     1       1.879   9.534  18.233  0.00  0.00    +0.000 A 
ATOM      5  O   UNL     1       2.695   8.452  17.991  0.00  0.00    +0.000 OA
ATOM      6  C   UNL     1       2.679   7.425  18.904  0.00  0.00    +0.000 A 
ATOM      7  C   UNL     1       3.490   6.318  18.646  0.00  0.00    +0.000 A 
ATOM      8  C   UNL     1       3.529   5.240  19.543  0.00  0.00    +0.000 A 
ATOM      9  C   UNL     1       2.718   5.252  20.679  0.00  0.00    +0.000 A 
ATOM     10  C   UNL     1       1.930   6.376  20.952  0.00  0.00    +0.000 A 
ATOM     11  C   UNL     1       1.905   7.453  20.057  0.00  0.00    +0.000 A 
ENDROOT
BRANCH   3  12
ATOM     12  C   UNL     1       0.235  10.901  19.418  0.00  0.00    +0.000 A 
ATOM     13  C   UNL     1       0.772  12.081  19.952  0.00  0.00    +0.000 A 
ATOM     14  C   UNL     1      -0.019  13.228  20.073  0.00  0.00    +0.000 A 
ATOM     15  C   UNL     1      -1.348  13.189  19.662  0.00  0.00    +0.000 A 
ATOM     16  C   UNL     1      -1.895  12.026  19.130  0.00  0.00    +0.000 A 
ATOM     17  C   UNL     1      -1.104  10.881  19.007  0.00  0.00    +0.000 A 
BRANCH  15  18
ATOM     18  O   UNL     1      -2.156  14.281  19.764  0.00  0.00    +0.000 OA
ATOM     19  H   UNL     1      -1.943  14.750  20.587  0.00  0.00    +0.000 HD
ENDBRANCH  15  18
ENDBRANCH   3  12
BRANCH   8  20
ATOM     20  O   UNL     1       4.411   4.244  19.200  0.00  0.00    +0.000 OA
BRANCH  20  21
ATOM     21  C   UNL     1       5.086   4.223  18.004  0.00  0.00    +0.000 A 
ATOM     22  C   UNL     1       4.413   3.621  16.915  0.00  0.00    +0.000 A 
ATOM     23  C   UNL     1       4.900   3.647  15.599  0.00  0.00    +0.000 A 
ATOM     24  C   UNL     1       6.096   4.312  15.354  0.00  0.00    +0.000 A 
ATOM     25  C   UNL     1       6.789   4.915  16.411  0.00  0.00    +0.000 A 
ATOM     26  C   UNL     1       6.298   4.900  17.742  0.00  0.00    +0.000 A 
BRANCH  26  27
ATOM     27  C   UNL     1       7.176   5.617  18.747  0.00  0.00    +0.000 C 
ATOM     28  F   UNL     1       8.427   5.136  18.929  0.00  0.00    +0.000 F 
ATOM     29  F   UNL     1       7.312   6.932  18.410  0.00  0.00    +0.000 F 
ATOM     30  F   UNL     1       6.612   5.617  19.988  0.00  0.00    +0.000 F 
ENDBRANCH  26  27
BRANCH  22  31
ATOM     31  N   UNL     1       3.146   2.933  17.120  0.00  0.00    +0.000 N 
ATOM     32  O   UNL     1       3.180   1.817  17.649  0.00  0.00    +0.000 OA
ATOM     33  O   UNL     1       2.123   3.555  16.802  0.00  0.00    +0.000 OA
ENDBRANCH  22  31
BRANCH  24  34
ATOM     34  N   UNL     1       6.626   4.408  13.987  0.00  0.00    +0.000 N 
ATOM     35  O   UNL     1       7.439   5.312  13.753  0.00  0.00    +0.000 OA
ATOM     36  O   UNL     1       6.239   3.571  13.162  0.00  0.00    +0.000 OA
ENDBRANCH  24  34
ENDBRANCH  20  21
ENDBRANCH   8  20
TORSDOF 7
ENDMDL
MODEL 3
REMARK VINA RESULT:      -9.1      5.024     10.424
REMARK  Name = 
REMARK  7 active torsions:
REMARK  status: ('A' for Active; 'I' for Inactive)
REMARK    1  A    between atoms: C_3  and  C_4
REMARK    2  A    between atoms: C_7  and  O_8
REMARK    3  A    between atoms: C_15  and  O_16
REMARK    4  A    between atoms: O_16  and  C_17
REMARK    5  A    between atoms: C_18  and  N_19
REMARK    6  A    between atoms: C_23  and  N_24
REMARK    7  A    between atoms: C_28  and  C_29
REMARK                            x       y       z     vdW  Elec       q    Type
REMARK                         _______ _______ _______ _____ _____    ______ ____
ROOT
ATOM      1  O   UNL     1       3.080   6.809  17.504  0.00  0.00    +0.000 OA
ATOM      2  C   UNL     1       2.466   6.934  18.552  0.00  0.00    +0.000 A 
ATOM      3  C   UNL     1       2.270   5.813  19.508  0.00  0.00    +0.000 A 
ATOM      4  C   UNL     1       1.579   6.067  20.628  0.00  0.00    +0.000 A 
ATOM      5  O   UNL     1       1.018   7.272  20.987  0.00  0.00    +0.000 OA
ATOM      6  C   UNL     1       1.160   8.325  20.116  0.00  0.00    +0.000 A 
ATOM      7  C   UNL     1       0.571   9.540  20.472  0.00  0.00    +0.000 A 
ATOM      8  C   UNL     1       0.688  10.659  19.633  0.00  0.00    +0.000 A 
ATOM      9  C   UNL     1       1.358  10.546  18.413  0.00  0.00    +0.000 A 
ATOM     10  C   UNL     1       1.974   9.336  18.075  0.00  0.00    +0.000 A 
ATOM     11  C   UNL     1       1.862   8.227  18.923  0.00  0.00    +0.000 A 
ENDROOT
BRANCH   3  12
ATOM     12  C   UNL     1       2.805   4.472  19.240  0.00  0.00    +0.000 A 
ATOM     13  C   UNL     1       2.065   3.552  18.483  0.00  0.00    +0.000 A 
ATOM     14  C   UNL     1       2.575   2.276  18.225  0.00  0.00    +0.000 A 
ATOM     15  C   UNL     1       3.823   1.923  18.728  0.00  0.00    +0.000 A 
ATOM     16  C   UNL     1       4.569   2.823  19.481  0.00  0.00    +0.000 A 
ATOM     17  C   UNL     1       4.060   4.099  19.737  0.00  0.00    +0.000 A 
BRANCH  15  18
ATOM     18  O   UNL     1       4.357   0.689  18.504  0.00  0.00    +0.000 OA
ATOM     19  H   UNL     1       4.977   0.484  19.223  0.00  0.00    +0.000 HD
ENDBRANCH  15  18
ENDBRANCH   3  12
BRANCH   8  20
ATOM     20  O   UNL     1       0.115  11.805  20.126  0.00  0.00    +0.000 OA
BRANCH  20  21
ATOM     21  C   UNL     1      -1.238  11.936  20.328  0.00  0.00    +0.000 A 
ATOM     22  C   UNL     1      -1.649  12.235  21.650  0.00  0.00    +0.000 A 
ATOM     23  C   UNL     1      -2.974  12.542  21.992  0.00  0.00    +0.000 A 
ATOM     24  C   UNL     1      -3.926  12.570  20.980  0.00  0.00    +0.000 A 
ATOM     25  C   UNL     1      -3.553  12.275  19.662  0.00  0.00    +0.000 A 
ATOM     26  C   UNL     1      -2.213  11.972  19.307  0.00  0.00    +0.000 A 
BRANCH  26  27
ATOM     27  C   UNL     1      -1.998  11.696  17.833  0.00  0.00    +0.000 C 
ATOM     28  F   UNL     1      -1.569  10.459  17.492  0.00  0.00    +0.000 F 
ATOM     29  F   UNL     1      -3.148  11.915  17.133  0.00  0.00    +0.000 F 
ATOM     30  F   UNL     1      -1.079  12.549  17.297  0.00  0.00    +0.000 F 
ENDBRANCH  26  27
BRANCH  22  31
ATOM     31  N   UNL     1      -0.683  12.240  22.738  0.00  0.00    +0.000 N 
ATOM     32  O   UNL     1      -0.458  11.168  23.309  0.00  0.00    +0.000 OA
ATOM     33  O   UNL     1      -0.113  13.317  22.965  0.00  0.00    +0.000 OA
ENDBRANCH  22  31
BRANCH  24  34
ATOM     34  N   UNL     1      -5.318  12.931  21.278  0.00  0.00    +0.000 N 
ATOM     35  O   UNL     1      -5.713  14.041  20.899  0.00  0.00    +0.000 OA
ATOM     36  O   UNL     1      -6.012  12.097  21.875  0.00  0.00    +0.000 OA
ENDBRANCH  24  34
ENDBRANCH  20  21
ENDBRANCH   8  20
TORSDOF 7
ENDMDL
MODEL 4
REMARK VINA RESULT:      -8.9      5.058     10.543
REMARK  Name = 
REMARK  7 active torsions:
REMARK  status: ('A' for Active; 'I' for Inactive)
REMARK    1  A    between atoms: C_3  and  C_4
REMARK    2  A    between atoms: C_7  and  O_8
REMARK    3  A    between atoms: C_15  and  O_16
REMARK    4  A    between atoms: O_16  and  C_17
REMARK    5  A    between atoms: C_18  and  N_19
REMARK    6  A    between atoms: C_23  and  N_24
REMARK    7  A    between atoms: C_28  and  C_29
REMARK                            x       y       z     vdW  Elec       q    Type
REMARK                         _______ _______ _______ _____ _____    ______ ____
ROOT
ATOM      1  O   UNL     1       3.115   7.095  17.681  0.00  0.00    +0.000 OA
ATOM      2  C   UNL     1       2.468   7.231  18.708  0.00  0.00    +0.000 A 
ATOM      3  C   UNL     1       2.278   6.132  19.691  0.00  0.00    +0.000 A 
ATOM      4  C   UNL     1       1.548   6.396  20.783  0.00  0.00    +0.000 A 
ATOM      5  O   UNL     1       0.940   7.593  21.090  0.00  0.00    +0.000 OA
ATOM      6  C   UNL     1       1.075   8.625  20.193  0.00  0.00    +0.000 A 
ATOM      7  C   UNL     1       0.439   9.831  20.495  0.00  0.00    +0.000 A 
ATOM      8  C   UNL     1       0.546  10.928  19.627  0.00  0.00    +0.000 A 
ATOM      9  C   UNL     1       1.255  10.800  18.430  0.00  0.00    +0.000 A 
ATOM     10  C   UNL     1       1.917   9.601  18.146  0.00  0.00    +0.000 A 
ATOM     11  C   UNL     1       1.814   8.514  19.023  0.00  0.00    +0.000 A 
ENDROOT
BRANCH   3  12
ATOM     12  C   UNL     1       2.861   4.801  19.478  0.00  0.00    +0.000 A 
ATOM     13  C   UNL     1       4.252   4.628  19.482  0.00  0.00    +0.000 A 
ATOM     14  C   UNL     1       4.809   3.360  19.282  0.00  0.00    +0.000 A 
ATOM     15  C   UNL     1       3.970   2.270  19.076  0.00  0.00    +0.000 A 
ATOM     16  C   UNL     1       2.588   2.425  19.068  0.00  0.00    +0.000 A 
ATOM     17  C   UNL     1       2.032   3.691  19.270  0.00  0.00    +0.000 A 
BRANCH  15  18
ATOM     18  O   UNL     1       4.468   1.018  18.874  0.00  0.00    +0.000 OA
ATOM     19  H   UNL     1       4.938   0.737  19.676  0.00  0.00    +0.000 HD
ENDBRANCH  15  18
ENDBRANCH   3  12
BRANCH   8  20
ATOM     20  O   UNL     1      -0.076  12.069  20.070  0.00  0.00    +0.000 OA
BRANCH  20  21
ATOM     21  C   UNL     1      -1.420  12.128  20.346  0.00  0.00    +0.000 A 
ATOM     22  C   UNL     1      -1.774  12.444  21.680  0.00  0.00    +0.000 A 
ATOM     23  C   UNL     1      -3.094  12.684  22.089  0.00  0.00    +0.000 A 
ATOM     24  C   UNL     1      -4.101  12.624  21.133  0.00  0.00    +0.000 A 
ATOM     25  C   UNL     1      -3.785  12.308  19.806  0.00  0.00    +0.000 A 
ATOM     26  C   UNL     1      -2.452  12.072  19.382  0.00  0.00    +0.000 A 
BRANCH  26  27
ATOM     27  C   UNL     1      -2.303  11.762  17.907  0.00  0.00    +0.000 C 
ATOM     28  F   UNL     1      -3.405  11.897  17.133  0.00  0.00    +0.000 F 
ATOM     29  F   UNL     1      -1.339  12.547  17.348  0.00  0.00    +0.000 F 
ATOM     30  F   UNL     1      -1.886  10.479  17.708  0.00  0.00    +0.000 F 
ENDBRANCH  26  27
BRANCH  22  31
ATOM     31  N   UNL     1      -0.751  12.541  22.710  0.00  0.00    +0.000 N 
ATOM     32  O   UNL     1      -0.281  13.660  22.947  0.00  0.00    +0.000 OA
ATOM     33  O   UNL     1      -0.475  11.496  23.315  0.00  0.00    +0.000 OA
ENDBRANCH  22  31
BRANCH  24  34
ATOM     34  N   UNL     1      -5.494  12.912  21.501  0.00  0.00    +0.000 N 
ATOM     35  O   UNL     1      -5.817  14.101  21.621  0.00  0.00    +0.000 OA
ATOM     36  O   UNL     1      -6.258  11.951  21.652  0.00  0.00    +0.000 OA
ENDBRANCH  24  34
ENDBRANCH  20  21
ENDBRANCH   8  20
TORSDOF 7
ENDMDL
MODEL 5
REMARK VINA RESULT:      -8.8      5.147     10.642
REMARK  Name = 
REMARK  7 active torsions:
REMARK  status: ('A' for Active; 'I' for Inactive)
REMARK    1  A    between atoms: C_3  and  C_4
REMARK    2  A    between atoms: C_7  and  O_8
REMARK    3  A    between atoms: C_15  and  O_16
REMARK    4  A    between atoms: O_16  and  C_17
REMARK    5  A    between atoms: C_18  and  N_19
REMARK    6  A    between atoms: C_23  and  N_24
REMARK    7  A    between atoms: C_28  and  C_29
REMARK                            x       y       z     vdW  Elec       q    Type
REMARK                         _______ _______ _______ _____ _____    ______ ____
ROOT
ATOM      1  O   UNL     1       3.014   7.277  17.786  0.00  0.00    +0.000 OA
ATOM      2  C   UNL     1       2.378   7.439  18.816  0.00  0.00    +0.000 A 
ATOM      3  C   UNL     1       2.236   6.380  19.849  0.00  0.00    +0.000 A 
ATOM      4  C   UNL     1       1.514   6.670  20.941  0.00  0.00    +0.000 A 
ATOM      5  O   UNL     1       0.876   7.860  21.205  0.00  0.00    +0.000 OA
ATOM      6  C   UNL     1       0.966   8.855  20.262  0.00  0.00    +0.000 A 
ATOM      7  C   UNL     1       0.300  10.054  20.522  0.00  0.00    +0.000 A 
ATOM      8  C   UNL     1       0.360  11.115  19.606  0.00  0.00    +0.000 A 
ATOM      9  C   UNL     1       1.054  10.956  18.404  0.00  0.00    +0.000 A 
ATOM     10  C   UNL     1       1.748   9.765  18.161  0.00  0.00    +0.000 A 
ATOM     11  C   UNL     1       1.691   8.715  19.086  0.00  0.00    +0.000 A 
ENDROOT
BRANCH   3  12
ATOM     12  C   UNL     1       2.856   5.058  19.684  0.00  0.00    +0.000 A 
ATOM     13  C   UNL     1       2.071   3.897  19.725  0.00  0.00    +0.000 A 
ATOM     14  C   UNL     1       2.659   2.639  19.565  0.00  0.00    +0.000 A 
ATOM     15  C   UNL     1       4.033   2.546  19.369  0.00  0.00    +0.000 A 
ATOM     16  C   UNL     1       4.826   3.688  19.326  0.00  0.00    +0.000 A 
ATOM     17  C   UNL     1       4.237   4.945  19.483  0.00  0.00    +0.000 A 
BRANCH  15  18
ATOM     18  O   UNL     1       4.649   1.341  19.212  0.00  0.00    +0.000 OA
ATOM     19  H   UNL     1       5.609   1.470  19.287  0.00  0.00    +0.000 HD
ENDBRANCH  15  18
ENDBRANCH   3  12
BRANCH   8  20
ATOM     20  O   UNL     1      -0.289  12.256  20.009  0.00  0.00    +0.000 OA
BRANCH  20  21
ATOM     21  C   UNL     1      -1.631  12.288  20.300  0.00  0.00    +0.000 A 
ATOM     22  C   UNL     1      -1.981  12.722  21.601  0.00  0.00    +0.000 A 
ATOM     23  C   UNL     1      -3.304  12.949  22.007  0.00  0.00    +0.000 A 
ATOM     24  C   UNL     1      -4.320  12.753  21.078  0.00  0.00    +0.000 A 
ATOM     25  C   UNL     1      -4.008  12.319  19.784  0.00  0.00    +0.000 A 
ATOM     26  C   UNL     1      -2.671  12.095  19.364  0.00  0.00    +0.000 A 
BRANCH  26  27
ATOM     27  C   UNL     1      -2.529  11.644  17.925  0.00  0.00    +0.000 C 
ATOM     28  F   UNL     1      -1.595  12.270  17.171  0.00  0.00    +0.000 F 
ATOM     29  F   UNL     1      -2.244  10.312  17.867  0.00  0.00    +0.000 F 
ATOM     30  F   UNL     1      -3.697  11.796  17.238  0.00  0.00    +0.000 F 
ENDBRANCH  26  27
BRANCH  22  31
ATOM     31  N   UNL     1      -0.950  12.963  22.600  0.00  0.00    +0.000 N 
ATOM     32  O   UNL     1      -0.504  11.986  23.210  0.00  0.00    +0.000 OA
ATOM     33  O   UNL     1      -0.554  14.132  22.713  0.00  0.00    +0.000 OA
ENDBRANCH  22  31
BRANCH  24  34
ATOM     34  N   UNL     1      -5.719  13.021  21.438  0.00  0.00    +0.000 N 
ATOM     35  O   UNL     1      -6.356  12.104  21.972  0.00  0.00    +0.000 OA
ATOM     36  O   UNL     1      -6.166  14.150  21.200  0.00  0.00    +0.000 OA
ENDBRANCH  24  34
ENDBRANCH  20  21
ENDBRANCH   8  20
TORSDOF 7
ENDMDL
MODEL 6
REMARK VINA RESULT:      -8.6      1.406      2.115
REMARK  Name = 
REMARK  7 active torsions:
REMARK  status: ('A' for Active; 'I' for Inactive)
REMARK    1  A    between atoms: C_3  and  C_4
REMARK    2  A    between atoms: C_7  and  O_8
REMARK    3  A    between atoms: C_15  and  O_16
REMARK    4  A    between atoms: O_16  and  C_17
REMARK    5  A    between atoms: C_18  and  N_19
REMARK    6  A    between atoms: C_23  and  N_24
REMARK    7  A    between atoms: C_28  and  C_29
REMARK                            x       y       z     vdW  Elec       q    Type
REMARK                         _______ _______ _______ _____ _____    ______ ____
ROOT
ATOM      1  O   UNL     1       0.520  10.513  18.460  0.00  0.00    +0.000 OA
ATOM      2  C   UNL     1       0.768   9.697  19.335  0.00  0.00    +0.000 A 
ATOM      3  C   UNL     1       0.167   9.765  20.692  0.00  0.00    +0.000 A 
ATOM      4  C   UNL     1       0.511   8.815  21.572  0.00  0.00    +0.000 A 
ATOM      5  O   UNL     1       1.382   7.772  21.349  0.00  0.00    +0.000 OA
ATOM      6  C   UNL     1       1.975   7.690  20.112  0.00  0.00    +0.000 A 
ATOM      7  C   UNL     1       2.875   6.645  19.895  0.00  0.00    +0.000 A 
ATOM      8  C   UNL     1       3.507   6.497  18.651  0.00  0.00    +0.000 A 
ATOM      9  C   UNL     1       3.269   7.427  17.637  0.00  0.00    +0.000 A 
ATOM     10  C   UNL     1       2.343   8.455  17.847  0.00  0.00    +0.000 A 
ATOM     11  C   UNL     1       1.709   8.589  19.088  0.00  0.00    +0.000 A 
ENDROOT
BRANCH   3  12
ATOM     12  C   UNL     1      -0.768  10.835  21.066  0.00  0.00    +0.000 A 
ATOM     13  C   UNL     1      -1.467  11.543  20.078  0.00  0.00    +0.000 A 
ATOM     14  C   UNL     1      -2.359  12.559  20.433  0.00  0.00    +0.000 A 
ATOM     15  C   UNL     1      -2.546  12.867  21.777  0.00  0.00    +0.000 A 
ATOM     16  C   UNL     1      -1.859  12.175  22.768  0.00  0.00    +0.000 A 
ATOM     17  C   UNL     1      -0.970  11.158  22.414  0.00  0.00    +0.000 A 
BRANCH  15  18
ATOM     18  O   UNL     1      -3.402  13.852  22.168  0.00  0.00    +0.000 OA
ATOM     19  H   UNL     1      -4.161  13.445  22.616  0.00  0.00    +0.000 HD
ENDBRANCH  15  18
ENDBRANCH   3  12
BRANCH   8  20
ATOM     20  O   UNL     1       4.321   5.396  18.552  0.00  0.00    +0.000 OA
BRANCH  20  21
ATOM     21  C   UNL     1       5.000   5.070  17.403  0.00  0.00    +0.000 A 
ATOM     22  C   UNL     1       4.417   4.064  16.595  0.00  0.00    +0.000 A 
ATOM     23  C   UNL     1       4.905   3.719  15.325  0.00  0.00    +0.000 A 
ATOM     24  C   UNL     1       6.004   4.412  14.832  0.00  0.00    +0.000 A 
ATOM     25  C   UNL     1       6.606   5.410  15.608  0.00  0.00    +0.000 A 
ATOM     26  C   UNL     1       6.114   5.770  16.889  0.00  0.00    +0.000 A 
BRANCH  26  27
ATOM     27  C   UNL     1       6.884   6.882  17.572  0.00  0.00    +0.000 C 
ATOM     28  F   UNL     1       6.257   8.073  17.710  0.00  0.00    +0.000 F 
ATOM     29  F   UNL     1       7.268   6.499  18.823  0.00  0.00    +0.000 F 
ATOM     30  F   UNL     1       8.041   7.165  16.908  0.00  0.00    +0.000 F 
ENDBRANCH  26  27
BRANCH  22  31
ATOM     31  N   UNL     1       3.252   3.328  17.060  0.00  0.00    +0.000 N 
ATOM     32  O   UNL     1       2.139   3.735  16.709  0.00  0.00    +0.000 OA
ATOM     33  O   UNL     1       3.473   2.306  17.726  0.00  0.00    +0.000 OA
ENDBRANCH  22  31
BRANCH  24  34
ATOM     34  N   UNL     1       6.525   4.122  13.489  0.00  0.00    +0.000 N 
ATOM     35  O   UNL     1       5.974   3.218  12.847  0.00  0.00    +0.000 OA
ATOM     36  O   UNL     1       7.469   4.808  13.079  0.00  0.00    +0.000 OA
ENDBRANCH  24  34
ENDBRANCH  20  21
ENDBRANCH   8  20
TORSDOF 7
ENDMDL
MODEL 7
REMARK VINA RESULT:      -8.5      1.416      2.294
REMARK  Name = 
REMARK  7 active torsions:
REMARK  status: ('A' for Active; 'I' for Inactive)
REMARK    1  A    between atoms: C_3  and  C_4
REMARK    2  A    between atoms: C_7  and  O_8
REMARK    3  A    between atoms: C_15  and  O_16
REMARK    4  A    between atoms: O_16  and  C_17
REMARK    5  A    between atoms: C_18  and  N_19
REMARK    6  A    between atoms: C_23  and  N_24
REMARK    7  A    between atoms: C_28  and  C_29
REMARK                            x       y       z     vdW  Elec       q    Type
REMARK                         _______ _______ _______ _____ _____    ______ ____
ROOT
ATOM      1  O   UNL     1       0.497  10.429  18.461  0.00  0.00    +0.000 OA
ATOM      2  C   UNL     1       0.776   9.630  19.342  0.00  0.00    +0.000 A 
ATOM      3  C   UNL     1       0.208   9.714  20.713  0.00  0.00    +0.000 A 
ATOM      4  C   UNL     1       0.585   8.781  21.599  0.00  0.00    +0.000 A 
ATOM      5  O   UNL     1       1.461   7.744  21.371  0.00  0.00    +0.000 OA
ATOM      6  C   UNL     1       2.024   7.649  20.120  0.00  0.00    +0.000 A 
ATOM      7  C   UNL     1       2.930   6.610  19.897  0.00  0.00    +0.000 A 
ATOM      8  C   UNL     1       3.532   6.450  18.640  0.00  0.00    +0.000 A 
ATOM      9  C   UNL     1       3.259   7.360  17.618  0.00  0.00    +0.000 A 
ATOM     10  C   UNL     1       2.327   8.381  17.835  0.00  0.00    +0.000 A 
ATOM     11  C   UNL     1       1.722   8.528  19.089  0.00  0.00    +0.000 A 
ENDROOT
BRANCH   3  12
ATOM     12  C   UNL     1      -0.729  10.779  21.093  0.00  0.00    +0.000 A 
ATOM     13  C   UNL     1      -0.977  11.055  22.445  0.00  0.00    +0.000 A 
ATOM     14  C   UNL     1      -1.866  12.072  22.808  0.00  0.00    +0.000 A 
ATOM     15  C   UNL     1      -2.507  12.807  21.816  0.00  0.00    +0.000 A 
ATOM     16  C   UNL     1      -2.272  12.545  20.471  0.00  0.00    +0.000 A 
ATOM     17  C   UNL     1      -1.382  11.531  20.108  0.00  0.00    +0.000 A 
BRANCH  15  18
ATOM     18  O   UNL     1      -3.384  13.804  22.124  0.00  0.00    +0.000 OA
ATOM     19  H   UNL     1      -3.081  14.625  21.704  0.00  0.00    +0.000 HD
ENDBRANCH  15  18
ENDBRANCH   3  12
BRANCH   8  20
ATOM     20  O   UNL     1       4.356   5.356  18.538  0.00  0.00    +0.000 OA
BRANCH  20  21
ATOM     21  C   UNL     1       5.022   5.028  17.382  0.00  0.00    +0.000 A 
ATOM     22  C   UNL     1       4.429   4.022  16.581  0.00  0.00    +0.000 A 
ATOM     23  C   UNL     1       4.903   3.675  15.307  0.00  0.00    +0.000 A 
ATOM     24  C   UNL     1       5.998   4.366  14.801  0.00  0.00    +0.000 A 
ATOM     25  C   UNL     1       6.610   5.364  15.570  0.00  0.00    +0.000 A 
ATOM     26  C   UNL     1       6.131   5.726  16.856  0.00  0.00    +0.000 A 
BRANCH  26  27
ATOM     27  C   UNL     1       6.910   6.837  17.530  0.00  0.00    +0.000 C 
ATOM     28  F   UNL     1       8.079   7.207  16.957  0.00  0.00    +0.000 F 
ATOM     29  F   UNL     1       6.150   7.965  17.624  0.00  0.00    +0.000 F 
ATOM     30  F   UNL     1       7.233   6.509  18.814  0.00  0.00    +0.000 F 
ENDBRANCH  26  27
BRANCH  22  31
ATOM     31  N   UNL     1       3.267   3.288  17.059  0.00  0.00    +0.000 N 
ATOM     32  O   UNL     1       2.151   3.724  16.759  0.00  0.00    +0.000 OA
ATOM     33  O   UNL     1       3.494   2.240  17.682  0.00  0.00    +0.000 OA
ENDBRANCH  22  31
BRANCH  24  34
ATOM     34  N   UNL     1       6.504   4.074  13.453  0.00  0.00    +0.000 N 
ATOM     35  O   UNL     1       5.935   3.181  12.812  0.00  0.00    +0.000 OA
ATOM     36  O   UNL     1       7.455   4.748  13.039  0.00  0.00    +0.000 OA
ENDBRANCH  24  34
ENDBRANCH  20  21
ENDBRANCH   8  20
TORSDOF 7
ENDMDL
MODEL 8
REMARK VINA RESULT:      -8.5      5.102     10.660
REMARK  Name = 
REMARK  7 active torsions:
REMARK  status: ('A' for Active; 'I' for Inactive)
REMARK    1  A    between atoms: C_3  and  C_4
REMARK    2  A    between atoms: C_7  and  O_8
REMARK    3  A    between atoms: C_15  and  O_16
REMARK    4  A    between atoms: O_16  and  C_17
REMARK    5  A    between atoms: C_18  and  N_19
REMARK    6  A    between atoms: C_23  and  N_24
REMARK    7  A    between atoms: C_28  and  C_29
REMARK                            x       y       z     vdW  Elec       q    Type
REMARK                         _______ _______ _______ _____ _____    ______ ____
ROOT
ATOM      1  O   UNL     1       2.234   6.480  20.060  0.00  0.00    +0.000 OA
ATOM      2  C   UNL     1       2.187   7.438  19.304  0.00  0.00    +0.000 A 
ATOM      3  C   UNL     1       2.883   7.461  17.991  0.00  0.00    +0.000 A 
ATOM      4  C   UNL     1       2.762   8.567  17.243  0.00  0.00    +0.000 A 
ATOM      5  O   UNL     1       2.057   9.702  17.573  0.00  0.00    +0.000 OA
ATOM      6  C   UNL     1       1.419   9.726  18.790  0.00  0.00    +0.000 A 
ATOM      7  C   UNL     1       0.724  10.887  19.132  0.00  0.00    +0.000 A 
ATOM      8  C   UNL     1       0.042  10.973  20.356  0.00  0.00    +0.000 A 
ATOM      9  C   UNL     1       0.096   9.908  21.257  0.00  0.00    +0.000 A 
ATOM     10  C   UNL     1       0.767   8.734  20.898  0.00  0.00    +0.000 A 
ATOM     11  C   UNL     1       1.436   8.652  19.671  0.00  0.00    +0.000 A 
ENDROOT
BRANCH   3  12
ATOM     12  C   UNL     1       3.681   6.319  17.524  0.00  0.00    +0.000 A 
ATOM     13  C   UNL     1       3.194   5.012  17.659  0.00  0.00    +0.000 A 
ATOM     14  C   UNL     1       3.952   3.925  17.212  0.00  0.00    +0.000 A 
ATOM     15  C   UNL     1       5.197   4.150  16.634  0.00  0.00    +0.000 A 
ATOM     16  C   UNL     1       5.694   5.441  16.493  0.00  0.00    +0.000 A 
ATOM     17  C   UNL     1       4.936   6.527  16.938  0.00  0.00    +0.000 A 
BRANCH  15  18
ATOM     18  O   UNL     1       5.971   3.121  16.188  0.00  0.00    +0.000 OA
ATOM     19  H   UNL     1       5.495   2.287  16.335  0.00  0.00    +0.000 HD
ENDBRANCH  15  18
ENDBRANCH   3  12
BRANCH   8  20
ATOM     20  O   UNL     1      -0.650  12.144  20.543  0.00  0.00    +0.000 OA
BRANCH  20  21
ATOM     21  C   UNL     1      -2.014  12.190  20.696  0.00  0.00    +0.000 A 
ATOM     22  C   UNL     1      -2.489  12.538  21.984  0.00  0.00    +0.000 A 
ATOM     23  C   UNL     1      -3.843  12.770  22.267  0.00  0.00    +0.000 A 
ATOM     24  C   UNL     1      -4.760  12.668  21.228  0.00  0.00    +0.000 A 
ATOM     25  C   UNL     1      -4.324  12.320  19.943  0.00  0.00    +0.000 A 
ATOM     26  C   UNL     1      -2.955  12.093  19.647  0.00  0.00    +0.000 A 
BRANCH  26  27
ATOM     27  C   UNL     1      -2.671  11.745  18.200  0.00  0.00    +0.000 C 
ATOM     28  F   UNL     1      -3.693  11.874  17.322  0.00  0.00    +0.000 F 
ATOM     29  F   UNL     1      -1.646  12.503  17.717  0.00  0.00    +0.000 F 
ATOM     30  F   UNL     1      -2.257  10.452  18.072  0.00  0.00    +0.000 F 
ENDBRANCH  26  27
BRANCH  22  31
ATOM     31  N   UNL     1      -1.563  12.679  23.098  0.00  0.00    +0.000 N 
ATOM     32  O   UNL     1      -1.184  11.647  23.661  0.00  0.00    +0.000 OA
ATOM     33  O   UNL     1      -1.177  13.829  23.353  0.00  0.00    +0.000 OA
ENDBRANCH  22  31
BRANCH  24  34
ATOM     34  N   UNL     1      -6.184  12.945  21.462  0.00  0.00    +0.000 N 
ATOM     35  O   UNL     1      -6.694  13.879  20.829  0.00  0.00    +0.000 OA
ATOM     36  O   UNL     1      -6.785  12.220  22.265  0.00  0.00    +0.000 OA
ENDBRANCH  24  34
ENDBRANCH  20  21
ENDBRANCH   8  20
TORSDOF 7
ENDMDL
MODEL 9
REMARK VINA RESULT:      -8.5      2.262      2.981
REMARK  Name = 
REMARK  7 active torsions:
REMARK  status: ('A' for Active; 'I' for Inactive)
REMARK    1  A    between atoms: C_3  and  C_4
REMARK    2  A    between atoms: C_7  and  O_8
REMARK    3  A    between atoms: C_15  and  O_16
REMARK    4  A    between atoms: O_16  and  C_17
REMARK    5  A    between atoms: C_18  and  N_19
REMARK    6  A    between atoms: C_23  and  N_24
REMARK    7  A    between atoms: C_28  and  C_29
REMARK                            x       y       z     vdW  Elec       q    Type
REMARK                         _______ _______ _______ _____ _____    ______ ____
ROOT
ATOM      1  O   UNL     1      -0.210   8.615  21.186  0.00  0.00    +0.000 OA
ATOM      2  C   UNL     1       0.475   8.823  20.196  0.00  0.00    +0.000 A 
ATOM      3  C   UNL     1       0.220   9.950  19.263  0.00  0.00    +0.000 A 
ATOM      4  C   UNL     1       1.038  10.081  18.209  0.00  0.00    +0.000 A 
ATOM      5  O   UNL     1       2.100   9.264  17.893  0.00  0.00    +0.000 OA
ATOM      6  C   UNL     1       2.352   8.197  18.722  0.00  0.00    +0.000 A 
ATOM      7  C   UNL     1       3.416   7.357  18.387  0.00  0.00    +0.000 A 
ATOM      8  C   UNL     1       3.735   6.257  19.197  0.00  0.00    +0.000 A 
ATOM      9  C   UNL     1       2.956   5.972  20.320  0.00  0.00    +0.000 A 
ATOM     10  C   UNL     1       1.910   6.834  20.670  0.00  0.00    +0.000 A 
ATOM     11  C   UNL     1       1.606   7.937  19.863  0.00  0.00    +0.000 A 
ENDROOT
BRANCH   3  12
ATOM     12  C   UNL     1      -0.890  10.888  19.476  0.00  0.00    +0.000 A 
ATOM     13  C   UNL     1      -1.991  10.893  18.607  0.00  0.00    +0.000 A 
ATOM     14  C   UNL     1      -3.050  11.783  18.812  0.00  0.00    +0.000 A 
ATOM     15  C   UNL     1      -3.002  12.669  19.883  0.00  0.00    +0.000 A 
ATOM     16  C   UNL     1      -1.917  12.677  20.753  0.00  0.00    +0.000 A 
ATOM     17  C   UNL     1      -0.860  11.786  20.551  0.00  0.00    +0.000 A 
BRANCH  15  18
ATOM     18  O   UNL     1      -4.009  13.557  20.118  0.00  0.00    +0.000 OA
ATOM     19  H   UNL     1      -4.575  13.600  19.330  0.00  0.00    +0.000 HD
ENDBRANCH  15  18
ENDBRANCH   3  12
BRANCH   8  20
ATOM     20  O   UNL     1       4.837   5.548  18.788  0.00  0.00    +0.000 OA
BRANCH  20  21
ATOM     21  C   UNL     1       5.085   5.245  17.472  0.00  0.00    +0.000 A 
ATOM     22  C   UNL     1       6.266   5.792  16.914  0.00  0.00    +0.000 A 
ATOM     23  C   UNL     1       6.735   5.462  15.633  0.00  0.00    +0.000 A 
ATOM     24  C   UNL     1       6.013   4.541  14.884  0.00  0.00    +0.000 A 
ATOM     25  C   UNL     1       4.838   3.985  15.405  0.00  0.00    +0.000 A 
ATOM     26  C   UNL     1       4.361   4.307  16.702  0.00  0.00    +0.000 A 
BRANCH  26  27
ATOM     27  C   UNL     1       3.085   3.595  17.100  0.00  0.00    +0.000 C 
ATOM     28  F   UNL     1       2.614   2.651  16.253  0.00  0.00    +0.000 F 
ATOM     29  F   UNL     1       3.233   2.989  18.313  0.00  0.00    +0.000 F 
ATOM     30  F   UNL     1       2.054   4.474  17.259  0.00  0.00    +0.000 F 
ENDBRANCH  26  27
BRANCH  22  31
ATOM     31  N   UNL     1       7.067   6.742  17.670  0.00  0.00    +0.000 N 
ATOM     32  O   UNL     1       7.783   6.296  18.573  0.00  0.00    +0.000 OA
ATOM     33  O   UNL     1       7.014   7.924  17.303  0.00  0.00    +0.000 OA
ENDBRANCH  22  31
BRANCH  24  34
ATOM     34  N   UNL     1       6.487   4.127  13.556  0.00  0.00    +0.000 N 
ATOM     35  O   UNL     1       7.435   4.755  13.068  0.00  0.00    +0.000 OA
ATOM     36  O   UNL     1       5.919   3.169  13.018  0.00  0.00    +0.000 OA
ENDBRANCH  24  34
ENDBRANCH  20  21
ENDBRANCH   8  20
TORSDOF 7
ENDMDL
