MODEL 1
REMARK VINA RESULT:      -7.8      0.000      0.000
REMARK  Name = 
REMARK  5 active torsions:
REMARK  status: ('A' for Active; 'I' for Inactive)
REMARK    1  A    between atoms: C_1  and  C_2
REMARK    2  A    between atoms: C_5  and  N_6
REMARK    3  A    between atoms: C_7  and  C_9
REMARK    4  A    between atoms: C_14  and  C_16
REMARK    5  A    between atoms: C_23  and  C_24
REMARK                            x       y       z     vdW  Elec       q    Type
REMARK                         _______ _______ _______ _____ _____    ______ ____
ROOT
ATOM      1  C   UNL     1       3.571   4.896  19.677  0.00  0.00    +0.000 C 
ATOM      2  C   UNL     1       3.208   3.595  20.420  0.00  0.00    +0.000 C 
ATOM      3  S   UNL     1       3.693   2.200  19.375  0.00  0.00    +0.000 S 
ATOM      4  C   UNL     1       4.617   3.228  18.234  0.00  0.00    +0.000 C 
ATOM      5  N   UNL     1       4.063   4.561  18.332  0.00  0.00    +0.000 N 
ATOM      6  C   UNL     1       4.387   5.594  17.449  0.00  0.00    +0.000 C 
ATOM      7  O   UNL     1       3.942   6.732  17.579  0.00  0.00    +0.000 OA
ENDROOT
BRANCH   6   8
ATOM      8  C   UNL     1       5.337   5.348  16.325  0.00  0.00    +0.000 A 
ATOM      9  C   UNL     1       6.650   5.783  16.417  0.00  0.00    +0.000 A 
ATOM     10  N   UNL     1       7.574   5.487  15.467  0.00  0.00    +0.000 NA
ATOM     11  C   UNL     1       7.134   4.719  14.444  0.00  0.00    +0.000 A 
ATOM     12  C   UNL     1       5.824   4.277  14.357  0.00  0.00    +0.000 A 
ATOM     13  N   UNL     1       4.900   4.576  15.291  0.00  0.00    +0.000 NA
ENDBRANCH   6   8
BRANCH   1  15
ATOM     14  N   UNL     1       2.622   7.127  20.027  0.00  0.00    +0.000 N 
ATOM     15  C   UNL     1       2.324   5.805  19.707  0.00  0.00    +0.000 C 
ATOM     16  O   UNL     1       1.207   5.359  19.449  0.00  0.00    +0.000 OA
ATOM     17  H   UNL     1       3.585   7.420  19.910  0.00  0.00    +0.000 HD
BRANCH  14  22
ATOM     18  C   UNL     1      -1.031  11.461  20.976  0.00  0.00    +0.000 C 
ATOM     19  C   UNL     1      -0.114  10.291  20.742  0.00  0.00    +0.000 A 
ATOM     20  C   UNL     1       0.399  10.080  19.457  0.00  0.00    +0.000 A 
ATOM     21  C   UNL     1       1.285   9.031  19.200  0.00  0.00    +0.000 A 
ATOM     22  C   UNL     1       1.687   8.174  20.220  0.00  0.00    +0.000 A 
ATOM     23  C   UNL     1       1.143   8.353  21.502  0.00  0.00    +0.000 A 
ATOM     24  C   UNL     1       0.247   9.408  21.776  0.00  0.00    +0.000 A 
ATOM     25  C   UNL     1      -0.293   9.588  23.170  0.00  0.00    +0.000 C 
ENDBRANCH  14  22
ENDBRANCH   1  15
TORSDOF 3
ENDMDL
MODEL 2
REMARK VINA RESULT:      -7.3      0.332      1.422
REMARK  Name = 
REMARK  5 active torsions:
REMARK  status: ('A' for Active; 'I' for Inactive)
REMARK    1  A    between atoms: C_1  and  C_2
REMARK    2  A    between atoms: C_5  and  N_6
REMARK    3  A    between atoms: C_7  and  C_9
REMARK    4  A    between atoms: C_14  and  C_16
REMARK    5  A    between atoms: C_23  and  C_24
REMARK                            x       y       z     vdW  Elec       q    Type
REMARK                         _______ _______ _______ _____ _____    ______ ____
ROOT
ATOM      1  C   UNL     1       3.472   4.817  19.765  0.00  0.00    +0.000 C 
ATOM      2  C   UNL     1       3.061   3.490  20.433  0.00  0.00    +0.000 C 
ATOM      3  S   UNL     1       3.507   2.138  19.316  0.00  0.00    +0.000 S 
ATOM      4  C   UNL     1       4.472   3.196  18.238  0.00  0.00    +0.000 C 
ATOM      5  N   UNL     1       3.961   4.539  18.406  0.00  0.00    +0.000 N 
ATOM      6  C   UNL     1       4.326   5.607  17.583  0.00  0.00    +0.000 C 
ATOM      7  O   UNL     1       3.917   6.751  17.773  0.00  0.00    +0.000 OA
ENDROOT
BRANCH   6   8
ATOM      8  C   UNL     1       5.275   5.392  16.452  0.00  0.00    +0.000 A 
ATOM      9  C   UNL     1       6.578   5.857  16.540  0.00  0.00    +0.000 A 
ATOM     10  N   UNL     1       7.503   5.589  15.584  0.00  0.00    +0.000 NA
ATOM     11  C   UNL     1       7.076   4.819  14.557  0.00  0.00    +0.000 A 
ATOM     12  C   UNL     1       5.776   4.347  14.474  0.00  0.00    +0.000 A 
ATOM     13  N   UNL     1       4.851   4.618  15.415  0.00  0.00    +0.000 NA
ENDBRANCH   6   8
BRANCH   1  15
ATOM     14  N   UNL     1       2.594   7.056  20.229  0.00  0.00    +0.000 N 
ATOM     15  C   UNL     1       2.255   5.763  19.838  0.00  0.00    +0.000 C 
ATOM     16  O   UNL     1       1.125   5.370  19.553  0.00  0.00    +0.000 OA
ATOM     17  H   UNL     1       3.568   7.323  20.131  0.00  0.00    +0.000 HD
BRANCH  14  22
ATOM     18  C   UNL     1      -1.204  11.286  21.069  0.00  0.00    +0.000 C 
ATOM     19  C   UNL     1      -0.173  10.216  20.833  0.00  0.00    +0.000 A 
ATOM     20  C   UNL     1       0.262   9.444  21.915  0.00  0.00    +0.000 A 
ATOM     21  C   UNL     1       1.187   8.413  21.738  0.00  0.00    +0.000 A 
ATOM     22  C   UNL     1       1.694   8.122  20.474  0.00  0.00    +0.000 A 
ATOM     23  C   UNL     1       1.296   8.921  19.390  0.00  0.00    +0.000 A 
ATOM     24  C   UNL     1       0.361   9.965  19.555  0.00  0.00    +0.000 A 
ATOM     25  C   UNL     1      -0.066  10.781  18.364  0.00  0.00    +0.000 C 
ENDBRANCH  14  22
ENDBRANCH   1  15
TORSDOF 3
ENDMDL
MODEL 3
REMARK VINA RESULT:      -7.2      1.199      1.525
REMARK  Name = 
REMARK  5 active torsions:
REMARK  status: ('A' for Active; 'I' for Inactive)
REMARK    1  A    between atoms: C_1  and  C_2
REMARK    2  A    between atoms: C_5  and  N_6
REMARK    3  A    between atoms: C_7  and  C_9
REMARK    4  A    between atoms: C_14  and  C_16
REMARK    5  A    between atoms: C_23  and  C_24
REMARK                            x       y       z     vdW  Elec       q    Type
REMARK                         _______ _______ _______ _____ _____    ______ ____
ROOT
ATOM      1  C   UNL     1       2.890   4.892  20.797  0.00  0.00    +0.000 C 
ATOM      2  C   UNL     1       2.319   3.726  21.627  0.00  0.00    +0.000 C 
ATOM      3  S   UNL     1       2.785   2.177  20.815  0.00  0.00    +0.000 S 
ATOM      4  C   UNL     1       3.931   2.979  19.693  0.00  0.00    +0.000 C 
ATOM      5  N   UNL     1       3.500   4.355  19.570  0.00  0.00    +0.000 N 
ATOM      6  C   UNL     1       4.023   5.241  18.626  0.00  0.00    +0.000 C 
ATOM      7  O   UNL     1       3.678   6.420  18.571  0.00  0.00    +0.000 OA
ENDROOT
BRANCH   6   8
ATOM      8  C   UNL     1       5.069   4.782  17.666  0.00  0.00    +0.000 A 
ATOM      9  C   UNL     1       4.711   4.371  16.392  0.00  0.00    +0.000 A 
ATOM     10  N   UNL     1       5.637   4.049  15.453  0.00  0.00    +0.000 NA
ATOM     11  C   UNL     1       6.928   4.181  15.836  0.00  0.00    +0.000 A 
ATOM     12  C   UNL     1       7.285   4.601  17.108  0.00  0.00    +0.000 A 
ATOM     13  N   UNL     1       6.370   4.912  18.046  0.00  0.00    +0.000 NA
ENDBRANCH   6   8
BRANCH   1  15
ATOM     14  N   UNL     1       2.131   7.220  20.758  0.00  0.00    +0.000 N 
ATOM     15  C   UNL     1       1.742   5.897  20.566  0.00  0.00    +0.000 C 
ATOM     16  O   UNL     1       0.621   5.516  20.232  0.00  0.00    +0.000 OA
ATOM     17  H   UNL     1       3.125   7.414  20.723  0.00  0.00    +0.000 HD
BRANCH  14  22
ATOM     18  C   UNL     1      -1.165  11.928  20.734  0.00  0.00    +0.000 C 
ATOM     19  C   UNL     1      -0.346  10.666  20.753  0.00  0.00    +0.000 A 
ATOM     20  C   UNL     1       0.293  10.255  19.578  0.00  0.00    +0.000 A 
ATOM     21  C   UNL     1       1.095   9.112  19.556  0.00  0.00    +0.000 A 
ATOM     22  C   UNL     1       1.287   8.357  20.710  0.00  0.00    +0.000 A 
ATOM     23  C   UNL     1       0.615   8.738  21.882  0.00  0.00    +0.000 A 
ATOM     24  C   UNL     1      -0.198   9.890  21.918  0.00  0.00    +0.000 A 
ATOM     25  C   UNL     1      -0.880  10.286  23.201  0.00  0.00    +0.000 C 
ENDBRANCH  14  22
ENDBRANCH   1  15
TORSDOF 3
ENDMDL
MODEL 4
REMARK VINA RESULT:      -7.1      0.614      1.010
REMARK  Name = 
REMARK  5 active torsions:
REMARK  status: ('A' for Active; 'I' for Inactive)
REMARK    1  A    between atoms: C_1  and  C_2
REMARK    2  A    between atoms: C_5  and  N_6
REMARK    3  A    between atoms: C_7  and  C_9
REMARK    4  A    between atoms: C_14  and  C_16
REMARK    5  A    between atoms: C_23  and  C_24
REMARK                            x       y       z     vdW  Elec       q    Type
REMARK                         _______ _______ _______ _____ _____    ______ ____
ROOT
ATOM      1  C   UNL     1       3.445   4.685  19.820  0.00  0.00    +0.000 C 
ATOM      2  C   UNL     1       3.010   3.424  20.591  0.00  0.00    +0.000 C 
ATOM      3  S   UNL     1       3.447   1.978  19.594  0.00  0.00    +0.000 S 
ATOM      4  C   UNL     1       4.436   2.931  18.441  0.00  0.00    +0.000 C 
ATOM      5  N   UNL     1       3.942   4.290  18.492  0.00  0.00    +0.000 N 
ATOM      6  C   UNL     1       4.328   5.281  17.587  0.00  0.00    +0.000 C 
ATOM      7  O   UNL     1       3.934   6.442  17.678  0.00  0.00    +0.000 OA
ENDROOT
BRANCH   6   8
ATOM      8  C   UNL     1       5.283   4.960  16.487  0.00  0.00    +0.000 A 
ATOM      9  C   UNL     1       4.811   4.485  15.273  0.00  0.00    +0.000 A 
ATOM     10  N   UNL     1       5.632   4.282  14.211  0.00  0.00    +0.000 NA
ATOM     11  C   UNL     1       6.933   4.601  14.410  0.00  0.00    +0.000 A 
ATOM     12  C   UNL     1       7.402   5.084  15.620  0.00  0.00    +0.000 A 
ATOM     13  N   UNL     1       6.593   5.277  16.680  0.00  0.00    +0.000 NA
ENDBRANCH   6   8
BRANCH   1  15
ATOM     14  N   UNL     1       2.594   6.965  20.095  0.00  0.00    +0.000 N 
ATOM     15  C   UNL     1       2.241   5.651  19.802  0.00  0.00    +0.000 C 
ATOM     16  O   UNL     1       1.109   5.250  19.535  0.00  0.00    +0.000 OA
ATOM     17  H   UNL     1       3.572   7.211  19.988  0.00  0.00    +0.000 HD
BRANCH  14  22
ATOM     18  C   UNL     1      -0.871  11.484  20.868  0.00  0.00    +0.000 C 
ATOM     19  C   UNL     1      -0.006  10.269  20.679  0.00  0.00    +0.000 A 
ATOM     20  C   UNL     1       0.535  10.012  19.414  0.00  0.00    +0.000 A 
ATOM     21  C   UNL     1       1.376   8.918  19.199  0.00  0.00    +0.000 A 
ATOM     22  C   UNL     1       1.706   8.059  20.244  0.00  0.00    +0.000 A 
ATOM     23  C   UNL     1       1.133   8.285  21.506  0.00  0.00    +0.000 A 
ATOM     24  C   UNL     1       0.282   9.386  21.737  0.00  0.00    +0.000 A 
ATOM     25  C   UNL     1      -0.291   9.614  23.110  0.00  0.00    +0.000 C 
ENDBRANCH  14  22
ENDBRANCH   1  15
TORSDOF 3
ENDMDL
MODEL 5
REMARK VINA RESULT:      -6.9      1.215      2.086
REMARK  Name = 
REMARK  5 active torsions:
REMARK  status: ('A' for Active; 'I' for Inactive)
REMARK    1  A    between atoms: C_1  and  C_2
REMARK    2  A    between atoms: C_5  and  N_6
REMARK    3  A    between atoms: C_7  and  C_9
REMARK    4  A    between atoms: C_14  and  C_16
REMARK    5  A    between atoms: C_23  and  C_24
REMARK                            x       y       z     vdW  Elec       q    Type
REMARK                         _______ _______ _______ _____ _____    ______ ____
ROOT
ATOM      1  C   UNL     1       2.785   4.797  20.827  0.00  0.00    +0.000 C 
ATOM      2  C   UNL     1       2.162   3.593  21.560  0.00  0.00    +0.000 C 
ATOM      3  S   UNL     1       2.595   2.094  20.644  0.00  0.00    +0.000 S 
ATOM      4  C   UNL     1       3.786   2.937  19.602  0.00  0.00    +0.000 C 
ATOM      5  N   UNL     1       3.401   4.332  19.574  0.00  0.00    +0.000 N 
ATOM      6  C   UNL     1       3.969   5.267  18.707  0.00  0.00    +0.000 C 
ATOM      7  O   UNL     1       3.662   6.457  18.733  0.00  0.00    +0.000 OA
ENDROOT
BRANCH   6   8
ATOM      8  C   UNL     1       5.018   4.845  17.733  0.00  0.00    +0.000 A 
ATOM      9  C   UNL     1       4.668   4.523  16.431  0.00  0.00    +0.000 A 
ATOM     10  N   UNL     1       5.599   4.239  15.485  0.00  0.00    +0.000 NA
ATOM     11  C   UNL     1       6.887   4.318  15.892  0.00  0.00    +0.000 A 
ATOM     12  C   UNL     1       7.236   4.649  17.191  0.00  0.00    +0.000 A 
ATOM     13  N   UNL     1       6.316   4.921  18.136  0.00  0.00    +0.000 NA
ENDBRANCH   6   8
BRANCH   1  15
ATOM     14  N   UNL     1       2.098   7.144  20.956  0.00  0.00    +0.000 N 
ATOM     15  C   UNL     1       1.673   5.854  20.652  0.00  0.00    +0.000 C 
ATOM     16  O   UNL     1       0.550   5.536  20.266  0.00  0.00    +0.000 OA
ATOM     17  H   UNL     1       3.098   7.309  20.957  0.00  0.00    +0.000 HD
BRANCH  14  22
ATOM     18  C   UNL     1      -1.328  11.759  20.918  0.00  0.00    +0.000 C 
ATOM     19  C   UNL     1      -0.392  10.581  20.906  0.00  0.00    +0.000 A 
ATOM     20  C   UNL     1      -0.027   9.993  22.122  0.00  0.00    +0.000 A 
ATOM     21  C   UNL     1       0.808   8.873  22.158  0.00  0.00    +0.000 A 
ATOM     22  C   UNL     1       1.291   8.309  20.981  0.00  0.00    +0.000 A 
ATOM     23  C   UNL     1       0.965   8.920  19.759  0.00  0.00    +0.000 A 
ATOM     24  C   UNL     1       0.123  10.050  19.708  0.00  0.00    +0.000 A 
ATOM     25  C   UNL     1      -0.231  10.661  18.378  0.00  0.00    +0.000 C 
ENDBRANCH  14  22
ENDBRANCH   1  15
TORSDOF 3
ENDMDL
MODEL 6
REMARK VINA RESULT:      -6.7      4.537      8.773
REMARK  Name = 
REMARK  5 active torsions:
REMARK  status: ('A' for Active; 'I' for Inactive)
REMARK    1  A    between atoms: C_1  and  C_2
REMARK    2  A    between atoms: C_5  and  N_6
REMARK    3  A    between atoms: C_7  and  C_9
REMARK    4  A    between atoms: C_14  and  C_16
REMARK    5  A    between atoms: C_23  and  C_24
REMARK                            x       y       z     vdW  Elec       q    Type
REMARK                         _______ _______ _______ _____ _____    ______ ____
ROOT
ATOM      1  C   UNL     1       0.733  11.264  19.276  0.00  0.00    +0.000 C 
ATOM      2  C   UNL     1       1.790  12.385  19.297  0.00  0.00    +0.000 C 
ATOM      3  S   UNL     1       1.051  13.866  18.566  0.00  0.00    +0.000 S 
ATOM      4  C   UNL     1      -0.605  13.179  18.569  0.00  0.00    +0.000 C 
ATOM      5  N   UNL     1      -0.459  11.740  18.557  0.00  0.00    +0.000 N 
ATOM      6  C   UNL     1      -1.526  10.862  18.351  0.00  0.00    +0.000 C 
ATOM      7  O   UNL     1      -1.388   9.641  18.394  0.00  0.00    +0.000 OA
ENDROOT
BRANCH   6   8
ATOM      8  C   UNL     1      -2.899  11.395  18.113  0.00  0.00    +0.000 A 
ATOM      9  C   UNL     1      -3.471  11.304  16.854  0.00  0.00    +0.000 A 
ATOM     10  N   UNL     1      -4.755  11.676  16.618  0.00  0.00    +0.000 NA
ATOM     11  C   UNL     1      -5.443  12.116  17.697  0.00  0.00    +0.000 A 
ATOM     12  C   UNL     1      -4.873  12.198  18.957  0.00  0.00    +0.000 A 
ATOM     13  N   UNL     1      -3.596  11.840  19.194  0.00  0.00    +0.000 NA
ENDBRANCH   6   8
BRANCH   1  15
ATOM     14  N   UNL     1       1.428   8.931  19.544  0.00  0.00    +0.000 N 
ATOM     15  C   UNL     1       1.403  10.013  18.669  0.00  0.00    +0.000 C 
ATOM     16  O   UNL     1       1.838  10.020  17.519  0.00  0.00    +0.000 OA
ATOM     17  H   UNL     1       0.777   8.955  20.321  0.00  0.00    +0.000 HD
BRANCH  14  22
ATOM     18  C   UNL     1       3.749   3.755  18.618  0.00  0.00    +0.000 C 
ATOM     19  C   UNL     1       3.171   5.114  18.906  0.00  0.00    +0.000 A 
ATOM     20  C   UNL     1       3.392   6.151  17.993  0.00  0.00    +0.000 A 
ATOM     21  C   UNL     1       2.842   7.420  18.198  0.00  0.00    +0.000 A 
ATOM     22  C   UNL     1       2.052   7.680  19.314  0.00  0.00    +0.000 A 
ATOM     23  C   UNL     1       1.862   6.656  20.256  0.00  0.00    +0.000 A 
ATOM     24  C   UNL     1       2.411   5.372  20.062  0.00  0.00    +0.000 A 
ATOM     25  C   UNL     1       2.162   4.290  21.079  0.00  0.00    +0.000 C 
ENDBRANCH  14  22
ENDBRANCH   1  15
TORSDOF 3
ENDMDL
MODEL 7
REMARK VINA RESULT:      -6.5      4.534      8.875
REMARK  Name = 
REMARK  5 active torsions:
REMARK  status: ('A' for Active; 'I' for Inactive)
REMARK    1  A    between atoms: C_1  and  C_2
REMARK    2  A    between atoms: C_5  and  N_6
REMARK    3  A    between atoms: C_7  and  C_9
REMARK    4  A    between atoms: C_14  and  C_16
REMARK    5  A    between atoms: C_23  and  C_24
REMARK                            x       y       z     vdW  Elec       q    Type
REMARK                         _______ _______ _______ _____ _____    ______ ____
ROOT
ATOM      1  C   UNL     1       0.769  11.207  19.230  0.00  0.00    +0.000 C 
ATOM      2  C   UNL     1       1.787  12.355  19.374  0.00  0.00    +0.000 C 
ATOM      3  S   UNL     1       1.036  13.859  18.705  0.00  0.00    +0.000 S 
ATOM      4  C   UNL     1      -0.595  13.126  18.583  0.00  0.00    +0.000 C 
ATOM      5  N   UNL     1      -0.403  11.695  18.485  0.00  0.00    +0.000 N 
ATOM      6  C   UNL     1      -1.430  10.802  18.172  0.00  0.00    +0.000 C 
ATOM      7  O   UNL     1      -1.256   9.586  18.142  0.00  0.00    +0.000 OA
ENDROOT
BRANCH   6   8
ATOM      8  C   UNL     1      -2.807  11.310  17.903  0.00  0.00    +0.000 A 
ATOM      9  C   UNL     1      -3.335  11.241  16.623  0.00  0.00    +0.000 A 
ATOM     10  N   UNL     1      -4.619  11.590  16.355  0.00  0.00    +0.000 NA
ATOM     11  C   UNL     1      -5.353  11.984  17.422  0.00  0.00    +0.000 A 
ATOM     12  C   UNL     1      -4.827  12.044  18.702  0.00  0.00    +0.000 A 
ATOM     13  N   UNL     1      -3.550  11.709  18.972  0.00  0.00    +0.000 NA
ENDBRANCH   6   8
BRANCH   1  15
ATOM     14  N   UNL     1       1.561   8.896  19.397  0.00  0.00    +0.000 N 
ATOM     15  C   UNL     1       1.506  10.019  18.576  0.00  0.00    +0.000 C 
ATOM     16  O   UNL     1       1.964  10.103  17.438  0.00  0.00    +0.000 OA
ATOM     17  H   UNL     1       0.894   8.852  20.159  0.00  0.00    +0.000 HD
BRANCH  14  22
ATOM     18  C   UNL     1       4.532   4.105  18.280  0.00  0.00    +0.000 C 
ATOM     19  C   UNL     1       3.730   5.353  18.525  0.00  0.00    +0.000 A 
ATOM     20  C   UNL     1       2.845   5.389  19.607  0.00  0.00    +0.000 A 
ATOM     21  C   UNL     1       2.108   6.540  19.897  0.00  0.00    +0.000 A 
ATOM     22  C   UNL     1       2.244   7.686  19.118  0.00  0.00    +0.000 A 
ATOM     23  C   UNL     1       3.098   7.644  18.004  0.00  0.00    +0.000 A 
ATOM     24  C   UNL     1       3.848   6.489  17.700  0.00  0.00    +0.000 A 
ATOM     25  C   UNL     1       4.776   6.489  16.515  0.00  0.00    +0.000 C 
ENDBRANCH  14  22
ENDBRANCH   1  15
TORSDOF 3
ENDMDL
MODEL 8
REMARK VINA RESULT:      -6.5      4.504      8.741
REMARK  Name = 
REMARK  5 active torsions:
REMARK  status: ('A' for Active; 'I' for Inactive)
REMARK    1  A    between atoms: C_1  and  C_2
REMARK    2  A    between atoms: C_5  and  N_6
REMARK    3  A    between atoms: C_7  and  C_9
REMARK    4  A    between atoms: C_14  and  C_16
REMARK    5  A    between atoms: C_23  and  C_24
REMARK                            x       y       z     vdW  Elec       q    Type
REMARK                         _______ _______ _______ _____ _____    ______ ____
ROOT
ATOM      1  C   UNL     1       0.824  10.842  19.165  0.00  0.00    +0.000 C 
ATOM      2  C   UNL     1       1.774  11.960  19.635  0.00  0.00    +0.000 C 
ATOM      3  S   UNL     1       0.994  13.551  19.268  0.00  0.00    +0.000 S 
ATOM      4  C   UNL     1      -0.590  12.811  18.869  0.00  0.00    +0.000 C 
ATOM      5  N   UNL     1      -0.322  11.447  18.468  0.00  0.00    +0.000 N 
ATOM      6  C   UNL     1      -1.284  10.614  17.891  0.00  0.00    +0.000 C 
ATOM      7  O   UNL     1      -1.049   9.443  17.601  0.00  0.00    +0.000 OA
ENDROOT
BRANCH   6   8
ATOM      8  C   UNL     1      -2.665  11.124  17.644  0.00  0.00    +0.000 A 
ATOM      9  C   UNL     1      -3.188  11.119  16.361  0.00  0.00    +0.000 A 
ATOM     10  N   UNL     1      -4.475  11.471  16.107  0.00  0.00    +0.000 NA
ATOM     11  C   UNL     1      -5.215  11.800  17.192  0.00  0.00    +0.000 A 
ATOM     12  C   UNL     1      -4.693  11.795  18.475  0.00  0.00    +0.000 A 
ATOM     13  N   UNL     1      -3.414  11.457  18.731  0.00  0.00    +0.000 NA
ENDBRANCH   6   8
BRANCH   1  15
ATOM     14  N   UNL     1       1.701   8.576  18.857  0.00  0.00    +0.000 N 
ATOM     15  C   UNL     1       1.657   9.858  18.316  0.00  0.00    +0.000 C 
ATOM     16  O   UNL     1       2.192  10.218  17.269  0.00  0.00    +0.000 OA
ATOM     17  H   UNL     1       0.982   8.339  19.532  0.00  0.00    +0.000 HD
BRANCH  14  22
ATOM     18  C   UNL     1       4.582   4.094  16.704  0.00  0.00    +0.000 C 
ATOM     19  C   UNL     1       3.829   5.243  17.316  0.00  0.00    +0.000 A 
ATOM     20  C   UNL     1       4.409   6.516  17.305  0.00  0.00    +0.000 A 
ATOM     21  C   UNL     1       3.731   7.621  17.826  0.00  0.00    +0.000 A 
ATOM     22  C   UNL     1       2.453   7.483  18.362  0.00  0.00    +0.000 A 
ATOM     23  C   UNL     1       1.883   6.201  18.417  0.00  0.00    +0.000 A 
ATOM     24  C   UNL     1       2.556   5.077  17.894  0.00  0.00    +0.000 A 
ATOM     25  C   UNL     1       1.900   3.723  17.942  0.00  0.00    +0.000 C 
ENDBRANCH  14  22
ENDBRANCH   1  15
TORSDOF 3
ENDMDL
MODEL 9
REMARK VINA RESULT:      -6.5      1.294      1.923
REMARK  Name = 
REMARK  5 active torsions:
REMARK  status: ('A' for Active; 'I' for Inactive)
REMARK    1  A    between atoms: C_1  and  C_2
REMARK    2  A    between atoms: C_5  and  N_6
REMARK    3  A    between atoms: C_7  and  C_9
REMARK    4  A    between atoms: C_14  and  C_16
REMARK    5  A    between atoms: C_23  and  C_24
REMARK                            x       y       z     vdW  Elec       q    Type
REMARK                         _______ _______ _______ _____ _____    ______ ____
ROOT
ATOM      1  C   UNL     1       3.255   3.719  19.787  0.00  0.00    +0.000 C 
ATOM      2  C   UNL     1       2.174   2.627  19.671  0.00  0.00    +0.000 C 
ATOM      3  S   UNL     1       2.130   2.063  17.952  0.00  0.00    +0.000 S 
ATOM      4  C   UNL     1       3.641   2.922  17.512  0.00  0.00    +0.000 C 
ATOM      5  N   UNL     1       3.785   4.017  18.447  0.00  0.00    +0.000 N 
ATOM      6  C   UNL     1       4.732   5.032  18.300  0.00  0.00    +0.000 C 
ATOM      7  O   UNL     1       4.870   5.926  19.131  0.00  0.00    +0.000 OA
ENDROOT
BRANCH   6   8
ATOM      8  C   UNL     1       5.652   5.033  17.125  0.00  0.00    +0.000 A 
ATOM      9  C   UNL     1       6.962   4.602  17.267  0.00  0.00    +0.000 A 
ATOM     10  N   UNL     1       7.800   4.485  16.205  0.00  0.00    +0.000 NA
ATOM     11  C   UNL     1       7.263   4.790  15.001  0.00  0.00    +0.000 A 
ATOM     12  C   UNL     1       5.951   5.212  14.859  0.00  0.00    +0.000 A 
ATOM     13  N   UNL     1       5.119   5.341  15.910  0.00  0.00    +0.000 NA
ENDBRANCH   6   8
BRANCH   1  15
ATOM     14  N   UNL     1       2.233   5.941  19.649  0.00  0.00    +0.000 N 
ATOM     15  C   UNL     1       2.617   4.921  20.516  0.00  0.00    +0.000 C 
ATOM     16  O   UNL     1       2.472   4.920  21.737  0.00  0.00    +0.000 OA
ATOM     17  H   UNL     1       2.123   5.694  18.672  0.00  0.00    +0.000 HD
BRANCH  14  22
ATOM     18  C   UNL     1      -0.034  11.056  20.961  0.00  0.00    +0.000 C 
ATOM     19  C   UNL     1       0.608   9.740  20.617  0.00  0.00    +0.000 A 
ATOM     20  C   UNL     1       0.511   8.680  21.525  0.00  0.00    +0.000 A 
ATOM     21  C   UNL     1       1.058   7.428  21.231  0.00  0.00    +0.000 A 
ATOM     22  C   UNL     1       1.706   7.202  20.020  0.00  0.00    +0.000 A 
ATOM     23  C   UNL     1       1.846   8.273  19.122  0.00  0.00    +0.000 A 
ATOM     24  C   UNL     1       1.298   9.542  19.406  0.00  0.00    +0.000 A 
ATOM     25  C   UNL     1       1.440  10.659  18.406  0.00  0.00    +0.000 C 
ENDBRANCH  14  22
ENDBRANCH   1  15
TORSDOF 3
ENDMDL
