MODEL 1
REMARK VINA RESULT:      -7.3      0.000      0.000
REMARK  Name = 
REMARK  8 active torsions:
REMARK  status: ('A' for Active; 'I' for Inactive)
REMARK    1  A    between atoms: C_1  and  C_2
REMARK    2  A    between atoms: C_2  and  C_3
REMARK    3  A    between atoms: C_3  and  S_4
REMARK    4  A    between atoms: S_4  and  N_7
REMARK    5  A    between atoms: C_9  and  C_10
REMARK    6  A    between atoms: C_13  and  O_14
REMARK    7  A    between atoms: O_14  and  C_15
REMARK    8  A    between atoms: C_18  and  N_19
REMARK                            x       y       z     vdW  Elec       q    Type
REMARK                         _______ _______ _______ _____ _____    ______ ____
ROOT
ATOM      1  N   UNL     1       5.811   4.952  17.696  0.00  0.00    +0.000 NA
ATOM      2  C   UNL     1       4.656   5.289  16.861  0.00  0.00    +0.000 C 
ATOM      3  C   UNL     1       3.437   4.852  17.689  0.00  0.00    +0.000 C 
ATOM      4  C   UNL     1       3.971   3.680  18.552  0.00  0.00    +0.000 C 
ATOM      5  C   UNL     1       5.481   3.980  18.741  0.00  0.00    +0.000 C 
ENDROOT
BRANCH   3   6
ATOM      6  C   UNL     1       2.813   6.006  18.463  0.00  0.00    +0.000 A 
ATOM      7  C   UNL     1       2.693   7.259  17.840  0.00  0.00    +0.000 A 
ATOM      8  C   UNL     1       2.122   8.343  18.516  0.00  0.00    +0.000 A 
ATOM      9  C   UNL     1       1.645   8.194  19.816  0.00  0.00    +0.000 A 
ATOM     10  C   UNL     1       1.779   6.964  20.454  0.00  0.00    +0.000 A 
ATOM     11  C   UNL     1       2.363   5.884  19.784  0.00  0.00    +0.000 A 
BRANCH   9  12
ATOM     12  O   UNL     1       1.110   9.317  20.382  0.00  0.00    +0.000 OA
ATOM     13  C   UNL     1       0.116   9.086  21.375  0.00  0.00    +0.000 C 
ENDBRANCH   9  12
ENDBRANCH   3   6
BRANCH   1  14
ATOM     14  S   UNL     1       7.372   5.285  17.235  0.00  0.00    +0.000 S 
ATOM     15  O   UNL     1       7.344   5.725  15.857  0.00  0.00    +0.000 OA
ATOM     16  O   UNL     1       8.211   4.187  17.663  0.00  0.00    +0.000 OA
BRANCH  14  17
ATOM     17  C   UNL     1       7.739   6.697  18.268  0.00  0.00    +0.000 C 
BRANCH  17  19
ATOM     18  C   UNL     1       8.398   9.116  18.212  0.00  0.00    +0.000 C 
ATOM     19  C   UNL     1       7.631   8.011  17.502  0.00  0.00    +0.000 C 
ENDBRANCH  17  19
ENDBRANCH  14  17
ENDBRANCH   1  14
BRANCH   4  20
ATOM     20  N   UNL     1       3.769   2.371  17.907  0.00  0.00    +0.000 NA
ATOM     21  H   UNL     1       3.279   1.739  18.540  0.00  0.00    +0.000 HD
ATOM     22  H   UNL     1       4.673   1.943  17.702  0.00  0.00    +0.000 HD
ENDBRANCH   4  20
TORSDOF 6
ENDMDL
MODEL 2
REMARK VINA RESULT:      -7.1      1.739      2.573
REMARK  Name = 
REMARK  8 active torsions:
REMARK  status: ('A' for Active; 'I' for Inactive)
REMARK    1  A    between atoms: C_1  and  C_2
REMARK    2  A    between atoms: C_2  and  C_3
REMARK    3  A    between atoms: C_3  and  S_4
REMARK    4  A    between atoms: S_4  and  N_7
REMARK    5  A    between atoms: C_9  and  C_10
REMARK    6  A    between atoms: C_13  and  O_14
REMARK    7  A    between atoms: O_14  and  C_15
REMARK    8  A    between atoms: C_18  and  N_19
REMARK                            x       y       z     vdW  Elec       q    Type
REMARK                         _______ _______ _______ _____ _____    ______ ____
ROOT
ATOM      1  N   UNL     1       5.717   5.165  17.495  0.00  0.00    +0.000 NA
ATOM      2  C   UNL     1       4.326   4.884  17.130  0.00  0.00    +0.000 C 
ATOM      3  C   UNL     1       3.594   4.736  18.473  0.00  0.00    +0.000 C 
ATOM      4  C   UNL     1       4.689   4.222  19.442  0.00  0.00    +0.000 C 
ATOM      5  C   UNL     1       6.018   4.788  18.878  0.00  0.00    +0.000 C 
ENDROOT
BRANCH   3   6
ATOM      6  C   UNL     1       2.890   6.017  18.898  0.00  0.00    +0.000 A 
ATOM      7  C   UNL     1       2.830   7.094  17.997  0.00  0.00    +0.000 A 
ATOM      8  C   UNL     1       2.189   8.286  18.348  0.00  0.00    +0.000 A 
ATOM      9  C   UNL     1       1.583   8.423  19.595  0.00  0.00    +0.000 A 
ATOM     10  C   UNL     1       1.654   7.374  20.506  0.00  0.00    +0.000 A 
ATOM     11  C   UNL     1       2.308   6.186  20.161  0.00  0.00    +0.000 A 
BRANCH   9  12
ATOM     12  O   UNL     1       0.988   9.631  19.834  0.00  0.00    +0.000 OA
ATOM     13  C   UNL     1       0.882   9.997  21.206  0.00  0.00    +0.000 C 
ENDBRANCH   9  12
ENDBRANCH   3   6
BRANCH   1  14
ATOM     14  S   UNL     1       6.896   5.450  16.360  0.00  0.00    +0.000 S 
ATOM     15  O   UNL     1       7.895   4.411  16.487  0.00  0.00    +0.000 OA
ATOM     16  O   UNL     1       7.248   6.851  16.420  0.00  0.00    +0.000 OA
BRANCH  14  17
ATOM     17  C   UNL     1       5.987   5.173  14.846  0.00  0.00    +0.000 C 
BRANCH  17  19
ATOM     18  C   UNL     1       6.342   3.802  12.776  0.00  0.00    +0.000 C 
ATOM     19  C   UNL     1       6.212   3.770  14.291  0.00  0.00    +0.000 C 
ENDBRANCH  17  19
ENDBRANCH  14  17
ENDBRANCH   1  14
BRANCH   4  20
ATOM     20  N   UNL     1       4.730   2.751  19.514  0.00  0.00    +0.000 NA
ATOM     21  H   UNL     1       5.091   2.366  18.641  0.00  0.00    +0.000 HD
ATOM     22  H   UNL     1       3.784   2.384  19.631  0.00  0.00    +0.000 HD
ENDBRANCH   4  20
TORSDOF 6
ENDMDL
MODEL 3
REMARK VINA RESULT:      -7.0      1.770      2.825
REMARK  Name = 
REMARK  8 active torsions:
REMARK  status: ('A' for Active; 'I' for Inactive)
REMARK    1  A    between atoms: C_1  and  C_2
REMARK    2  A    between atoms: C_2  and  C_3
REMARK    3  A    between atoms: C_3  and  S_4
REMARK    4  A    between atoms: S_4  and  N_7
REMARK    5  A    between atoms: C_9  and  C_10
REMARK    6  A    between atoms: C_13  and  O_14
REMARK    7  A    between atoms: O_14  and  C_15
REMARK    8  A    between atoms: C_18  and  N_19
REMARK                            x       y       z     vdW  Elec       q    Type
REMARK                         _______ _______ _______ _____ _____    ______ ____
ROOT
ATOM      1  N   UNL     1       5.812   5.234  17.462  0.00  0.00    +0.000 NA
ATOM      2  C   UNL     1       4.423   4.947  17.096  0.00  0.00    +0.000 C 
ATOM      3  C   UNL     1       3.667   4.909  18.434  0.00  0.00    +0.000 C 
ATOM      4  C   UNL     1       4.740   4.452  19.456  0.00  0.00    +0.000 C 
ATOM      5  C   UNL     1       6.086   4.956  18.874  0.00  0.00    +0.000 C 
ENDROOT
BRANCH   3   6
ATOM      6  C   UNL     1       2.978   6.228  18.752  0.00  0.00    +0.000 A 
ATOM      7  C   UNL     1       2.323   6.375  19.987  0.00  0.00    +0.000 A 
ATOM      8  C   UNL     1       1.681   7.573  20.319  0.00  0.00    +0.000 A 
ATOM      9  C   UNL     1       1.694   8.651  19.436  0.00  0.00    +0.000 A 
ATOM     10  C   UNL     1       2.319   8.512  18.200  0.00  0.00    +0.000 A 
ATOM     11  C   UNL     1       2.948   7.309  17.862  0.00  0.00    +0.000 A 
BRANCH   9  12
ATOM     12  O   UNL     1       1.034   9.770  19.860  0.00  0.00    +0.000 OA
ATOM     13  C   UNL     1      -0.200  10.037  19.202  0.00  0.00    +0.000 C 
ENDBRANCH   9  12
ENDBRANCH   3   6
BRANCH   1  14
ATOM     14  S   UNL     1       7.014   5.418  16.329  0.00  0.00    +0.000 S 
ATOM     15  O   UNL     1       7.920   4.298  16.457  0.00  0.00    +0.000 OA
ATOM     16  O   UNL     1       7.483   6.784  16.391  0.00  0.00    +0.000 OA
BRANCH  14  17
ATOM     17  C   UNL     1       6.087   5.220  14.814  0.00  0.00    +0.000 C 
BRANCH  17  19
ATOM     18  C   UNL     1       6.501   3.835  12.765  0.00  0.00    +0.000 C 
ATOM     19  C   UNL     1       6.198   3.806  14.255  0.00  0.00    +0.000 C 
ENDBRANCH  17  19
ENDBRANCH  14  17
ENDBRANCH   1  14
BRANCH   4  20
ATOM     20  N   UNL     1       4.756   2.989  19.636  0.00  0.00    +0.000 NA
ATOM     21  H   UNL     1       5.350   2.555  18.930  0.00  0.00    +0.000 HD
ATOM     22  H   UNL     1       3.816   2.614  19.504  0.00  0.00    +0.000 HD
ENDBRANCH   4  20
TORSDOF 6
ENDMDL
MODEL 4
REMARK VINA RESULT:      -6.9      0.920      1.423
REMARK  Name = 
REMARK  8 active torsions:
REMARK  status: ('A' for Active; 'I' for Inactive)
REMARK    1  A    between atoms: C_1  and  C_2
REMARK    2  A    between atoms: C_2  and  C_3
REMARK    3  A    between atoms: C_3  and  S_4
REMARK    4  A    between atoms: S_4  and  N_7
REMARK    5  A    between atoms: C_9  and  C_10
REMARK    6  A    between atoms: C_13  and  O_14
REMARK    7  A    between atoms: O_14  and  C_15
REMARK    8  A    between atoms: C_18  and  N_19
REMARK                            x       y       z     vdW  Elec       q    Type
REMARK                         _______ _______ _______ _____ _____    ______ ____
ROOT
ATOM      1  N   UNL     1       5.453   4.708  17.930  0.00  0.00    +0.000 NA
ATOM      2  C   UNL     1       4.221   4.863  17.153  0.00  0.00    +0.000 C 
ATOM      3  C   UNL     1       3.090   4.728  18.185  0.00  0.00    +0.000 C 
ATOM      4  C   UNL     1       3.690   3.810  19.280  0.00  0.00    +0.000 C 
ATOM      5  C   UNL     1       5.217   4.074  19.230  0.00  0.00    +0.000 C 
ENDROOT
BRANCH   3   6
ATOM      6  C   UNL     1       2.578   6.078  18.669  0.00  0.00    +0.000 A 
ATOM      7  C   UNL     1       2.150   6.208  20.001  0.00  0.00    +0.000 A 
ATOM      8  C   UNL     1       1.677   7.433  20.484  0.00  0.00    +0.000 A 
ATOM      9  C   UNL     1       1.638   8.553  19.657  0.00  0.00    +0.000 A 
ATOM     10  C   UNL     1       2.038   8.433  18.330  0.00  0.00    +0.000 A 
ATOM     11  C   UNL     1       2.497   7.206  17.841  0.00  0.00    +0.000 A 
BRANCH   9  12
ATOM     12  O   UNL     1       1.156   9.696  20.231  0.00  0.00    +0.000 OA
ATOM     13  C   UNL     1       0.583  10.637  19.329  0.00  0.00    +0.000 C 
ENDBRANCH   9  12
ENDBRANCH   3   6
BRANCH   1  14
ATOM     14  S   UNL     1       6.962   4.825  17.244  0.00  0.00    +0.000 S 
ATOM     15  O   UNL     1       6.896   4.234  15.925  0.00  0.00    +0.000 OA
ATOM     16  O   UNL     1       7.935   4.391  18.221  0.00  0.00    +0.000 OA
BRANCH  14  17
ATOM     17  C   UNL     1       7.116   6.596  17.058  0.00  0.00    +0.000 C 
BRANCH  17  19
ATOM     18  C   UNL     1       8.136   8.709  17.943  0.00  0.00    +0.000 C 
ATOM     19  C   UNL     1       7.929   7.222  18.186  0.00  0.00    +0.000 C 
ENDBRANCH  17  19
ENDBRANCH  14  17
ENDBRANCH   1  14
BRANCH   4  20
ATOM     20  N   UNL     1       3.392   2.386  19.044  0.00  0.00    +0.000 NA
ATOM     21  H   UNL     1       2.607   2.091  19.625  0.00  0.00    +0.000 HD
ATOM     22  H   UNL     1       4.194   1.816  19.315  0.00  0.00    +0.000 HD
ENDBRANCH   4  20
TORSDOF 6
ENDMDL
MODEL 5
REMARK VINA RESULT:      -6.9      1.306      1.440
REMARK  Name = 
REMARK  8 active torsions:
REMARK  status: ('A' for Active; 'I' for Inactive)
REMARK    1  A    between atoms: C_1  and  C_2
REMARK    2  A    between atoms: C_2  and  C_3
REMARK    3  A    between atoms: C_3  and  S_4
REMARK    4  A    between atoms: S_4  and  N_7
REMARK    5  A    between atoms: C_9  and  C_10
REMARK    6  A    between atoms: C_13  and  O_14
REMARK    7  A    between atoms: O_14  and  C_15
REMARK    8  A    between atoms: C_18  and  N_19
REMARK                            x       y       z     vdW  Elec       q    Type
REMARK                         _______ _______ _______ _____ _____    ______ ____
ROOT
ATOM      1  N   UNL     1       5.424   5.411  18.506  0.00  0.00    +0.000 NA
ATOM      2  C   UNL     1       4.655   6.029  17.424  0.00  0.00    +0.000 C 
ATOM      3  C   UNL     1       3.186   5.763  17.788  0.00  0.00    +0.000 C 
ATOM      4  C   UNL     1       3.235   4.444  18.601  0.00  0.00    +0.000 C 
ATOM      5  C   UNL     1       4.637   4.436  19.264  0.00  0.00    +0.000 C 
ENDROOT
BRANCH   3   6
ATOM      6  C   UNL     1       2.537   6.945  18.496  0.00  0.00    +0.000 A 
ATOM      7  C   UNL     1       2.220   8.095  17.753  0.00  0.00    +0.000 A 
ATOM      8  C   UNL     1       1.620   9.200  18.365  0.00  0.00    +0.000 A 
ATOM      9  C   UNL     1       1.309   9.174  19.722  0.00  0.00    +0.000 A 
ATOM     10  C   UNL     1       1.637   8.051  20.476  0.00  0.00    +0.000 A 
ATOM     11  C   UNL     1       2.251   6.951  19.867  0.00  0.00    +0.000 A 
BRANCH   9  12
ATOM     12  O   UNL     1       0.727  10.308  20.218  0.00  0.00    +0.000 OA
ATOM     13  C   UNL     1       1.063  11.513  19.538  0.00  0.00    +0.000 C 
ENDBRANCH   9  12
ENDBRANCH   3   6
BRANCH   1  14
ATOM     14  S   UNL     1       7.083   5.480  18.575  0.00  0.00    +0.000 S 
ATOM     15  O   UNL     1       7.605   4.412  17.750  0.00  0.00    +0.000 OA
ATOM     16  O   UNL     1       7.470   5.628  19.960  0.00  0.00    +0.000 OA
BRANCH  14  17
ATOM     17  C   UNL     1       7.394   7.033  17.745  0.00  0.00    +0.000 C 
BRANCH  17  19
ATOM     18  C   UNL     1       8.296   9.352  18.051  0.00  0.00    +0.000 C 
ATOM     19  C   UNL     1       8.379   7.906  18.513  0.00  0.00    +0.000 C 
ENDBRANCH  17  19
ENDBRANCH  14  17
ENDBRANCH   1  14
BRANCH   4  20
ATOM     20  N   UNL     1       3.045   3.254  17.751  0.00  0.00    +0.000 NA
ATOM     21  H   UNL     1       3.507   2.447  18.170  0.00  0.00    +0.000 HD
ATOM     22  H   UNL     1       3.482   3.407  16.841  0.00  0.00    +0.000 HD
ENDBRANCH   4  20
TORSDOF 6
ENDMDL
MODEL 6
REMARK VINA RESULT:      -6.9      1.849      2.337
REMARK  Name = 
REMARK  8 active torsions:
REMARK  status: ('A' for Active; 'I' for Inactive)
REMARK    1  A    between atoms: C_1  and  C_2
REMARK    2  A    between atoms: C_2  and  C_3
REMARK    3  A    between atoms: C_3  and  S_4
REMARK    4  A    between atoms: S_4  and  N_7
REMARK    5  A    between atoms: C_9  and  C_10
REMARK    6  A    between atoms: C_13  and  O_14
REMARK    7  A    between atoms: O_14  and  C_15
REMARK    8  A    between atoms: C_18  and  N_19
REMARK                            x       y       z     vdW  Elec       q    Type
REMARK                         _______ _______ _______ _____ _____    ______ ____
ROOT
ATOM      1  N   UNL     1       5.428   5.812  18.126  0.00  0.00    +0.000 NA
ATOM      2  C   UNL     1       4.265   5.990  17.255  0.00  0.00    +0.000 C 
ATOM      3  C   UNL     1       3.055   5.688  18.154  0.00  0.00    +0.000 C 
ATOM      4  C   UNL     1       3.607   4.687  19.200  0.00  0.00    +0.000 C 
ATOM      5  C   UNL     1       5.115   5.029  19.324  0.00  0.00    +0.000 C 
ENDROOT
BRANCH   3   6
ATOM      6  C   UNL     1       2.423   6.951  18.724  0.00  0.00    +0.000 A 
ATOM      7  C   UNL     1       2.210   8.050  17.876  0.00  0.00    +0.000 A 
ATOM      8  C   UNL     1       1.628   9.226  18.361  0.00  0.00    +0.000 A 
ATOM      9  C   UNL     1       1.233   9.323  19.693  0.00  0.00    +0.000 A 
ATOM     10  C   UNL     1       1.458   8.250  20.550  0.00  0.00    +0.000 A 
ATOM     11  C   UNL     1       2.053   7.079  20.069  0.00  0.00    +0.000 A 
BRANCH   9  12
ATOM     12  O   UNL     1       0.678  10.517  20.060  0.00  0.00    +0.000 OA
ATOM     13  C   UNL     1       0.159  10.567  21.385  0.00  0.00    +0.000 C 
ENDBRANCH   9  12
ENDBRANCH   3   6
BRANCH   1  14
ATOM     14  S   UNL     1       6.983   6.077  17.603  0.00  0.00    +0.000 S 
ATOM     15  O   UNL     1       7.852   6.042  18.759  0.00  0.00    +0.000 OA
ATOM     16  O   UNL     1       6.967   7.206  16.700  0.00  0.00    +0.000 OA
BRANCH  14  17
ATOM     17  C   UNL     1       7.274   4.600  16.638  0.00  0.00    +0.000 C 
BRANCH  17  19
ATOM     18  C   UNL     1       5.936   4.008  14.601  0.00  0.00    +0.000 C 
ATOM     19  C   UNL     1       7.084   4.845  15.145  0.00  0.00    +0.000 C 
ENDBRANCH  17  19
ENDBRANCH  14  17
ENDBRANCH   1  14
BRANCH   4  20
ATOM     20  N   UNL     1       3.416   3.284  18.790  0.00  0.00    +0.000 NA
ATOM     21  H   UNL     1       2.976   2.755  19.542  0.00  0.00    +0.000 HD
ATOM     22  H   UNL     1       4.323   2.849  18.612  0.00  0.00    +0.000 HD
ENDBRANCH   4  20
TORSDOF 6
ENDMDL
MODEL 7
REMARK VINA RESULT:      -6.9      1.830      2.572
REMARK  Name = 
REMARK  8 active torsions:
REMARK  status: ('A' for Active; 'I' for Inactive)
REMARK    1  A    between atoms: C_1  and  C_2
REMARK    2  A    between atoms: C_2  and  C_3
REMARK    3  A    between atoms: C_3  and  S_4
REMARK    4  A    between atoms: S_4  and  N_7
REMARK    5  A    between atoms: C_9  and  C_10
REMARK    6  A    between atoms: C_13  and  O_14
REMARK    7  A    between atoms: O_14  and  C_15
REMARK    8  A    between atoms: C_18  and  N_19
REMARK                            x       y       z     vdW  Elec       q    Type
REMARK                         _______ _______ _______ _____ _____    ______ ____
ROOT
ATOM      1  N   UNL     1       5.450   5.937  18.131  0.00  0.00    +0.000 NA
ATOM      2  C   UNL     1       4.325   6.119  17.212  0.00  0.00    +0.000 C 
ATOM      3  C   UNL     1       3.077   5.829  18.062  0.00  0.00    +0.000 C 
ATOM      4  C   UNL     1       3.579   4.828  19.134  0.00  0.00    +0.000 C 
ATOM      5  C   UNL     1       5.083   5.161  19.318  0.00  0.00    +0.000 C 
ENDROOT
BRANCH   3   6
ATOM      6  C   UNL     1       2.431   7.098  18.602  0.00  0.00    +0.000 A 
ATOM      7  C   UNL     1       2.064   7.154  19.957  0.00  0.00    +0.000 A 
ATOM      8  C   UNL     1       1.472   8.303  20.492  0.00  0.00    +0.000 A 
ATOM      9  C   UNL     1       1.250   9.422  19.693  0.00  0.00    +0.000 A 
ATOM     10  C   UNL     1       1.588   9.373  18.343  0.00  0.00    +0.000 A 
ATOM     11  C   UNL     1       2.167   8.219  17.805  0.00  0.00    +0.000 A 
BRANCH   9  12
ATOM     12  O   UNL     1       0.664  10.487  20.316  0.00  0.00    +0.000 OA
ATOM     13  C   UNL     1      -0.190  10.161  21.409  0.00  0.00    +0.000 C 
ENDBRANCH   9  12
ENDBRANCH   3   6
BRANCH   1  14
ATOM     14  S   UNL     1       7.027   6.189  17.672  0.00  0.00    +0.000 S 
ATOM     15  O   UNL     1       7.839   6.220  18.869  0.00  0.00    +0.000 OA
ATOM     16  O   UNL     1       7.048   7.272  16.714  0.00  0.00    +0.000 OA
BRANCH  14  17
ATOM     17  C   UNL     1       7.374   4.669  16.797  0.00  0.00    +0.000 C 
BRANCH  17  19
ATOM     18  C   UNL     1       6.035   3.906  14.819  0.00  0.00    +0.000 C 
ATOM     19  C   UNL     1       7.161   4.812  15.294  0.00  0.00    +0.000 C 
ENDBRANCH  17  19
ENDBRANCH  14  17
ENDBRANCH   1  14
BRANCH   4  20
ATOM     20  N   UNL     1       3.395   3.425  18.721  0.00  0.00    +0.000 NA
ATOM     21  H   UNL     1       3.965   3.223  17.900  0.00  0.00    +0.000 HD
ATOM     22  H   UNL     1       2.423   3.268  18.453  0.00  0.00    +0.000 HD
ENDBRANCH   4  20
TORSDOF 6
ENDMDL
MODEL 8
REMARK VINA RESULT:      -6.7      2.822      4.310
REMARK  Name = 
REMARK  8 active torsions:
REMARK  status: ('A' for Active; 'I' for Inactive)
REMARK    1  A    between atoms: C_1  and  C_2
REMARK    2  A    between atoms: C_2  and  C_3
REMARK    3  A    between atoms: C_3  and  S_4
REMARK    4  A    between atoms: S_4  and  N_7
REMARK    5  A    between atoms: C_9  and  C_10
REMARK    6  A    between atoms: C_13  and  O_14
REMARK    7  A    between atoms: O_14  and  C_15
REMARK    8  A    between atoms: C_18  and  N_19
REMARK                            x       y       z     vdW  Elec       q    Type
REMARK                         _______ _______ _______ _____ _____    ______ ____
ROOT
ATOM      1  N   UNL     1       3.890   3.769  18.842  0.00  0.00    +0.000 NA
ATOM      2  C   UNL     1       4.676   4.927  19.271  0.00  0.00    +0.000 C 
ATOM      3  C   UNL     1       4.431   5.989  18.187  0.00  0.00    +0.000 C 
ATOM      4  C   UNL     1       4.149   5.159  16.908  0.00  0.00    +0.000 C 
ATOM      5  C   UNL     1       3.534   3.831  17.422  0.00  0.00    +0.000 C 
ENDROOT
BRANCH   3   6
ATOM      6  C   UNL     1       3.344   6.981  18.577  0.00  0.00    +0.000 A 
ATOM      7  C   UNL     1       2.992   7.998  17.673  0.00  0.00    +0.000 A 
ATOM      8  C   UNL     1       1.995   8.926  17.993  0.00  0.00    +0.000 A 
ATOM      9  C   UNL     1       1.321   8.850  19.209  0.00  0.00    +0.000 A 
ATOM     10  C   UNL     1       1.675   7.862  20.124  0.00  0.00    +0.000 A 
ATOM     11  C   UNL     1       2.681   6.942  19.811  0.00  0.00    +0.000 A 
BRANCH   9  12
ATOM     12  O   UNL     1       0.369   9.808  19.419  0.00  0.00    +0.000 OA
ATOM     13  C   UNL     1      -0.363  10.205  18.264  0.00  0.00    +0.000 C 
ENDBRANCH   9  12
ENDBRANCH   3   6
BRANCH   1  14
ATOM     14  S   UNL     1       3.803   2.370  19.733  0.00  0.00    +0.000 S 
ATOM     15  O   UNL     1       5.136   2.058  20.202  0.00  0.00    +0.000 OA
ATOM     16  O   UNL     1       3.018   1.411  18.989  0.00  0.00    +0.000 OA
BRANCH  14  17
ATOM     17  C   UNL     1       2.831   2.915  21.131  0.00  0.00    +0.000 C 
BRANCH  17  19
ATOM     18  C   UNL     1       0.754   3.955  20.185  0.00  0.00    +0.000 C 
ATOM     19  C   UNL     1       1.335   2.740  20.891  0.00  0.00    +0.000 C 
ENDBRANCH  17  19
ENDBRANCH  14  17
ENDBRANCH   1  14
BRANCH   4  20
ATOM     20  N   UNL     1       5.370   4.907  16.122  0.00  0.00    +0.000 NA
ATOM     21  H   UNL     1       5.643   5.750  15.617  0.00  0.00    +0.000 HD
ATOM     22  H   UNL     1       5.188   4.187  15.422  0.00  0.00    +0.000 HD
ENDBRANCH   4  20
TORSDOF 6
ENDMDL
MODEL 9
REMARK VINA RESULT:      -6.6      2.815      4.372
REMARK  Name = 
REMARK  8 active torsions:
REMARK  status: ('A' for Active; 'I' for Inactive)
REMARK    1  A    between atoms: C_1  and  C_2
REMARK    2  A    between atoms: C_2  and  C_3
REMARK    3  A    between atoms: C_3  and  S_4
REMARK    4  A    between atoms: S_4  and  N_7
REMARK    5  A    between atoms: C_9  and  C_10
REMARK    6  A    between atoms: C_13  and  O_14
REMARK    7  A    between atoms: O_14  and  C_15
REMARK    8  A    between atoms: C_18  and  N_19
REMARK                            x       y       z     vdW  Elec       q    Type
REMARK                         _______ _______ _______ _____ _____    ______ ____
ROOT
ATOM      1  N   UNL     1       4.140   3.533  18.660  0.00  0.00    +0.000 NA
ATOM      2  C   UNL     1       4.927   4.684  19.107  0.00  0.00    +0.000 C 
ATOM      3  C   UNL     1       4.735   5.739  18.005  0.00  0.00    +0.000 C 
ATOM      4  C   UNL     1       4.487   4.901  16.725  0.00  0.00    +0.000 C 
ATOM      5  C   UNL     1       3.836   3.586  17.228  0.00  0.00    +0.000 C 
ENDROOT
BRANCH   3   6
ATOM      6  C   UNL     1       3.649   6.750  18.348  0.00  0.00    +0.000 A 
ATOM      7  C   UNL     1       2.996   6.655  19.588  0.00  0.00    +0.000 A 
ATOM      8  C   UNL     1       1.996   7.567  19.942  0.00  0.00    +0.000 A 
ATOM      9  C   UNL     1       1.641   8.599  19.076  0.00  0.00    +0.000 A 
ATOM     10  C   UNL     1       2.263   8.691  17.835  0.00  0.00    +0.000 A 
ATOM     11  C   UNL     1       3.253   7.770  17.474  0.00  0.00    +0.000 A 
BRANCH   9  12
ATOM     12  O   UNL     1       0.651   9.430  19.520  0.00  0.00    +0.000 OA
ATOM     13  C   UNL     1       0.498  10.643  18.790  0.00  0.00    +0.000 C 
ENDBRANCH   9  12
ENDBRANCH   3   6
BRANCH   1  14
ATOM     14  S   UNL     1       4.002   2.143  19.560  0.00  0.00    +0.000 S 
ATOM     15  O   UNL     1       5.212   1.996  20.340  0.00  0.00    +0.000 OA
ATOM     16  O   UNL     1       3.528   1.090  18.691  0.00  0.00    +0.000 OA
BRANCH  14  17
ATOM     17  C   UNL     1       2.671   2.586  20.669  0.00  0.00    +0.000 C 
BRANCH  17  19
ATOM     18  C   UNL     1       0.715   4.103  20.268  0.00  0.00    +0.000 C 
ATOM     19  C   UNL     1       1.347   2.761  19.933  0.00  0.00    +0.000 C 
ENDBRANCH  17  19
ENDBRANCH  14  17
ENDBRANCH   1  14
BRANCH   4  20
ATOM     20  N   UNL     1       5.732   4.624  15.986  0.00  0.00    +0.000 NA
ATOM     21  H   UNL     1       6.033   3.664  16.151  0.00  0.00    +0.000 HD
ATOM     22  H   UNL     1       6.478   5.232  16.326  0.00  0.00    +0.000 HD
ENDBRANCH   4  20
TORSDOF 6
ENDMDL
