MODEL 1
REMARK VINA RESULT:      -8.4      0.000      0.000
REMARK  Name = 
REMARK  3 active torsions:
REMARK  status: ('A' for Active; 'I' for Inactive)
REMARK    1  A    between atoms: C_1  and  N_2
REMARK    2  A    between atoms: C_4  and  C_5
REMARK    3  A    between atoms: C_8  and  N_9
REMARK                            x       y       z     vdW  Elec       q    Type
REMARK                         _______ _______ _______ _____ _____    ______ ____
ROOT
ATOM      1  C   UNL     1       0.928   4.664  20.226  0.00  0.00    +0.000 C 
ATOM      2  N   UNL     1       1.797   4.207  19.130  0.00  0.00    +0.000 N 
ATOM      3  C   UNL     1       2.904   4.793  18.659  0.00  0.00    +0.000 C 
ATOM      4  C   UNL     1       3.126   6.209  18.427  0.00  0.00    +0.000 C 
ATOM      5  N   UNL     1       4.000   6.610  17.504  0.00  0.00    +0.000 N 
ATOM      6  O   UNL     1       4.234   7.846  17.285  0.00  0.00    +0.000 OA
ATOM      7  C   UNL     1       4.700   5.621  16.683  0.00  0.00    +0.000 A 
ATOM      8  C   UNL     1       5.337   6.040  15.502  0.00  0.00    +0.000 A 
ATOM      9  C   UNL     1       6.048   5.126  14.730  0.00  0.00    +0.000 A 
ATOM     10  C   UNL     1       6.144   3.804  15.151  0.00  0.00    +0.000 A 
ATOM     11  C   UNL     1       5.503   3.395  16.321  0.00  0.00    +0.000 A 
ATOM     12  C   UNL     1       4.729   4.284  17.085  0.00  0.00    +0.000 A 
ATOM     13  N   UNL     1       3.919   3.904  18.164  0.00  0.00    +0.000 N 
ATOM     14  C   UNL     1       3.731   2.489  18.467  0.00  0.00    +0.000 C 
ATOM     15  C   UNL     1       2.419   2.127  17.813  0.00  0.00    +0.000 C 
ATOM     16  C   UNL     1       1.325   2.952  18.458  0.00  0.00    +0.000 C 
ENDROOT
BRANCH   4  17
ATOM     17  C   UNL     1       2.346   7.267  19.146  0.00  0.00    +0.000 A 
ATOM     18  C   UNL     1       2.213   7.254  20.536  0.00  0.00    +0.000 A 
ATOM     19  C   UNL     1       1.411   8.204  21.190  0.00  0.00    +0.000 A 
ATOM     20  C   UNL     1       0.849   9.259  20.458  0.00  0.00    +0.000 A 
ATOM     21  C   UNL     1       1.068   9.354  19.081  0.00  0.00    +0.000 A 
ATOM     22  C   UNL     1       1.780   8.338  18.428  0.00  0.00    +0.000 A 
BRANCH  20  23
ATOM     23  N   UNL     1       0.032  10.271  21.139  0.00  0.00    +0.000 N 
ATOM     24  O   UNL     1      -0.887  10.790  20.492  0.00  0.00    +0.000 OA
ATOM     25  O   UNL     1       0.334  10.568  22.303  0.00  0.00    +0.000 OA
ENDBRANCH  20  23
ENDBRANCH   4  17
TORSDOF 2
ENDMDL
MODEL 2
REMARK VINA RESULT:      -8.4      0.076      1.151
REMARK  Name = 
REMARK  3 active torsions:
REMARK  status: ('A' for Active; 'I' for Inactive)
REMARK    1  A    between atoms: C_1  and  N_2
REMARK    2  A    between atoms: C_4  and  C_5
REMARK    3  A    between atoms: C_8  and  N_9
REMARK                            x       y       z     vdW  Elec       q    Type
REMARK                         _______ _______ _______ _____ _____    ______ ____
ROOT
ATOM      1  C   UNL     1       0.892   4.710  20.177  0.00  0.00    +0.000 C 
ATOM      2  N   UNL     1       1.777   4.245  19.097  0.00  0.00    +0.000 N 
ATOM      3  C   UNL     1       2.889   4.831  18.634  0.00  0.00    +0.000 C 
ATOM      4  C   UNL     1       3.110   6.245  18.392  0.00  0.00    +0.000 C 
ATOM      5  N   UNL     1       3.995   6.640  17.478  0.00  0.00    +0.000 N 
ATOM      6  O   UNL     1       4.228   7.875  17.249  0.00  0.00    +0.000 OA
ATOM      7  C   UNL     1       4.708   5.646  16.675  0.00  0.00    +0.000 A 
ATOM      8  C   UNL     1       5.360   6.055  15.499  0.00  0.00    +0.000 A 
ATOM      9  C   UNL     1       6.084   5.136  14.744  0.00  0.00    +0.000 A 
ATOM     10  C   UNL     1       6.178   3.818  15.179  0.00  0.00    +0.000 A 
ATOM     11  C   UNL     1       5.522   3.418  16.345  0.00  0.00    +0.000 A 
ATOM     12  C   UNL     1       4.736   4.312  17.090  0.00  0.00    +0.000 A 
ATOM     13  N   UNL     1       3.913   3.940  18.162  0.00  0.00    +0.000 N 
ATOM     14  C   UNL     1       3.725   2.527  18.476  0.00  0.00    +0.000 C 
ATOM     15  C   UNL     1       2.423   2.155  17.807  0.00  0.00    +0.000 C 
ATOM     16  C   UNL     1       1.319   2.982  18.430  0.00  0.00    +0.000 C 
ENDROOT
BRANCH   4  17
ATOM     17  C   UNL     1       2.316   7.306  19.090  0.00  0.00    +0.000 A 
ATOM     18  C   UNL     1       1.649   8.303  18.376  0.00  0.00    +0.000 A 
ATOM     19  C   UNL     1       0.976   9.340  19.045  0.00  0.00    +0.000 A 
ATOM     20  C   UNL     1       0.855   9.299  20.441  0.00  0.00    +0.000 A 
ATOM     21  C   UNL     1       1.418   8.246  21.165  0.00  0.00    +0.000 A 
ATOM     22  C   UNL     1       2.178   7.278  20.491  0.00  0.00    +0.000 A 
BRANCH  20  23
ATOM     23  N   UNL     1       0.131  10.365  21.146  0.00  0.00    +0.000 N 
ATOM     24  O   UNL     1       0.471  10.611  22.311  0.00  0.00    +0.000 OA
ATOM     25  O   UNL     1      -0.797  10.926  20.546  0.00  0.00    +0.000 OA
ENDBRANCH  20  23
ENDBRANCH   4  17
TORSDOF 2
ENDMDL
MODEL 3
REMARK VINA RESULT:      -8.2      3.546      7.125
REMARK  Name = 
REMARK  3 active torsions:
REMARK  status: ('A' for Active; 'I' for Inactive)
REMARK    1  A    between atoms: C_1  and  N_2
REMARK    2  A    between atoms: C_4  and  C_5
REMARK    3  A    between atoms: C_8  and  N_9
REMARK                            x       y       z     vdW  Elec       q    Type
REMARK                         _______ _______ _______ _____ _____    ______ ____
ROOT
ATOM      1  C   UNL     1       4.650   7.821  16.890  0.00  0.00    +0.000 C 
ATOM      2  N   UNL     1       3.682   7.107  17.739  0.00  0.00    +0.000 N 
ATOM      3  C   UNL     1       3.783   5.871  18.241  0.00  0.00    +0.000 C 
ATOM      4  C   UNL     1       4.281   4.682  17.573  0.00  0.00    +0.000 C 
ATOM      5  N   UNL     1       3.858   3.475  17.946  0.00  0.00    +0.000 N 
ATOM      6  O   UNL     1       4.287   2.406  17.393  0.00  0.00    +0.000 OA
ATOM      7  C   UNL     1       2.847   3.347  18.996  0.00  0.00    +0.000 A 
ATOM      8  C   UNL     1       2.158   2.130  19.139  0.00  0.00    +0.000 A 
ATOM      9  C   UNL     1       1.225   1.970  20.160  0.00  0.00    +0.000 A 
ATOM     10  C   UNL     1       1.001   3.015  21.051  0.00  0.00    +0.000 A 
ATOM     11  C   UNL     1       1.684   4.223  20.897  0.00  0.00    +0.000 A 
ATOM     12  C   UNL     1       2.585   4.430  19.839  0.00  0.00    +0.000 A 
ATOM     13  N   UNL     1       3.166   5.665  19.523  0.00  0.00    +0.000 N 
ATOM     14  C   UNL     1       2.737   6.871  20.225  0.00  0.00    +0.000 C 
ATOM     15  C   UNL     1       1.724   7.510  19.306  0.00  0.00    +0.000 C 
ATOM     16  C   UNL     1       2.424   7.878  18.014  0.00  0.00    +0.000 C 
ENDROOT
BRANCH   4  17
ATOM     17  C   UNL     1       5.219   4.757  16.407  0.00  0.00    +0.000 A 
ATOM     18  C   UNL     1       6.584   4.987  16.586  0.00  0.00    +0.000 A 
ATOM     19  C   UNL     1       7.439   5.136  15.481  0.00  0.00    +0.000 A 
ATOM     20  C   UNL     1       6.945   4.914  14.187  0.00  0.00    +0.000 A 
ATOM     21  C   UNL     1       5.605   4.568  13.997  0.00  0.00    +0.000 A 
ATOM     22  C   UNL     1       4.742   4.530  15.102  0.00  0.00    +0.000 A 
BRANCH  20  23
ATOM     23  N   UNL     1       7.838   5.042  13.029  0.00  0.00    +0.000 N 
ATOM     24  O   UNL     1       8.828   5.775  13.152  0.00  0.00    +0.000 OA
ATOM     25  O   UNL     1       7.529   4.437  11.993  0.00  0.00    +0.000 OA
ENDBRANCH  20  23
ENDBRANCH   4  17
TORSDOF 2
ENDMDL
MODEL 4
REMARK VINA RESULT:      -7.7      3.542      7.123
REMARK  Name = 
REMARK  3 active torsions:
REMARK  status: ('A' for Active; 'I' for Inactive)
REMARK    1  A    between atoms: C_1  and  N_2
REMARK    2  A    between atoms: C_4  and  C_5
REMARK    3  A    between atoms: C_8  and  N_9
REMARK                            x       y       z     vdW  Elec       q    Type
REMARK                         _______ _______ _______ _____ _____    ______ ____
ROOT
ATOM      1  C   UNL     1       4.519   7.851  16.894  0.00  0.00    +0.000 C 
ATOM      2  N   UNL     1       3.590   7.114  17.765  0.00  0.00    +0.000 N 
ATOM      3  C   UNL     1       3.734   5.881  18.266  0.00  0.00    +0.000 C 
ATOM      4  C   UNL     1       4.248   4.704  17.589  0.00  0.00    +0.000 C 
ATOM      5  N   UNL     1       3.865   3.487  17.973  0.00  0.00    +0.000 N 
ATOM      6  O   UNL     1       4.308   2.429  17.412  0.00  0.00    +0.000 OA
ATOM      7  C   UNL     1       2.881   3.335  19.046  0.00  0.00    +0.000 A 
ATOM      8  C   UNL     1       2.228   2.102  19.207  0.00  0.00    +0.000 A 
ATOM      9  C   UNL     1       1.323   1.920  20.249  0.00  0.00    +0.000 A 
ATOM     10  C   UNL     1       1.093   2.960  21.144  0.00  0.00    +0.000 A 
ATOM     11  C   UNL     1       1.740   4.185  20.972  0.00  0.00    +0.000 A 
ATOM     12  C   UNL     1       2.611   4.412  19.894  0.00  0.00    +0.000 A 
ATOM     13  N   UNL     1       3.152   5.662  19.563  0.00  0.00    +0.000 N 
ATOM     14  C   UNL     1       2.708   6.857  20.273  0.00  0.00    +0.000 C 
ATOM     15  C   UNL     1       1.659   7.469  19.376  0.00  0.00    +0.000 C 
ATOM     16  C   UNL     1       2.319   7.852  18.068  0.00  0.00    +0.000 C 
ENDROOT
BRANCH   4  17
ATOM     17  C   UNL     1       5.156   4.801  16.402  0.00  0.00    +0.000 A 
ATOM     18  C   UNL     1       4.677   4.611  15.103  0.00  0.00    +0.000 A 
ATOM     19  C   UNL     1       5.554   4.624  14.005  0.00  0.00    +0.000 A 
ATOM     20  C   UNL     1       6.900   4.967  14.196  0.00  0.00    +0.000 A 
ATOM     21  C   UNL     1       7.372   5.274  15.475  0.00  0.00    +0.000 A 
ATOM     22  C   UNL     1       6.508   5.151  16.573  0.00  0.00    +0.000 A 
BRANCH  20  23
ATOM     23  N   UNL     1       7.816   5.008  13.050  0.00  0.00    +0.000 N 
ATOM     24  O   UNL     1       7.541   4.296  12.075  0.00  0.00    +0.000 OA
ATOM     25  O   UNL     1       8.823   5.724  13.142  0.00  0.00    +0.000 OA
ENDBRANCH  20  23
ENDBRANCH   4  17
TORSDOF 2
ENDMDL
MODEL 5
REMARK VINA RESULT:      -7.3      8.929     10.384
REMARK  Name = 
REMARK  3 active torsions:
REMARK  status: ('A' for Active; 'I' for Inactive)
REMARK    1  A    between atoms: C_1  and  N_2
REMARK    2  A    between atoms: C_4  and  C_5
REMARK    3  A    between atoms: C_8  and  N_9
REMARK                            x       y       z     vdW  Elec       q    Type
REMARK                         _______ _______ _______ _____ _____    ______ ____
ROOT
ATOM      1  C   UNL     1       7.005  15.524  22.867  0.00  0.00    +0.000 C 
ATOM      2  N   UNL     1       7.893  15.309  21.713  0.00  0.00    +0.000 N 
ATOM      3  C   UNL     1       8.143  14.162  21.069  0.00  0.00    +0.000 C 
ATOM      4  C   UNL     1       8.354  12.848  21.651  0.00  0.00    +0.000 C 
ATOM      5  N   UNL     1       9.089  11.940  21.010  0.00  0.00    +0.000 N 
ATOM      6  O   UNL     1       9.283  10.770  21.482  0.00  0.00    +0.000 OA
ATOM      7  C   UNL     1       9.731  12.284  19.740  0.00  0.00    +0.000 A 
ATOM      8  C   UNL     1      10.768  11.469  19.254  0.00  0.00    +0.000 A 
ATOM      9  C   UNL     1      11.361  11.750  18.027  0.00  0.00    +0.000 A 
ATOM     10  C   UNL     1      10.902  12.827  17.276  0.00  0.00    +0.000 A 
ATOM     11  C   UNL     1       9.877  13.636  17.769  0.00  0.00    +0.000 A 
ATOM     12  C   UNL     1       9.304  13.410  19.032  0.00  0.00    +0.000 A 
ATOM     13  N   UNL     1       8.403  14.280  19.661  0.00  0.00    +0.000 N 
ATOM     14  C   UNL     1       8.115  15.581  19.065  0.00  0.00    +0.000 C 
ATOM     15  C   UNL     1       9.014  16.547  19.800  0.00  0.00    +0.000 C 
ATOM     16  C   UNL     1       8.620  16.541  21.262  0.00  0.00    +0.000 C 
ENDROOT
BRANCH   4  17
ATOM     17  C   UNL     1       7.831  12.483  23.006  0.00  0.00    +0.000 A 
ATOM     18  C   UNL     1       8.581  12.713  24.161  0.00  0.00    +0.000 A 
ATOM     19  C   UNL     1       8.113  12.291  25.417  0.00  0.00    +0.000 A 
ATOM     20  C   UNL     1       6.821  11.759  25.533  0.00  0.00    +0.000 A 
ATOM     21  C   UNL     1       6.010  11.629  24.403  0.00  0.00    +0.000 A 
ATOM     22  C   UNL     1       6.533  11.954  23.143  0.00  0.00    +0.000 A 
BRANCH  20  23
ATOM     23  N   UNL     1       6.315  11.341  26.846  0.00  0.00    +0.000 N 
ATOM     24  O   UNL     1       5.095  11.155  26.954  0.00  0.00    +0.000 OA
ATOM     25  O   UNL     1       7.131  11.235  27.772  0.00  0.00    +0.000 OA
ENDBRANCH  20  23
ENDBRANCH   4  17
TORSDOF 2
ENDMDL
MODEL 6
REMARK VINA RESULT:      -7.3      8.934     10.421
REMARK  Name = 
REMARK  3 active torsions:
REMARK  status: ('A' for Active; 'I' for Inactive)
REMARK    1  A    between atoms: C_1  and  N_2
REMARK    2  A    between atoms: C_4  and  C_5
REMARK    3  A    between atoms: C_8  and  N_9
REMARK                            x       y       z     vdW  Elec       q    Type
REMARK                         _______ _______ _______ _____ _____    ______ ____
ROOT
ATOM      1  C   UNL     1       6.923  15.496  22.914  0.00  0.00    +0.000 C 
ATOM      2  N   UNL     1       7.805  15.299  21.753  0.00  0.00    +0.000 N 
ATOM      3  C   UNL     1       8.069  14.159  21.103  0.00  0.00    +0.000 C 
ATOM      4  C   UNL     1       8.307  12.847  21.677  0.00  0.00    +0.000 C 
ATOM      5  N   UNL     1       9.051  11.954  21.027  0.00  0.00    +0.000 N 
ATOM      6  O   UNL     1       9.267  10.784  21.493  0.00  0.00    +0.000 OA
ATOM      7  C   UNL     1       9.678  12.313  19.754  0.00  0.00    +0.000 A 
ATOM      8  C   UNL     1      10.723  11.517  19.256  0.00  0.00    +0.000 A 
ATOM      9  C   UNL     1      11.303  11.812  18.026  0.00  0.00    +0.000 A 
ATOM     10  C   UNL     1      10.820  12.884  17.283  0.00  0.00    +0.000 A 
ATOM     11  C   UNL     1       9.786  13.675  17.788  0.00  0.00    +0.000 A 
ATOM     12  C   UNL     1       9.226  13.434  19.053  0.00  0.00    +0.000 A 
ATOM     13  N   UNL     1       8.317  14.287  19.693  0.00  0.00    +0.000 N 
ATOM     14  C   UNL     1       8.003  15.586  19.105  0.00  0.00    +0.000 C 
ATOM     15  C   UNL     1       8.891  16.563  19.836  0.00  0.00    +0.000 C 
ATOM     16  C   UNL     1       8.509  16.545  21.301  0.00  0.00    +0.000 C 
ENDROOT
BRANCH   4  17
ATOM     17  C   UNL     1       7.799  12.468  23.035  0.00  0.00    +0.000 A 
ATOM     18  C   UNL     1       6.559  11.847  23.200  0.00  0.00    +0.000 A 
ATOM     19  C   UNL     1       6.059  11.570  24.483  0.00  0.00    +0.000 A 
ATOM     20  C   UNL     1       6.870  11.792  25.606  0.00  0.00    +0.000 A 
ATOM     21  C   UNL     1       8.160  12.305  25.451  0.00  0.00    +0.000 A 
ATOM     22  C   UNL     1       8.602  12.676  24.172  0.00  0.00    +0.000 A 
BRANCH  20  23
ATOM     23  N   UNL     1       6.365  11.480  26.949  0.00  0.00    +0.000 N 
ATOM     24  O   UNL     1       7.144  11.628  27.899  0.00  0.00    +0.000 OA
ATOM     25  O   UNL     1       5.205  11.055  27.044  0.00  0.00    +0.000 OA
ENDBRANCH  20  23
ENDBRANCH   4  17
TORSDOF 2
ENDMDL
MODEL 7
REMARK VINA RESULT:      -7.2      6.871     10.923
REMARK  Name = 
REMARK  3 active torsions:
REMARK  status: ('A' for Active; 'I' for Inactive)
REMARK    1  A    between atoms: C_1  and  N_2
REMARK    2  A    between atoms: C_4  and  C_5
REMARK    3  A    between atoms: C_8  and  N_9
REMARK                            x       y       z     vdW  Elec       q    Type
REMARK                         _______ _______ _______ _____ _____    ______ ____
ROOT
ATOM      1  C   UNL     1      -3.459  11.480  17.343  0.00  0.00    +0.000 C 
ATOM      2  N   UNL     1      -4.453  11.542  18.427  0.00  0.00    +0.000 N 
ATOM      3  C   UNL     1      -4.420  12.298  19.532  0.00  0.00    +0.000 C 
ATOM      4  C   UNL     1      -3.275  12.575  20.380  0.00  0.00    +0.000 C 
ATOM      5  N   UNL     1      -3.449  12.867  21.669  0.00  0.00    +0.000 N 
ATOM      6  O   UNL     1      -2.467  13.134  22.442  0.00  0.00    +0.000 OA
ATOM      7  C   UNL     1      -4.794  12.855  22.246  0.00  0.00    +0.000 A 
ATOM      8  C   UNL     1      -4.940  12.814  23.643  0.00  0.00    +0.000 A 
ATOM      9  C   UNL     1      -6.208  12.848  24.215  0.00  0.00    +0.000 A 
ATOM     10  C   UNL     1      -7.326  12.951  23.393  0.00  0.00    +0.000 A 
ATOM     11  C   UNL     1      -7.173  12.983  22.006  0.00  0.00    +0.000 A 
ATOM     12  C   UNL     1      -5.908  12.889  21.403  0.00  0.00    +0.000 A 
ATOM     13  N   UNL     1      -5.696  12.737  20.026  0.00  0.00    +0.000 N 
ATOM     14  C   UNL     1      -6.833  12.526  19.135  0.00  0.00    +0.000 C 
ATOM     15  C   UNL     1      -6.888  11.031  18.933  0.00  0.00    +0.000 C 
ATOM     16  C   UNL     1      -5.605  10.597  18.257  0.00  0.00    +0.000 C 
ENDROOT
BRANCH   4  17
ATOM     17  C   UNL     1      -1.867  12.477  19.878  0.00  0.00    +0.000 A 
ATOM     18  C   UNL     1      -1.216  13.578  19.318  0.00  0.00    +0.000 A 
ATOM     19  C   UNL     1       0.074  13.451  18.776  0.00  0.00    +0.000 A 
ATOM     20  C   UNL     1       0.772  12.244  18.922  0.00  0.00    +0.000 A 
ATOM     21  C   UNL     1       0.179  11.165  19.584  0.00  0.00    +0.000 A 
ATOM     22  C   UNL     1      -1.148  11.275  20.022  0.00  0.00    +0.000 A 
BRANCH  20  23
ATOM     23  N   UNL     1       2.131  12.112  18.382  0.00  0.00    +0.000 N 
ATOM     24  O   UNL     1       2.861  13.111  18.430  0.00  0.00    +0.000 OA
ATOM     25  O   UNL     1       2.450  11.025  17.882  0.00  0.00    +0.000 OA
ENDBRANCH  20  23
ENDBRANCH   4  17
TORSDOF 2
ENDMDL
MODEL 8
REMARK VINA RESULT:      -7.2      9.069     10.739
REMARK  Name = 
REMARK  3 active torsions:
REMARK  status: ('A' for Active; 'I' for Inactive)
REMARK    1  A    between atoms: C_1  and  N_2
REMARK    2  A    between atoms: C_4  and  C_5
REMARK    3  A    between atoms: C_8  and  N_9
REMARK                            x       y       z     vdW  Elec       q    Type
REMARK                         _______ _______ _______ _____ _____    ______ ____
ROOT
ATOM      1  C   UNL     1       8.209  15.706  23.264  0.00  0.00    +0.000 C 
ATOM      2  N   UNL     1       9.089  15.476  22.107  0.00  0.00    +0.000 N 
ATOM      3  C   UNL     1       9.038  14.475  21.220  0.00  0.00    +0.000 C 
ATOM      4  C   UNL     1       8.793  13.069  21.485  0.00  0.00    +0.000 C 
ATOM      5  N   UNL     1       9.274  12.137  20.664  0.00  0.00    +0.000 N 
ATOM      6  O   UNL     1       9.065  10.891  20.855  0.00  0.00    +0.000 OA
ATOM      7  C   UNL     1      10.099  12.527  19.519  0.00  0.00    +0.000 A 
ATOM      8  C   UNL     1      10.880  11.553  18.874  0.00  0.00    +0.000 A 
ATOM      9  C   UNL     1      11.636  11.890  17.755  0.00  0.00    +0.000 A 
ATOM     10  C   UNL     1      11.590  13.192  17.266  0.00  0.00    +0.000 A 
ATOM     11  C   UNL     1      10.816  14.155  17.917  0.00  0.00    +0.000 A 
ATOM     12  C   UNL     1      10.093  13.854  19.083  0.00  0.00    +0.000 A 
ATOM     13  N   UNL     1       9.444  14.806  19.881  0.00  0.00    +0.000 N 
ATOM     14  C   UNL     1       9.614  16.228  19.598  0.00  0.00    +0.000 C 
ATOM     15  C   UNL     1      10.693  16.682  20.551  0.00  0.00    +0.000 C 
ATOM     16  C   UNL     1      10.190  16.486  21.965  0.00  0.00    +0.000 C 
ENDROOT
BRANCH   4  17
ATOM     17  C   UNL     1       8.067  12.604  22.709  0.00  0.00    +0.000 A 
ATOM     18  C   UNL     1       8.757  12.219  23.862  0.00  0.00    +0.000 A 
ATOM     19  C   UNL     1       8.068  11.708  24.974  0.00  0.00    +0.000 A 
ATOM     20  C   UNL     1       6.666  11.711  24.984  0.00  0.00    +0.000 A 
ATOM     21  C   UNL     1       5.957  12.201  23.885  0.00  0.00    +0.000 A 
ATOM     22  C   UNL     1       6.660  12.607  22.740  0.00  0.00    +0.000 A 
BRANCH  20  23
ATOM     23  N   UNL     1       5.939  11.203  26.154  0.00  0.00    +0.000 N 
ATOM     24  O   UNL     1       6.549  11.167  27.231  0.00  0.00    +0.000 OA
ATOM     25  O   UNL     1       4.777  10.810  25.985  0.00  0.00    +0.000 OA
ENDBRANCH  20  23
ENDBRANCH   4  17
TORSDOF 2
ENDMDL
MODEL 9
REMARK VINA RESULT:      -7.2      6.750     10.776
REMARK  Name = 
REMARK  3 active torsions:
REMARK  status: ('A' for Active; 'I' for Inactive)
REMARK    1  A    between atoms: C_1  and  N_2
REMARK    2  A    between atoms: C_4  and  C_5
REMARK    3  A    between atoms: C_8  and  N_9
REMARK                            x       y       z     vdW  Elec       q    Type
REMARK                         _______ _______ _______ _____ _____    ______ ____
ROOT
ATOM      1  C   UNL     1      -3.451  11.506  17.348  0.00  0.00    +0.000 C 
ATOM      2  N   UNL     1      -4.389  11.547  18.481  0.00  0.00    +0.000 N 
ATOM      3  C   UNL     1      -4.286  12.260  19.610  0.00  0.00    +0.000 C 
ATOM      4  C   UNL     1      -3.095  12.483  20.410  0.00  0.00    +0.000 C 
ATOM      5  N   UNL     1      -3.200  12.729  21.716  0.00  0.00    +0.000 N 
ATOM      6  O   UNL     1      -2.176  12.947  22.448  0.00  0.00    +0.000 OA
ATOM      7  C   UNL     1      -4.515  12.721  22.357  0.00  0.00    +0.000 A 
ATOM      8  C   UNL     1      -4.593  12.630  23.758  0.00  0.00    +0.000 A 
ATOM      9  C   UNL     1      -5.831  12.668  24.393  0.00  0.00    +0.000 A 
ATOM     10  C   UNL     1      -6.985  12.823  23.632  0.00  0.00    +0.000 A 
ATOM     11  C   UNL     1      -6.900  12.905  22.241  0.00  0.00    +0.000 A 
ATOM     12  C   UNL     1      -5.668  12.809  21.573  0.00  0.00    +0.000 A 
ATOM     13  N   UNL     1      -5.527  12.705  20.183  0.00  0.00    +0.000 N 
ATOM     14  C   UNL     1      -6.710  12.550  19.342  0.00  0.00    +0.000 C 
ATOM     15  C   UNL     1      -6.807  11.065  19.088  0.00  0.00    +0.000 C 
ATOM     16  C   UNL     1      -5.568  10.631  18.334  0.00  0.00    +0.000 C 
ENDROOT
BRANCH   4  17
ATOM     17  C   UNL     1      -1.717  12.375  19.835  0.00  0.00    +0.000 A 
ATOM     18  C   UNL     1      -1.032  11.158  19.810  0.00  0.00    +0.000 A 
ATOM     19  C   UNL     1       0.291  11.087  19.343  0.00  0.00    +0.000 A 
ATOM     20  C   UNL     1       0.885  12.219  18.766  0.00  0.00    +0.000 A 
ATOM     21  C   UNL     1       0.172  13.417  18.677  0.00  0.00    +0.000 A 
ATOM     22  C   UNL     1      -1.107  13.499  19.246  0.00  0.00    +0.000 A 
BRANCH  20  23
ATOM     23  N   UNL     1       2.257  12.146  18.251  0.00  0.00    +0.000 N 
ATOM     24  O   UNL     1       2.939  13.179  18.297  0.00  0.00    +0.000 OA
ATOM     25  O   UNL     1       2.637  11.068  17.772  0.00  0.00    +0.000 OA
ENDBRANCH  20  23
ENDBRANCH   4  17
TORSDOF 2
ENDMDL
