MODEL 1
REMARK VINA RESULT:      -7.1      0.000      0.000
REMARK  Name = 
REMARK  7 active torsions:
REMARK  status: ('A' for Active; 'I' for Inactive)
REMARK    1  A    between atoms: C_1  and  C_2
REMARK    2  A    between atoms: C_2  and  C_3
REMARK    3  A    between atoms: C_2  and  N_4
REMARK    4  A    between atoms: N_7  and  C_8
REMARK    5  A    between atoms: C_8  and  C_9
REMARK    6  A    between atoms: C_9  and  C_10
REMARK    7  A    between atoms: C_10  and  C_11
REMARK                            x       y       z     vdW  Elec       q    Type
REMARK                         _______ _______ _______ _____ _____    ______ ____
ROOT
ATOM      1  C   UNL     1       7.100   4.794  16.847  0.00  0.00    +0.000 C 
ENDROOT
BRANCH   1   5
ATOM      2  N   UNL     1       6.131   3.259  13.686  0.00  0.00    +0.000 N 
ATOM      3  C   UNL     1       6.653   4.223  14.509  0.00  0.00    +0.000 C 
ATOM      4  O   UNL     1       7.061   5.311  14.109  0.00  0.00    +0.000 OA
ATOM      5  N   UNL     1       6.655   3.856  15.829  0.00  0.00    +0.000 N 
ATOM      6  H   UNL     1       6.117   2.311  14.035  0.00  0.00    +0.000 HD
ATOM      7  H   UNL     1       6.110   3.054  16.111  0.00  0.00    +0.000 HD
BRANCH   2   9
ATOM      8  C   UNL     1       7.034   2.526  11.503  0.00  0.00    +0.000 C 
ATOM      9  C   UNL     1       6.087   3.468  12.243  0.00  0.00    +0.000 C 
ATOM     10  C   UNL     1       4.664   3.303  11.724  0.00  0.00    +0.000 C 
ENDBRANCH   2   9
ENDBRANCH   1   5
BRANCH   1  11
ATOM     11  C   UNL     1       6.016   5.103  17.882  0.00  0.00    +0.000 C 
BRANCH  11  12
ATOM     12  C   UNL     1       4.658   5.330  17.206  0.00  0.00    +0.000 C 
BRANCH  12  13
ATOM     13  C   UNL     1       3.633   4.328  17.678  0.00  0.00    +0.000 A 
ATOM     14  C   UNL     1       2.284   4.690  17.801  0.00  0.00    +0.000 A 
ATOM     15  C   UNL     1       1.324   3.743  18.173  0.00  0.00    +0.000 A 
ATOM     16  C   UNL     1       1.707   2.427  18.423  0.00  0.00    +0.000 A 
ATOM     17  C   UNL     1       3.045   2.070  18.311  0.00  0.00    +0.000 A 
ATOM     18  F   UNL     1       3.415   0.805  18.549  0.00  0.00    +0.000 F 
ATOM     19  C   UNL     1       4.009   3.006  17.946  0.00  0.00    +0.000 A 
ENDBRANCH  12  13
ENDBRANCH  11  12
ENDBRANCH   1  11
TORSDOF 5
ENDMDL
MODEL 2
REMARK VINA RESULT:      -6.9      1.307      1.742
REMARK  Name = 
REMARK  7 active torsions:
REMARK  status: ('A' for Active; 'I' for Inactive)
REMARK    1  A    between atoms: C_1  and  C_2
REMARK    2  A    between atoms: C_2  and  C_3
REMARK    3  A    between atoms: C_2  and  N_4
REMARK    4  A    between atoms: N_7  and  C_8
REMARK    5  A    between atoms: C_8  and  C_9
REMARK    6  A    between atoms: C_9  and  C_10
REMARK    7  A    between atoms: C_10  and  C_11
REMARK                            x       y       z     vdW  Elec       q    Type
REMARK                         _______ _______ _______ _____ _____    ______ ____
ROOT
ATOM      1  C   UNL     1       6.938   4.983  16.755  0.00  0.00    +0.000 C 
ENDROOT
BRANCH   1   5
ATOM      2  N   UNL     1       5.989   3.313  13.657  0.00  0.00    +0.000 N 
ATOM      3  C   UNL     1       6.555   4.286  14.440  0.00  0.00    +0.000 C 
ATOM      4  O   UNL     1       7.078   5.302  13.990  0.00  0.00    +0.000 OA
ATOM      5  N   UNL     1       6.460   4.016  15.780  0.00  0.00    +0.000 N 
ATOM      6  H   UNL     1       5.873   2.398  14.068  0.00  0.00    +0.000 HD
ATOM      7  H   UNL     1       5.833   3.286  16.086  0.00  0.00    +0.000 HD
BRANCH   2   9
ATOM      8  C   UNL     1       6.970   2.384  11.585  0.00  0.00    +0.000 C 
ATOM      9  C   UNL     1       6.033   3.420  12.203  0.00  0.00    +0.000 C 
ATOM     10  C   UNL     1       4.634   3.285  11.616  0.00  0.00    +0.000 C 
ENDBRANCH   2   9
ENDBRANCH   1   5
BRANCH   1  11
ATOM     11  C   UNL     1       5.853   5.415  17.742  0.00  0.00    +0.000 C 
BRANCH  11  12
ATOM     12  C   UNL     1       5.562   4.306  18.761  0.00  0.00    +0.000 C 
BRANCH  12  13
ATOM     13  C   UNL     1       4.179   3.733  18.573  0.00  0.00    +0.000 A 
ATOM     14  C   UNL     1       3.847   2.477  19.102  0.00  0.00    +0.000 A 
ATOM     15  C   UNL     1       2.547   1.977  18.986  0.00  0.00    +0.000 A 
ATOM     16  C   UNL     1       1.567   2.730  18.343  0.00  0.00    +0.000 A 
ATOM     17  C   UNL     1       1.898   3.970  17.810  0.00  0.00    +0.000 A 
ATOM     18  F   UNL     1       0.957   4.697  17.193  0.00  0.00    +0.000 F 
ATOM     19  C   UNL     1       3.190   4.476  17.916  0.00  0.00    +0.000 A 
ENDBRANCH  12  13
ENDBRANCH  11  12
ENDBRANCH   1  11
TORSDOF 5
ENDMDL
MODEL 3
REMARK VINA RESULT:      -6.7      1.508      1.642
REMARK  Name = 
REMARK  7 active torsions:
REMARK  status: ('A' for Active; 'I' for Inactive)
REMARK    1  A    between atoms: C_1  and  C_2
REMARK    2  A    between atoms: C_2  and  C_3
REMARK    3  A    between atoms: C_2  and  N_4
REMARK    4  A    between atoms: N_7  and  C_8
REMARK    5  A    between atoms: C_8  and  C_9
REMARK    6  A    between atoms: C_9  and  C_10
REMARK    7  A    between atoms: C_10  and  C_11
REMARK                            x       y       z     vdW  Elec       q    Type
REMARK                         _______ _______ _______ _____ _____    ______ ____
ROOT
ATOM      1  C   UNL     1       6.647   4.752  17.424  0.00  0.00    +0.000 C 
ENDROOT
BRANCH   1   5
ATOM      2  N   UNL     1       6.296   3.537  14.006  0.00  0.00    +0.000 N 
ATOM      3  C   UNL     1       6.343   4.467  15.012  0.00  0.00    +0.000 C 
ATOM      4  O   UNL     1       6.127   5.664  14.843  0.00  0.00    +0.000 OA
ATOM      5  N   UNL     1       6.637   3.918  16.233  0.00  0.00    +0.000 N 
ATOM      6  H   UNL     1       6.780   2.664  14.159  0.00  0.00    +0.000 HD
ATOM      7  H   UNL     1       6.584   2.916  16.341  0.00  0.00    +0.000 HD
BRANCH   2   9
ATOM      8  C   UNL     1       7.310   3.997  11.797  0.00  0.00    +0.000 C 
ATOM      9  C   UNL     1       6.032   3.952  12.632  0.00  0.00    +0.000 C 
ATOM     10  C   UNL     1       5.009   3.029  11.984  0.00  0.00    +0.000 C 
ENDBRANCH   2   9
ENDBRANCH   1   5
BRANCH   1  11
ATOM     11  C   UNL     1       5.538   4.386  18.412  0.00  0.00    +0.000 C 
BRANCH  11  12
ATOM     12  C   UNL     1       4.310   5.285  18.219  0.00  0.00    +0.000 C 
BRANCH  12  13
ATOM     13  C   UNL     1       3.101   4.726  18.928  0.00  0.00    +0.000 A 
ATOM     14  C   UNL     1       2.582   5.361  20.066  0.00  0.00    +0.000 A 
ATOM     15  C   UNL     1       1.422   4.881  20.681  0.00  0.00    +0.000 A 
ATOM     16  C   UNL     1       0.770   3.764  20.162  0.00  0.00    +0.000 A 
ATOM     17  C   UNL     1       1.290   3.129  19.041  0.00  0.00    +0.000 A 
ATOM     18  F   UNL     1       0.664   2.057  18.539  0.00  0.00    +0.000 F 
ATOM     19  C   UNL     1       2.447   3.596  18.423  0.00  0.00    +0.000 A 
ENDBRANCH  12  13
ENDBRANCH  11  12
ENDBRANCH   1  11
TORSDOF 5
ENDMDL
MODEL 4
REMARK VINA RESULT:      -6.6      1.879      2.184
REMARK  Name = 
REMARK  7 active torsions:
REMARK  status: ('A' for Active; 'I' for Inactive)
REMARK    1  A    between atoms: C_1  and  C_2
REMARK    2  A    between atoms: C_2  and  C_3
REMARK    3  A    between atoms: C_2  and  N_4
REMARK    4  A    between atoms: N_7  and  C_8
REMARK    5  A    between atoms: C_8  and  C_9
REMARK    6  A    between atoms: C_9  and  C_10
REMARK    7  A    between atoms: C_10  and  C_11
REMARK                            x       y       z     vdW  Elec       q    Type
REMARK                         _______ _______ _______ _____ _____    ______ ____
ROOT
ATOM      1  C   UNL     1       6.685   4.725  17.329  0.00  0.00    +0.000 C 
ENDROOT
BRANCH   1   5
ATOM      2  N   UNL     1       6.273   3.398  13.959  0.00  0.00    +0.000 N 
ATOM      3  C   UNL     1       6.383   4.363  14.927  0.00  0.00    +0.000 C 
ATOM      4  O   UNL     1       6.265   5.565  14.705  0.00  0.00    +0.000 OA
ATOM      5  N   UNL     1       6.621   3.845  16.173  0.00  0.00    +0.000 N 
ATOM      6  H   UNL     1       6.684   2.497  14.155  0.00  0.00    +0.000 HD
ATOM      7  H   UNL     1       6.487   2.856  16.322  0.00  0.00    +0.000 HD
BRANCH   2   9
ATOM      8  C   UNL     1       7.352   4.218  11.890  0.00  0.00    +0.000 C 
ATOM      9  C   UNL     1       6.057   3.774  12.566  0.00  0.00    +0.000 C 
ATOM     10  C   UNL     1       5.425   2.622  11.796  0.00  0.00    +0.000 C 
ENDBRANCH   2   9
ENDBRANCH   1   5
BRANCH   1  11
ATOM     11  C   UNL     1       5.581   4.445  18.349  0.00  0.00    +0.000 C 
BRANCH  11  12
ATOM     12  C   UNL     1       4.396   3.724  17.694  0.00  0.00    +0.000 C 
BRANCH  12  13
ATOM     13  C   UNL     1       3.155   3.815  18.547  0.00  0.00    +0.000 A 
ATOM     14  C   UNL     1       2.227   2.763  18.575  0.00  0.00    +0.000 A 
ATOM     15  C   UNL     1       1.113   2.819  19.417  0.00  0.00    +0.000 A 
ATOM     16  C   UNL     1       0.919   3.926  20.241  0.00  0.00    +0.000 A 
ATOM     17  C   UNL     1       1.832   4.973  20.206  0.00  0.00    +0.000 A 
ATOM     18  F   UNL     1       1.648   6.037  20.999  0.00  0.00    +0.000 F 
ATOM     19  C   UNL     1       2.942   4.930  19.368  0.00  0.00    +0.000 A 
ENDBRANCH  12  13
ENDBRANCH  11  12
ENDBRANCH   1  11
TORSDOF 5
ENDMDL
MODEL 5
REMARK VINA RESULT:      -6.5      2.292      2.998
REMARK  Name = 
REMARK  7 active torsions:
REMARK  status: ('A' for Active; 'I' for Inactive)
REMARK    1  A    between atoms: C_1  and  C_2
REMARK    2  A    between atoms: C_2  and  C_3
REMARK    3  A    between atoms: C_2  and  N_4
REMARK    4  A    between atoms: N_7  and  C_8
REMARK    5  A    between atoms: C_8  and  C_9
REMARK    6  A    between atoms: C_9  and  C_10
REMARK    7  A    between atoms: C_10  and  C_11
REMARK                            x       y       z     vdW  Elec       q    Type
REMARK                         _______ _______ _______ _____ _____    ______ ____
ROOT
ATOM      1  C   UNL     1       4.426   6.213  17.922  0.00  0.00    +0.000 C 
ENDROOT
BRANCH   1   5
ATOM      2  N   UNL     1       6.097   5.586  14.744  0.00  0.00    +0.000 N 
ATOM      3  C   UNL     1       5.672   5.311  16.018  0.00  0.00    +0.000 C 
ATOM      4  O   UNL     1       5.969   4.287  16.627  0.00  0.00    +0.000 OA
ATOM      5  N   UNL     1       4.895   6.307  16.549  0.00  0.00    +0.000 N 
ATOM      6  H   UNL     1       5.569   6.267  14.217  0.00  0.00    +0.000 HD
ATOM      7  H   UNL     1       4.874   7.205  16.088  0.00  0.00    +0.000 HD
BRANCH   2   9
ATOM      8  C   UNL     1       6.037   3.635  13.223  0.00  0.00    +0.000 C 
ATOM      9  C   UNL     1       6.904   4.616  14.011  0.00  0.00    +0.000 C 
ATOM     10  C   UNL     1       7.877   5.327  13.081  0.00  0.00    +0.000 C 
ENDBRANCH   2   9
ENDBRANCH   1   5
BRANCH   1  11
ATOM     11  C   UNL     1       2.959   6.618  18.077  0.00  0.00    +0.000 C 
BRANCH  11  12
ATOM     12  C   UNL     1       2.515   6.529  19.542  0.00  0.00    +0.000 C 
BRANCH  12  13
ATOM     13  C   UNL     1       2.132   5.119  19.918  0.00  0.00    +0.000 A 
ATOM     14  C   UNL     1       2.396   4.625  21.203  0.00  0.00    +0.000 A 
ATOM     15  C   UNL     1       1.980   3.342  21.572  0.00  0.00    +0.000 A 
ATOM     16  C   UNL     1       1.294   2.544  20.658  0.00  0.00    +0.000 A 
ATOM     17  C   UNL     1       1.041   3.030  19.381  0.00  0.00    +0.000 A 
ATOM     18  F   UNL     1       0.381   2.265  18.502  0.00  0.00    +0.000 F 
ATOM     19  C   UNL     1       1.455   4.303  19.002  0.00  0.00    +0.000 A 
ENDBRANCH  12  13
ENDBRANCH  11  12
ENDBRANCH   1  11
TORSDOF 5
ENDMDL
MODEL 6
REMARK VINA RESULT:      -6.5      1.478      1.702
REMARK  Name = 
REMARK  7 active torsions:
REMARK  status: ('A' for Active; 'I' for Inactive)
REMARK    1  A    between atoms: C_1  and  C_2
REMARK    2  A    between atoms: C_2  and  C_3
REMARK    3  A    between atoms: C_2  and  N_4
REMARK    4  A    between atoms: N_7  and  C_8
REMARK    5  A    between atoms: C_8  and  C_9
REMARK    6  A    between atoms: C_9  and  C_10
REMARK    7  A    between atoms: C_10  and  C_11
REMARK                            x       y       z     vdW  Elec       q    Type
REMARK                         _______ _______ _______ _____ _____    ______ ____
ROOT
ATOM      1  C   UNL     1       6.851   4.695  16.936  0.00  0.00    +0.000 C 
ENDROOT
BRANCH   1   5
ATOM      2  N   UNL     1       6.033   3.220  13.706  0.00  0.00    +0.000 N 
ATOM      3  C   UNL     1       6.524   4.164  14.569  0.00  0.00    +0.000 C 
ATOM      4  O   UNL     1       6.970   5.249  14.208  0.00  0.00    +0.000 OA
ATOM      5  N   UNL     1       6.448   3.779  15.882  0.00  0.00    +0.000 N 
ATOM      6  H   UNL     1       5.984   2.267  14.039  0.00  0.00    +0.000 HD
ATOM      7  H   UNL     1       5.875   2.982  16.123  0.00  0.00    +0.000 HD
BRANCH   2   9
ATOM      8  C   UNL     1       6.990   2.456  11.556  0.00  0.00    +0.000 C 
ATOM      9  C   UNL     1       6.070   3.449  12.265  0.00  0.00    +0.000 C 
ATOM     10  C   UNL     1       4.666   3.381  11.678  0.00  0.00    +0.000 C 
ENDBRANCH   2   9
ENDBRANCH   1   5
BRANCH   1  11
ATOM     11  C   UNL     1       5.671   5.453  17.547  0.00  0.00    +0.000 C 
BRANCH  11  12
ATOM     12  C   UNL     1       4.337   4.924  17.004  0.00  0.00    +0.000 C 
BRANCH  12  13
ATOM     13  C   UNL     1       3.599   4.120  18.046  0.00  0.00    +0.000 A 
ATOM     14  C   UNL     1       3.262   2.780  17.809  0.00  0.00    +0.000 A 
ATOM     15  C   UNL     1       2.639   2.016  18.800  0.00  0.00    +0.000 A 
ATOM     16  C   UNL     1       2.349   2.587  20.038  0.00  0.00    +0.000 A 
ATOM     17  C   UNL     1       2.674   3.918  20.270  0.00  0.00    +0.000 A 
ATOM     18  F   UNL     1       2.398   4.467  21.460  0.00  0.00    +0.000 F 
ATOM     19  C   UNL     1       3.290   4.688  19.289  0.00  0.00    +0.000 A 
ENDBRANCH  12  13
ENDBRANCH  11  12
ENDBRANCH   1  11
TORSDOF 5
ENDMDL
MODEL 7
REMARK VINA RESULT:      -6.5      1.795      2.186
REMARK  Name = 
REMARK  7 active torsions:
REMARK  status: ('A' for Active; 'I' for Inactive)
REMARK    1  A    between atoms: C_1  and  C_2
REMARK    2  A    between atoms: C_2  and  C_3
REMARK    3  A    between atoms: C_2  and  N_4
REMARK    4  A    between atoms: N_7  and  C_8
REMARK    5  A    between atoms: C_8  and  C_9
REMARK    6  A    between atoms: C_9  and  C_10
REMARK    7  A    between atoms: C_10  and  C_11
REMARK                            x       y       z     vdW  Elec       q    Type
REMARK                         _______ _______ _______ _____ _____    ______ ____
ROOT
ATOM      1  C   UNL     1       6.609   6.065  18.393  0.00  0.00    +0.000 C 
ENDROOT
BRANCH   1   5
ATOM      2  N   UNL     1       6.602   5.433  14.803  0.00  0.00    +0.000 N 
ATOM      3  C   UNL     1       6.937   5.227  16.116  0.00  0.00    +0.000 C 
ATOM      4  O   UNL     1       7.732   4.368  16.488  0.00  0.00    +0.000 OA
ATOM      5  N   UNL     1       6.306   6.092  16.971  0.00  0.00    +0.000 N 
ATOM      6  H   UNL     1       5.737   5.921  14.617  0.00  0.00    +0.000 HD
ATOM      7  H   UNL     1       5.845   6.905  16.588  0.00  0.00    +0.000 HD
BRANCH   2   9
ATOM      8  C   UNL     1       6.074   3.719  13.100  0.00  0.00    +0.000 C 
ATOM      9  C   UNL     1       7.153   4.576  13.759  0.00  0.00    +0.000 C 
ATOM     10  C   UNL     1       7.879   5.411  12.713  0.00  0.00    +0.000 C 
ENDBRANCH   2   9
ENDBRANCH   1   5
BRANCH   1  11
ATOM     11  C   UNL     1       5.600   5.246  19.199  0.00  0.00    +0.000 C 
BRANCH  11  12
ATOM     12  C   UNL     1       4.173   5.769  18.989  0.00  0.00    +0.000 C 
BRANCH  12  13
ATOM     13  C   UNL     1       3.144   4.745  19.397  0.00  0.00    +0.000 A 
ATOM     14  C   UNL     1       2.037   5.114  20.174  0.00  0.00    +0.000 A 
ATOM     15  C   UNL     1       1.048   4.178  20.495  0.00  0.00    +0.000 A 
ATOM     16  C   UNL     1       1.159   2.866  20.039  0.00  0.00    +0.000 A 
ATOM     17  C   UNL     1       2.261   2.497  19.277  0.00  0.00    +0.000 A 
ATOM     18  F   UNL     1       2.368   1.237  18.836  0.00  0.00    +0.000 F 
ATOM     19  C   UNL     1       3.253   3.419  18.956  0.00  0.00    +0.000 A 
ENDBRANCH  12  13
ENDBRANCH  11  12
ENDBRANCH   1  11
TORSDOF 5
ENDMDL
MODEL 8
REMARK VINA RESULT:      -6.5      3.122      6.540
REMARK  Name = 
REMARK  7 active torsions:
REMARK  status: ('A' for Active; 'I' for Inactive)
REMARK    1  A    between atoms: C_1  and  C_2
REMARK    2  A    between atoms: C_2  and  C_3
REMARK    3  A    between atoms: C_2  and  N_4
REMARK    4  A    between atoms: N_7  and  C_8
REMARK    5  A    between atoms: C_8  and  C_9
REMARK    6  A    between atoms: C_9  and  C_10
REMARK    7  A    between atoms: C_10  and  C_11
REMARK                            x       y       z     vdW  Elec       q    Type
REMARK                         _______ _______ _______ _____ _____    ______ ____
ROOT
ATOM      1  C   UNL     1       6.575   4.669  18.325  0.00  0.00    +0.000 C 
ENDROOT
BRANCH   1   5
ATOM      2  N   UNL     1       3.130   3.922  19.250  0.00  0.00    +0.000 N 
ATOM      3  C   UNL     1       4.492   3.767  19.241  0.00  0.00    +0.000 C 
ATOM      4  O   UNL     1       5.076   2.854  19.817  0.00  0.00    +0.000 OA
ATOM      5  N   UNL     1       5.134   4.729  18.506  0.00  0.00    +0.000 N 
ATOM      6  H   UNL     1       2.766   4.838  19.032  0.00  0.00    +0.000 HD
ATOM      7  H   UNL     1       4.590   5.311  17.885  0.00  0.00    +0.000 HD
BRANCH   2   9
ATOM      8  C   UNL     1       1.926   3.580  21.383  0.00  0.00    +0.000 C 
ATOM      9  C   UNL     1       2.290   3.006  20.015  0.00  0.00    +0.000 C 
ATOM     10  C   UNL     1       1.029   2.661  19.234  0.00  0.00    +0.000 C 
ENDBRANCH   2   9
ENDBRANCH   1   5
BRANCH   1  11
ATOM     11  C   UNL     1       6.995   4.812  16.861  0.00  0.00    +0.000 C 
BRANCH  11  12
ATOM     12  C   UNL     1       5.790   4.655  15.925  0.00  0.00    +0.000 C 
BRANCH  12  13
ATOM     13  C   UNL     1       6.225   4.498  14.488  0.00  0.00    +0.000 A 
ATOM     14  C   UNL     1       7.326   5.210  13.993  0.00  0.00    +0.000 A 
ATOM     15  C   UNL     1       7.770   5.013  12.682  0.00  0.00    +0.000 A 
ATOM     16  C   UNL     1       7.117   4.100  11.856  0.00  0.00    +0.000 A 
ATOM     17  C   UNL     1       6.019   3.402  12.344  0.00  0.00    +0.000 A 
ATOM     18  F   UNL     1       5.391   2.522  11.552  0.00  0.00    +0.000 F 
ATOM     19  C   UNL     1       5.566   3.593  13.646  0.00  0.00    +0.000 A 
ENDBRANCH  12  13
ENDBRANCH  11  12
ENDBRANCH   1  11
TORSDOF 5
ENDMDL
MODEL 9
REMARK VINA RESULT:      -6.5      3.415      6.706
REMARK  Name = 
REMARK  7 active torsions:
REMARK  status: ('A' for Active; 'I' for Inactive)
REMARK    1  A    between atoms: C_1  and  C_2
REMARK    2  A    between atoms: C_2  and  C_3
REMARK    3  A    between atoms: C_2  and  N_4
REMARK    4  A    between atoms: N_7  and  C_8
REMARK    5  A    between atoms: C_8  and  C_9
REMARK    6  A    between atoms: C_9  and  C_10
REMARK    7  A    between atoms: C_10  and  C_11
REMARK                            x       y       z     vdW  Elec       q    Type
REMARK                         _______ _______ _______ _____ _____    ______ ____
ROOT
ATOM      1  C   UNL     1       6.731   4.786  18.455  0.00  0.00    +0.000 C 
ENDROOT
BRANCH   1   5
ATOM      2  N   UNL     1       3.603   3.253  19.529  0.00  0.00    +0.000 N 
ATOM      3  C   UNL     1       4.499   4.268  19.318  0.00  0.00    +0.000 C 
ATOM      4  O   UNL     1       4.308   5.428  19.673  0.00  0.00    +0.000 OA
ATOM      5  N   UNL     1       5.640   3.851  18.685  0.00  0.00    +0.000 N 
ATOM      6  H   UNL     1       3.689   2.431  18.947  0.00  0.00    +0.000 HD
ATOM      7  H   UNL     1       5.827   2.861  18.621  0.00  0.00    +0.000 HD
BRANCH   2   9
ATOM      8  C   UNL     1       1.147   3.148  19.249  0.00  0.00    +0.000 C 
ATOM      9  C   UNL     1       2.315   3.525  20.158  0.00  0.00    +0.000 C 
ATOM     10  C   UNL     1       2.207   2.793  21.490  0.00  0.00    +0.000 C 
ENDBRANCH   2   9
ENDBRANCH   1   5
BRANCH   1  11
ATOM     11  C   UNL     1       7.066   4.952  16.972  0.00  0.00    +0.000 C 
BRANCH  11  12
ATOM     12  C   UNL     1       6.035   4.236  16.090  0.00  0.00    +0.000 C 
BRANCH  12  13
ATOM     13  C   UNL     1       6.447   4.247  14.639  0.00  0.00    +0.000 A 
ATOM     14  C   UNL     1       5.814   3.411  13.709  0.00  0.00    +0.000 A 
ATOM     15  C   UNL     1       6.150   3.472  12.353  0.00  0.00    +0.000 A 
ATOM     16  C   UNL     1       7.121   4.371  11.916  0.00  0.00    +0.000 A 
ATOM     17  C   UNL     1       7.756   5.192  12.839  0.00  0.00    +0.000 A 
ATOM     18  F   UNL     1       8.688   6.059  12.422  0.00  0.00    +0.000 F 
ATOM     19  C   UNL     1       7.433   5.138  14.192  0.00  0.00    +0.000 A 
ENDBRANCH  12  13
ENDBRANCH  11  12
ENDBRANCH   1  11
TORSDOF 5
ENDMDL
