MODEL 1
REMARK VINA RESULT:      -8.7      0.000      0.000
REMARK  Name = 
REMARK  4 active torsions:
REMARK  status: ('A' for Active; 'I' for Inactive)
REMARK    1  A    between atoms: C_6  and  O_7
REMARK    2  A    between atoms: O_7  and  C_8
REMARK    3  A    between atoms: C_8  and  C_9
REMARK    4  A    between atoms: C_12  and  N_13
REMARK                            x       y       z     vdW  Elec       q    Type
REMARK                         _______ _______ _______ _____ _____    ______ ____
ROOT
ATOM      1  O   UNL     1       5.094   2.113  20.474  0.00  0.00    +0.000 OA
ATOM      2  C   UNL     1       4.873   3.033  19.698  0.00  0.00    +0.000 A 
ATOM      3  O   UNL     1       5.897   3.889  19.283  0.00  0.00    +0.000 OA
ATOM      4  C   UNL     1       5.659   4.981  18.424  0.00  0.00    +0.000 A 
ATOM      5  C   UNL     1       6.726   5.844  18.127  0.00  0.00    +0.000 A 
ATOM      6  C   UNL     1       6.498   6.972  17.327  0.00  0.00    +0.000 A 
ATOM      7  C   UNL     1       5.235   7.167  16.776  0.00  0.00    +0.000 A 
ATOM      8  C   UNL     1       4.192   6.301  17.079  0.00  0.00    +0.000 A 
ATOM      9  C   UNL     1       4.382   5.200  17.918  0.00  0.00    +0.000 A 
ATOM     10  C   UNL     1       3.280   4.300  18.288  0.00  0.00    +0.000 A 
ATOM     11  C   UNL     1       3.508   3.291  19.141  0.00  0.00    +0.000 A 
ATOM     12  C   UNL     1       2.427   2.353  19.595  0.00  0.00    +0.000 C 
ATOM     13  C   UNL     1       1.010   2.572  19.050  0.00  0.00    +0.000 C 
ATOM     14  C   UNL     1       0.774   3.687  18.045  0.00  0.00    +0.000 C 
ATOM     15  C   UNL     1       1.941   4.586  17.685  0.00  0.00    +0.000 C 
ENDROOT
BRANCH   6  16
ATOM     16  O   UNL     1       7.541   7.846  17.147  0.00  0.00    +0.000 OA
BRANCH  16  17
ATOM     17  C   UNL     1       8.270   8.156  18.349  0.00  0.00    +0.000 C 
BRANCH  17  18
ATOM     18  C   UNL     1       8.620   9.622  18.476  0.00  0.00    +0.000 A 
ATOM     19  C   UNL     1       8.158  10.578  17.563  0.00  0.00    +0.000 A 
ATOM     20  C   UNL     1       8.556  11.910  17.672  0.00  0.00    +0.000 A 
ATOM     21  C   UNL     1       9.415  12.297  18.708  0.00  0.00    +0.000 A 
ATOM     22  C   UNL     1       9.857  11.363  19.654  0.00  0.00    +0.000 A 
ATOM     23  C   UNL     1       9.452  10.031  19.536  0.00  0.00    +0.000 A 
BRANCH  21  24
ATOM     24  N   UNL     1       9.874  13.688  18.791  0.00  0.00    +0.000 N 
ATOM     25  O   UNL     1      10.756  13.956  19.619  0.00  0.00    +0.000 OA
ATOM     26  O   UNL     1       9.348  14.515  18.033  0.00  0.00    +0.000 OA
ENDBRANCH  21  24
ENDBRANCH  17  18
ENDBRANCH  16  17
ENDBRANCH   6  16
TORSDOF 4
ENDMDL
MODEL 2
REMARK VINA RESULT:      -8.7      5.575      7.838
REMARK  Name = 
REMARK  4 active torsions:
REMARK  status: ('A' for Active; 'I' for Inactive)
REMARK    1  A    between atoms: C_6  and  O_7
REMARK    2  A    between atoms: O_7  and  C_8
REMARK    3  A    between atoms: C_8  and  C_9
REMARK    4  A    between atoms: C_12  and  N_13
REMARK                            x       y       z     vdW  Elec       q    Type
REMARK                         _______ _______ _______ _____ _____    ______ ____
ROOT
ATOM      1  O   UNL     1      -0.008  10.310  23.332  0.00  0.00    +0.000 OA
ATOM      2  C   UNL     1       0.394   9.970  22.228  0.00  0.00    +0.000 A 
ATOM      3  O   UNL     1       0.839   8.666  21.990  0.00  0.00    +0.000 OA
ATOM      4  C   UNL     1       1.346   8.263  20.739  0.00  0.00    +0.000 A 
ATOM      5  C   UNL     1       1.854   6.961  20.610  0.00  0.00    +0.000 A 
ATOM      6  C   UNL     1       2.423   6.560  19.394  0.00  0.00    +0.000 A 
ATOM      7  C   UNL     1       2.395   7.435  18.313  0.00  0.00    +0.000 A 
ATOM      8  C   UNL     1       1.886   8.719  18.458  0.00  0.00    +0.000 A 
ATOM      9  C   UNL     1       1.364   9.161  19.676  0.00  0.00    +0.000 A 
ATOM     10  C   UNL     1       0.864  10.531  19.862  0.00  0.00    +0.000 A 
ATOM     11  C   UNL     1       0.425  10.917  21.068  0.00  0.00    +0.000 A 
ATOM     12  C   UNL     1      -0.066  12.309  21.345  0.00  0.00    +0.000 C 
ATOM     13  C   UNL     1      -0.059  13.316  20.190  0.00  0.00    +0.000 C 
ATOM     14  C   UNL     1       0.393  12.854  18.815  0.00  0.00    +0.000 C 
ATOM     15  C   UNL     1       0.893  11.430  18.666  0.00  0.00    +0.000 C 
ENDROOT
BRANCH   6  16
ATOM     16  O   UNL     1       3.002   5.317  19.341  0.00  0.00    +0.000 OA
BRANCH  16  17
ATOM     17  C   UNL     1       4.438   5.325  19.459  0.00  0.00    +0.000 C 
BRANCH  17  18
ATOM     18  C   UNL     1       5.148   5.110  18.141  0.00  0.00    +0.000 A 
ATOM     19  C   UNL     1       6.511   5.385  17.979  0.00  0.00    +0.000 A 
ATOM     20  C   UNL     1       7.119   5.240  16.732  0.00  0.00    +0.000 A 
ATOM     21  C   UNL     1       6.363   4.804  15.637  0.00  0.00    +0.000 A 
ATOM     22  C   UNL     1       5.007   4.487  15.788  0.00  0.00    +0.000 A 
ATOM     23  C   UNL     1       4.408   4.636  17.041  0.00  0.00    +0.000 A 
BRANCH  21  24
ATOM     24  N   UNL     1       6.991   4.701  14.315  0.00  0.00    +0.000 N 
ATOM     25  O   UNL     1       7.931   5.468  14.063  0.00  0.00    +0.000 OA
ATOM     26  O   UNL     1       6.542   3.858  13.527  0.00  0.00    +0.000 OA
ENDBRANCH  21  24
ENDBRANCH  17  18
ENDBRANCH  16  17
ENDBRANCH   6  16
TORSDOF 4
ENDMDL
MODEL 3
REMARK VINA RESULT:      -8.6      5.141      7.621
REMARK  Name = 
REMARK  4 active torsions:
REMARK  status: ('A' for Active; 'I' for Inactive)
REMARK    1  A    between atoms: C_6  and  O_7
REMARK    2  A    between atoms: O_7  and  C_8
REMARK    3  A    between atoms: C_8  and  C_9
REMARK    4  A    between atoms: C_12  and  N_13
REMARK                            x       y       z     vdW  Elec       q    Type
REMARK                         _______ _______ _______ _____ _____    ______ ____
ROOT
ATOM      1  O   UNL     1       1.270  11.404  18.307  0.00  0.00    +0.000 OA
ATOM      2  C   UNL     1       1.330  10.353  18.930  0.00  0.00    +0.000 A 
ATOM      3  O   UNL     1       1.995   9.240  18.408  0.00  0.00    +0.000 OA
ATOM      4  C   UNL     1       2.041   8.007  19.089  0.00  0.00    +0.000 A 
ATOM      5  C   UNL     1       2.654   6.914  18.455  0.00  0.00    +0.000 A 
ATOM      6  C   UNL     1       2.654   5.663  19.085  0.00  0.00    +0.000 A 
ATOM      7  C   UNL     1       2.120   5.549  20.365  0.00  0.00    +0.000 A 
ATOM      8  C   UNL     1       1.520   6.641  20.978  0.00  0.00    +0.000 A 
ATOM      9  C   UNL     1       1.459   7.887  20.347  0.00  0.00    +0.000 A 
ATOM     10  C   UNL     1       0.787   9.042  20.959  0.00  0.00    +0.000 A 
ATOM     11  C   UNL     1       0.710  10.197  20.284  0.00  0.00    +0.000 A 
ATOM     12  C   UNL     1       0.010  11.409  20.828  0.00  0.00    +0.000 C 
ATOM     13  C   UNL     1      -0.639  11.303  22.213  0.00  0.00    +0.000 C 
ATOM     14  C   UNL     1      -0.501  10.005  22.990  0.00  0.00    +0.000 C 
ATOM     15  C   UNL     1       0.206   8.841  22.324  0.00  0.00    +0.000 C 
ENDROOT
BRANCH   6  16
ATOM     16  O   UNL     1       3.169   4.599  18.388  0.00  0.00    +0.000 OA
BRANCH  16  17
ATOM     17  C   UNL     1       4.584   4.401  18.565  0.00  0.00    +0.000 C 
BRANCH  17  18
ATOM     18  C   UNL     1       5.368   4.487  17.274  0.00  0.00    +0.000 A 
ATOM     19  C   UNL     1       6.730   4.807  17.253  0.00  0.00    +0.000 A 
ATOM     20  C   UNL     1       7.406   4.944  16.040  0.00  0.00    +0.000 A 
ATOM     21  C   UNL     1       6.719   4.748  14.835  0.00  0.00    +0.000 A 
ATOM     22  C   UNL     1       5.365   4.389  14.838  0.00  0.00    +0.000 A 
ATOM     23  C   UNL     1       4.698   4.254  16.058  0.00  0.00    +0.000 A 
BRANCH  21  24
ATOM     24  N   UNL     1       7.417   4.943  13.561  0.00  0.00    +0.000 N 
ATOM     25  O   UNL     1       8.346   5.763  13.532  0.00  0.00    +0.000 OA
ATOM     26  O   UNL     1       7.035   4.280  12.586  0.00  0.00    +0.000 OA
ENDBRANCH  21  24
ENDBRANCH  17  18
ENDBRANCH  16  17
ENDBRANCH   6  16
TORSDOF 4
ENDMDL
MODEL 4
REMARK VINA RESULT:      -8.6      6.061      8.206
REMARK  Name = 
REMARK  4 active torsions:
REMARK  status: ('A' for Active; 'I' for Inactive)
REMARK    1  A    between atoms: C_6  and  O_7
REMARK    2  A    between atoms: O_7  and  C_8
REMARK    3  A    between atoms: C_8  and  C_9
REMARK    4  A    between atoms: C_12  and  N_13
REMARK                            x       y       z     vdW  Elec       q    Type
REMARK                         _______ _______ _______ _____ _____    ______ ____
ROOT
ATOM      1  O   UNL     1      -0.824  10.546  23.450  0.00  0.00    +0.000 OA
ATOM      2  C   UNL     1      -0.375  10.280  22.344  0.00  0.00    +0.000 A 
ATOM      3  O   UNL     1       0.359   9.111  22.124  0.00  0.00    +0.000 OA
ATOM      4  C   UNL     1       0.922   8.804  20.869  0.00  0.00    +0.000 A 
ATOM      5  C   UNL     1       1.719   7.654  20.755  0.00  0.00    +0.000 A 
ATOM      6  C   UNL     1       2.342   7.365  19.534  0.00  0.00    +0.000 A 
ATOM      7  C   UNL     1       2.088   8.180  18.435  0.00  0.00    +0.000 A 
ATOM      8  C   UNL     1       1.295   9.312  18.565  0.00  0.00    +0.000 A 
ATOM      9  C   UNL     1       0.708   9.653  19.787  0.00  0.00    +0.000 A 
ATOM     10  C   UNL     1      -0.096  10.871  19.956  0.00  0.00    +0.000 A 
ATOM     11  C   UNL     1      -0.590  11.177  21.164  0.00  0.00    +0.000 A 
ATOM     12  C   UNL     1      -1.388  12.421  21.423  0.00  0.00    +0.000 C 
ATOM     13  C   UNL     1      -1.640  13.371  20.246  0.00  0.00    +0.000 C 
ATOM     14  C   UNL     1      -1.119  12.990  18.871  0.00  0.00    +0.000 C 
ATOM     15  C   UNL     1      -0.302  11.720  18.740  0.00  0.00    +0.000 C 
ENDROOT
BRANCH   6  16
ATOM     16  O   UNL     1       3.195   6.291  19.494  0.00  0.00    +0.000 OA
BRANCH  16  17
ATOM     17  C   UNL     1       2.894   5.331  18.464  0.00  0.00    +0.000 C 
BRANCH  17  18
ATOM     18  C   UNL     1       3.986   5.203  17.425  0.00  0.00    +0.000 A 
ATOM     19  C   UNL     1       4.814   6.279  17.082  0.00  0.00    +0.000 A 
ATOM     20  C   UNL     1       5.765   6.144  16.071  0.00  0.00    +0.000 A 
ATOM     21  C   UNL     1       5.901   4.921  15.402  0.00  0.00    +0.000 A 
ATOM     22  C   UNL     1       5.108   3.823  15.758  0.00  0.00    +0.000 A 
ATOM     23  C   UNL     1       4.159   3.968  16.771  0.00  0.00    +0.000 A 
BRANCH  21  24
ATOM     24  N   UNL     1       6.867   4.797  14.305  0.00  0.00    +0.000 N 
ATOM     25  O   UNL     1       7.867   5.528  14.332  0.00  0.00    +0.000 OA
ATOM     26  O   UNL     1       6.623   3.973  13.412  0.00  0.00    +0.000 OA
ENDBRANCH  21  24
ENDBRANCH  17  18
ENDBRANCH  16  17
ENDBRANCH   6  16
TORSDOF 4
ENDMDL
MODEL 5
REMARK VINA RESULT:      -8.5      4.978      7.364
REMARK  Name = 
REMARK  4 active torsions:
REMARK  status: ('A' for Active; 'I' for Inactive)
REMARK    1  A    between atoms: C_6  and  O_7
REMARK    2  A    between atoms: O_7  and  C_8
REMARK    3  A    between atoms: C_8  and  C_9
REMARK    4  A    between atoms: C_12  and  N_13
REMARK                            x       y       z     vdW  Elec       q    Type
REMARK                         _______ _______ _______ _____ _____    ______ ____
ROOT
ATOM      1  O   UNL     1       2.034  10.623  17.459  0.00  0.00    +0.000 OA
ATOM      2  C   UNL     1       1.939   9.700  18.256  0.00  0.00    +0.000 A 
ATOM      3  O   UNL     1       2.585   8.480  18.029  0.00  0.00    +0.000 OA
ATOM      4  C   UNL     1       2.456   7.389  18.911  0.00  0.00    +0.000 A 
ATOM      5  C   UNL     1       3.065   6.172  18.564  0.00  0.00    +0.000 A 
ATOM      6  C   UNL     1       2.895   5.056  19.393  0.00  0.00    +0.000 A 
ATOM      7  C   UNL     1       2.196   5.199  20.587  0.00  0.00    +0.000 A 
ATOM      8  C   UNL     1       1.602   6.410  20.915  0.00  0.00    +0.000 A 
ATOM      9  C   UNL     1       1.710   7.524  20.078  0.00  0.00    +0.000 A 
ATOM     10  C   UNL     1       1.050   8.800  20.384  0.00  0.00    +0.000 A 
ATOM     11  C   UNL     1       1.142   9.819  19.518  0.00  0.00    +0.000 A 
ATOM     12  C   UNL     1       0.466  11.140  19.743  0.00  0.00    +0.000 C 
ATOM     13  C   UNL     1      -0.360  11.315  21.023  0.00  0.00    +0.000 C 
ATOM     14  C   UNL     1      -0.416  10.172  22.023  0.00  0.00    +0.000 C 
ATOM     15  C   UNL     1       0.287   8.876  21.670  0.00  0.00    +0.000 C 
ENDROOT
BRANCH   6  16
ATOM     16  O   UNL     1       3.418   3.860  18.966  0.00  0.00    +0.000 OA
BRANCH  16  17
ATOM     17  C   UNL     1       4.857   3.818  18.938  0.00  0.00    +0.000 C 
BRANCH  17  18
ATOM     18  C   UNL     1       5.441   4.148  17.582  0.00  0.00    +0.000 A 
ATOM     19  C   UNL     1       4.756   3.874  16.393  0.00  0.00    +0.000 A 
ATOM     20  C   UNL     1       5.353   4.129  15.158  0.00  0.00    +0.000 A 
ATOM     21  C   UNL     1       6.642   4.674  15.108  0.00  0.00    +0.000 A 
ATOM     22  C   UNL     1       7.327   4.991  16.288  0.00  0.00    +0.000 A 
ATOM     23  C   UNL     1       6.721   4.732  17.518  0.00  0.00    +0.000 A 
BRANCH  21  24
ATOM     24  N   UNL     1       7.288   4.894  13.810  0.00  0.00    +0.000 N 
ATOM     25  O   UNL     1       8.235   5.692  13.765  0.00  0.00    +0.000 OA
ATOM     26  O   UNL     1       6.846   4.274  12.832  0.00  0.00    +0.000 OA
ENDBRANCH  21  24
ENDBRANCH  17  18
ENDBRANCH  16  17
ENDBRANCH   6  16
TORSDOF 4
ENDMDL
MODEL 6
REMARK VINA RESULT:      -8.4      6.374      8.111
REMARK  Name = 
REMARK  4 active torsions:
REMARK  status: ('A' for Active; 'I' for Inactive)
REMARK    1  A    between atoms: C_6  and  O_7
REMARK    2  A    between atoms: O_7  and  C_8
REMARK    3  A    between atoms: C_8  and  C_9
REMARK    4  A    between atoms: C_12  and  N_13
REMARK                            x       y       z     vdW  Elec       q    Type
REMARK                         _______ _______ _______ _____ _____    ______ ____
ROOT
ATOM      1  O   UNL     1       1.811   3.364  21.970  0.00  0.00    +0.000 OA
ATOM      2  C   UNL     1       2.045   4.150  21.063  0.00  0.00    +0.000 A 
ATOM      3  O   UNL     1       1.812   5.520  21.215  0.00  0.00    +0.000 OA
ATOM      4  C   UNL     1       2.034   6.439  20.170  0.00  0.00    +0.000 A 
ATOM      5  C   UNL     1       1.692   7.784  20.378  0.00  0.00    +0.000 A 
ATOM      6  C   UNL     1       1.843   8.703  19.331  0.00  0.00    +0.000 A 
ATOM      7  C   UNL     1       2.409   8.278  18.133  0.00  0.00    +0.000 A 
ATOM      8  C   UNL     1       2.744   6.944  17.946  0.00  0.00    +0.000 A 
ATOM      9  C   UNL     1       2.552   5.997  18.956  0.00  0.00    +0.000 A 
ATOM     10  C   UNL     1       2.856   4.573  18.762  0.00  0.00    +0.000 A 
ATOM     11  C   UNL     1       2.600   3.700  19.747  0.00  0.00    +0.000 A 
ATOM     12  C   UNL     1       2.849   2.226  19.610  0.00  0.00    +0.000 C 
ATOM     13  C   UNL     1       3.421   1.714  18.283  0.00  0.00    +0.000 C 
ATOM     14  C   UNL     1       3.756   2.718  17.192  0.00  0.00    +0.000 C 
ATOM     15  C   UNL     1       3.433   4.179  17.438  0.00  0.00    +0.000 C 
ENDROOT
BRANCH   6  16
ATOM     16  O   UNL     1       1.399   9.986  19.540  0.00  0.00    +0.000 OA
BRANCH  16  17
ATOM     17  C   UNL     1       0.070  10.072  20.087  0.00  0.00    +0.000 C 
BRANCH  17  18
ATOM     18  C   UNL     1      -0.976  10.456  19.065  0.00  0.00    +0.000 A 
ATOM     19  C   UNL     1      -1.892  11.490  19.291  0.00  0.00    +0.000 A 
ATOM     20  C   UNL     1      -2.887  11.772  18.355  0.00  0.00    +0.000 A 
ATOM     21  C   UNL     1      -2.963  11.023  17.174  0.00  0.00    +0.000 A 
ATOM     22  C   UNL     1      -2.032  10.010  16.912  0.00  0.00    +0.000 A 
ATOM     23  C   UNL     1      -1.040   9.736  17.856  0.00  0.00    +0.000 A 
BRANCH  21  24
ATOM     24  N   UNL     1      -4.040  11.287  16.215  0.00  0.00    +0.000 N 
ATOM     25  O   UNL     1      -3.739  11.355  15.014  0.00  0.00    +0.000 OA
ATOM     26  O   UNL     1      -5.187  11.433  16.660  0.00  0.00    +0.000 OA
ENDBRANCH  21  24
ENDBRANCH  17  18
ENDBRANCH  16  17
ENDBRANCH   6  16
TORSDOF 4
ENDMDL
MODEL 7
REMARK VINA RESULT:      -8.3      6.450      8.271
REMARK  Name = 
REMARK  4 active torsions:
REMARK  status: ('A' for Active; 'I' for Inactive)
REMARK    1  A    between atoms: C_6  and  O_7
REMARK    2  A    between atoms: O_7  and  C_8
REMARK    3  A    between atoms: C_8  and  C_9
REMARK    4  A    between atoms: C_12  and  N_13
REMARK                            x       y       z     vdW  Elec       q    Type
REMARK                         _______ _______ _______ _____ _____    ______ ____
ROOT
ATOM      1  O   UNL     1       4.753   3.126  19.502  0.00  0.00    +0.000 OA
ATOM      2  C   UNL     1       4.424   4.205  19.029  0.00  0.00    +0.000 A 
ATOM      3  O   UNL     1       3.604   5.086  19.740  0.00  0.00    +0.000 OA
ATOM      4  C   UNL     1       3.178   6.315  19.198  0.00  0.00    +0.000 A 
ATOM      5  C   UNL     1       2.283   7.100  19.943  0.00  0.00    +0.000 A 
ATOM      6  C   UNL     1       1.795   8.295  19.397  0.00  0.00    +0.000 A 
ATOM      7  C   UNL     1       2.275   8.720  18.161  0.00  0.00    +0.000 A 
ATOM      8  C   UNL     1       3.161   7.931  17.440  0.00  0.00    +0.000 A 
ATOM      9  C   UNL     1       3.619   6.709  17.939  0.00  0.00    +0.000 A 
ATOM     10  C   UNL     1       4.521   5.839  17.171  0.00  0.00    +0.000 A 
ATOM     11  C   UNL     1       4.884   4.652  17.676  0.00  0.00    +0.000 A 
ATOM     12  C   UNL     1       5.772   3.693  16.936  0.00  0.00    +0.000 C 
ATOM     13  C   UNL     1       6.274   4.104  15.547  0.00  0.00    +0.000 C 
ATOM     14  C   UNL     1       5.897   5.473  15.006  0.00  0.00    +0.000 C 
ATOM     15  C   UNL     1       4.972   6.342  15.836  0.00  0.00    +0.000 C 
ENDROOT
BRANCH   6  16
ATOM     16  O   UNL     1       0.844   8.980  20.111  0.00  0.00    +0.000 OA
BRANCH  16  17
ATOM     17  C   UNL     1       0.721  10.370  19.756  0.00  0.00    +0.000 C 
BRANCH  17  18
ATOM     18  C   UNL     1      -0.632  10.726  19.183  0.00  0.00    +0.000 A 
ATOM     19  C   UNL     1      -1.454  11.696  19.768  0.00  0.00    +0.000 A 
ATOM     20  C   UNL     1      -2.725  11.950  19.253  0.00  0.00    +0.000 A 
ATOM     21  C   UNL     1      -3.178  11.238  18.136  0.00  0.00    +0.000 A 
ATOM     22  C   UNL     1      -2.355  10.291  17.513  0.00  0.00    +0.000 A 
ATOM     23  C   UNL     1      -1.084  10.044  18.037  0.00  0.00    +0.000 A 
BRANCH  21  24
ATOM     24  N   UNL     1      -4.534  11.470  17.627  0.00  0.00    +0.000 N 
ATOM     25  O   UNL     1      -4.666  11.673  16.411  0.00  0.00    +0.000 OA
ATOM     26  O   UNL     1      -5.467  11.456  18.442  0.00  0.00    +0.000 OA
ENDBRANCH  21  24
ENDBRANCH  17  18
ENDBRANCH  16  17
ENDBRANCH   6  16
TORSDOF 4
ENDMDL
MODEL 8
REMARK VINA RESULT:      -8.2      6.367      8.233
REMARK  Name = 
REMARK  4 active torsions:
REMARK  status: ('A' for Active; 'I' for Inactive)
REMARK    1  A    between atoms: C_6  and  O_7
REMARK    2  A    between atoms: O_7  and  C_8
REMARK    3  A    between atoms: C_8  and  C_9
REMARK    4  A    between atoms: C_12  and  N_13
REMARK                            x       y       z     vdW  Elec       q    Type
REMARK                         _______ _______ _______ _____ _____    ______ ____
ROOT
ATOM      1  O   UNL     1       3.477   2.759  18.991  0.00  0.00    +0.000 OA
ATOM      2  C   UNL     1       3.455   3.945  18.692  0.00  0.00    +0.000 A 
ATOM      3  O   UNL     1       2.730   4.868  19.452  0.00  0.00    +0.000 OA
ATOM      4  C   UNL     1       2.655   6.231  19.104  0.00  0.00    +0.000 A 
ATOM      5  C   UNL     1       1.834   7.074  19.869  0.00  0.00    +0.000 A 
ATOM      6  C   UNL     1       1.693   8.419  19.502  0.00  0.00    +0.000 A 
ATOM      7  C   UNL     1       2.438   8.911  18.435  0.00  0.00    +0.000 A 
ATOM      8  C   UNL     1       3.247   8.063  17.690  0.00  0.00    +0.000 A 
ATOM      9  C   UNL     1       3.361   6.706  18.002  0.00  0.00    +0.000 A 
ATOM     10  C   UNL     1       4.175   5.784  17.198  0.00  0.00    +0.000 A 
ATOM     11  C   UNL     1       4.204   4.481  17.512  0.00  0.00    +0.000 A 
ATOM     12  C   UNL     1       4.982   3.472  16.717  0.00  0.00    +0.000 C 
ATOM     13  C   UNL     1       5.771   3.970  15.500  0.00  0.00    +0.000 C 
ATOM     14  C   UNL     1       5.772   5.456  15.184  0.00  0.00    +0.000 C 
ATOM     15  C   UNL     1       4.925   6.373  16.045  0.00  0.00    +0.000 C 
ENDROOT
BRANCH   6  16
ATOM     16  O   UNL     1       0.801   9.183  20.213  0.00  0.00    +0.000 OA
BRANCH  16  17
ATOM     17  C   UNL     1       0.590  10.502  19.676  0.00  0.00    +0.000 C 
BRANCH  17  18
ATOM     18  C   UNL     1      -0.693  10.631  18.887  0.00  0.00    +0.000 A 
ATOM     19  C   UNL     1      -0.907   9.925  17.698  0.00  0.00    +0.000 A 
ATOM     20  C   UNL     1      -2.075  10.120  16.959  0.00  0.00    +0.000 A 
ATOM     21  C   UNL     1      -3.045  11.020  17.418  0.00  0.00    +0.000 A 
ATOM     22  C   UNL     1      -2.866  11.706  18.626  0.00  0.00    +0.000 A 
ATOM     23  C   UNL     1      -1.694  11.504  19.357  0.00  0.00    +0.000 A 
BRANCH  21  24
ATOM     24  N   UNL     1      -4.249  11.261  16.615  0.00  0.00    +0.000 N 
ATOM     25  O   UNL     1      -5.132  11.982  17.102  0.00  0.00    +0.000 OA
ATOM     26  O   UNL     1      -4.316  10.727  15.499  0.00  0.00    +0.000 OA
ENDBRANCH  21  24
ENDBRANCH  17  18
ENDBRANCH  16  17
ENDBRANCH   6  16
TORSDOF 4
ENDMDL
MODEL 9
REMARK VINA RESULT:      -8.1      6.113      8.269
REMARK  Name = 
REMARK  4 active torsions:
REMARK  status: ('A' for Active; 'I' for Inactive)
REMARK    1  A    between atoms: C_6  and  O_7
REMARK    2  A    between atoms: O_7  and  C_8
REMARK    3  A    between atoms: C_8  and  C_9
REMARK    4  A    between atoms: C_12  and  N_13
REMARK                            x       y       z     vdW  Elec       q    Type
REMARK                         _______ _______ _______ _____ _____    ______ ____
ROOT
ATOM      1  O   UNL     1      -0.291  12.688  18.279  0.00  0.00    +0.000 OA
ATOM      2  C   UNL     1      -0.030  11.735  19.000  0.00  0.00    +0.000 A 
ATOM      3  O   UNL     1       0.750  10.670  18.538  0.00  0.00    +0.000 OA
ATOM      4  C   UNL     1       1.028   9.543  19.336  0.00  0.00    +0.000 A 
ATOM      5  C   UNL     1       1.744   8.479  18.765  0.00  0.00    +0.000 A 
ATOM      6  C   UNL     1       1.975   7.321  19.519  0.00  0.00    +0.000 A 
ATOM      7  C   UNL     1       1.562   7.284  20.848  0.00  0.00    +0.000 A 
ATOM      8  C   UNL     1       0.857   8.347  21.396  0.00  0.00    +0.000 A 
ATOM      9  C   UNL     1       0.566   9.490  20.648  0.00  0.00    +0.000 A 
ATOM     10  C   UNL     1      -0.219  10.605  21.196  0.00  0.00    +0.000 A 
ATOM     11  C   UNL     1      -0.516  11.653  20.415  0.00  0.00    +0.000 A 
ATOM     12  C   UNL     1      -1.343  12.812  20.891  0.00  0.00    +0.000 C 
ATOM     13  C   UNL     1      -1.862  12.779  22.333  0.00  0.00    +0.000 C 
ATOM     14  C   UNL     1      -1.478  11.611  23.225  0.00  0.00    +0.000 C 
ATOM     15  C   UNL     1      -0.660  10.486  22.621  0.00  0.00    +0.000 C 
ENDROOT
BRANCH   6  16
ATOM     16  O   UNL     1       2.586   6.264  18.892  0.00  0.00    +0.000 OA
BRANCH  16  17
ATOM     17  C   UNL     1       4.002   6.165  19.137  0.00  0.00    +0.000 C 
BRANCH  17  18
ATOM     18  C   UNL     1       4.808   5.879  17.890  0.00  0.00    +0.000 A 
ATOM     19  C   UNL     1       4.660   6.635  16.721  0.00  0.00    +0.000 A 
ATOM     20  C   UNL     1       5.370   6.301  15.568  0.00  0.00    +0.000 A 
ATOM     21  C   UNL     1       6.246   5.208  15.583  0.00  0.00    +0.000 A 
ATOM     22  C   UNL     1       6.436   4.463  16.754  0.00  0.00    +0.000 A 
ATOM     23  C   UNL     1       5.720   4.807  17.903  0.00  0.00    +0.000 A 
BRANCH  21  24
ATOM     24  N   UNL     1       6.953   4.826  14.356  0.00  0.00    +0.000 N 
ATOM     25  O   UNL     1       7.845   5.582  13.946  0.00  0.00    +0.000 OA
ATOM     26  O   UNL     1       6.613   3.774  13.797  0.00  0.00    +0.000 OA
ENDBRANCH  21  24
ENDBRANCH  17  18
ENDBRANCH  16  17
ENDBRANCH   6  16
TORSDOF 4
ENDMDL
