MODEL 1
REMARK VINA RESULT:      -7.9      0.000      0.000
REMARK  Name = 
REMARK  6 active torsions:
REMARK  status: ('A' for Active; 'I' for Inactive)
REMARK    1  A    between atoms: C_1  and  C_2
REMARK    2  A    between atoms: C_4  and  C_5
REMARK    3  A    between atoms: C_5  and  O_6
REMARK    4  A    between atoms: O_6  and  C_7
REMARK    5  A    between atoms: C_11  and  C_12
REMARK    6  A    between atoms: N_14  and  C_15
REMARK                            x       y       z     vdW  Elec       q    Type
REMARK                         _______ _______ _______ _____ _____    ______ ____
ROOT
ATOM      1  C   UNL     1       4.761   4.401  19.137  0.00  0.00    +0.000 A 
ATOM      2  C   UNL     1       3.951   3.275  19.319  0.00  0.00    +0.000 A 
ATOM      3  C   UNL     1       2.608   3.424  19.657  0.00  0.00    +0.000 A 
ATOM      4  C   UNL     1       2.066   4.701  19.797  0.00  0.00    +0.000 A 
ATOM      5  C   UNL     1       2.863   5.839  19.586  0.00  0.00    +0.000 A 
ATOM      6  C   UNL     1       4.217   5.680  19.259  0.00  0.00    +0.000 A 
ENDROOT
BRANCH   5   7
ATOM      7  C   UNL     1       2.212   7.178  19.730  0.00  0.00    +0.000 C 
ATOM      8  O   UNL     1       2.153   7.927  18.762  0.00  0.00    +0.000 OA
ATOM      9  N   UNL     1       1.720   7.511  20.982  0.00  0.00    +0.000 N 
ATOM     10  H   UNL     1       1.846   6.888  21.766  0.00  0.00    +0.000 HD
BRANCH   9  11
ATOM     11  C   UNL     1       1.100   8.776  21.236  0.00  0.00    +0.000 C 
ATOM     12  C   UNL     1      -0.292   8.843  21.807  0.00  0.00    +0.000 C 
ATOM     13  C   UNL     1       0.881   9.258  22.644  0.00  0.00    +0.000 C 
ENDBRANCH   9  11
ENDBRANCH   5   7
BRANCH   1  14
ATOM     14  O   UNL     1       6.040   4.125  18.753  0.00  0.00    +0.000 OA
BRANCH  14  15
ATOM     15  C   UNL     1       6.807   5.189  18.186  0.00  0.00    +0.000 C 
BRANCH  15  19
ATOM     16  C   UNL     1       6.207   3.739  13.335  0.00  0.00    +0.000 C 
ATOM     17  C   UNL     1       6.588   4.385  14.608  0.00  0.00    +0.000 A 
ATOM     18  C   UNL     1       6.165   4.049  15.908  0.00  0.00    +0.000 A 
ATOM     19  C   UNL     1       6.806   4.943  16.723  0.00  0.00    +0.000 A 
ATOM     20  O   UNL     1       7.571   5.774  15.962  0.00  0.00    +0.000 OA
ATOM     21  N   UNL     1       7.435   5.423  14.627  0.00  0.00    +0.000 NA
ENDBRANCH  15  19
ENDBRANCH  14  15
ENDBRANCH   1  14
TORSDOF 5
ENDMDL
MODEL 2
REMARK VINA RESULT:      -7.8      2.787      7.584
REMARK  Name = 
REMARK  6 active torsions:
REMARK  status: ('A' for Active; 'I' for Inactive)
REMARK    1  A    between atoms: C_1  and  C_2
REMARK    2  A    between atoms: C_4  and  C_5
REMARK    3  A    between atoms: C_5  and  O_6
REMARK    4  A    between atoms: O_6  and  C_7
REMARK    5  A    between atoms: C_11  and  C_12
REMARK    6  A    between atoms: N_14  and  C_15
REMARK                            x       y       z     vdW  Elec       q    Type
REMARK                         _______ _______ _______ _____ _____    ______ ____
ROOT
ATOM      1  C   UNL     1       5.063   5.619  17.734  0.00  0.00    +0.000 A 
ATOM      2  C   UNL     1       6.137   5.310  18.574  0.00  0.00    +0.000 A 
ATOM      3  C   UNL     1       7.319   4.797  18.044  0.00  0.00    +0.000 A 
ATOM      4  C   UNL     1       7.435   4.607  16.667  0.00  0.00    +0.000 A 
ATOM      5  C   UNL     1       6.373   4.943  15.811  0.00  0.00    +0.000 A 
ATOM      6  C   UNL     1       5.183   5.447  16.355  0.00  0.00    +0.000 A 
ENDROOT
BRANCH   5   7
ATOM      7  C   UNL     1       6.573   4.736  14.343  0.00  0.00    +0.000 C 
ATOM      8  O   UNL     1       7.473   5.335  13.766  0.00  0.00    +0.000 OA
ATOM      9  N   UNL     1       5.697   3.874  13.701  0.00  0.00    +0.000 N 
ATOM     10  H   UNL     1       4.932   3.451  14.203  0.00  0.00    +0.000 HD
BRANCH   9  11
ATOM     11  C   UNL     1       5.783   3.623  12.294  0.00  0.00    +0.000 C 
ATOM     12  C   UNL     1       5.672   2.219  11.762  0.00  0.00    +0.000 C 
ATOM     13  C   UNL     1       4.570   3.205  11.510  0.00  0.00    +0.000 C 
ENDBRANCH   9  11
ENDBRANCH   5   7
BRANCH   1  14
ATOM     14  O   UNL     1       3.986   6.167  18.367  0.00  0.00    +0.000 OA
BRANCH  14  15
ATOM     15  C   UNL     1       2.686   5.813  17.890  0.00  0.00    +0.000 C 
BRANCH  15  19
ATOM     16  C   UNL     1       1.461   2.642  21.689  0.00  0.00    +0.000 C 
ATOM     17  C   UNL     1       1.603   3.373  20.413  0.00  0.00    +0.000 A 
ATOM     18  C   UNL     1       2.427   4.481  20.139  0.00  0.00    +0.000 A 
ATOM     19  C   UNL     1       2.192   4.770  18.822  0.00  0.00    +0.000 A 
ATOM     20  O   UNL     1       1.277   3.891  18.326  0.00  0.00    +0.000 OA
ATOM     21  N   UNL     1       0.904   3.008  19.329  0.00  0.00    +0.000 NA
ENDBRANCH  15  19
ENDBRANCH  14  15
ENDBRANCH   1  14
TORSDOF 5
ENDMDL
MODEL 3
REMARK VINA RESULT:      -7.4      2.639      7.369
REMARK  Name = 
REMARK  6 active torsions:
REMARK  status: ('A' for Active; 'I' for Inactive)
REMARK    1  A    between atoms: C_1  and  C_2
REMARK    2  A    between atoms: C_4  and  C_5
REMARK    3  A    between atoms: C_5  and  O_6
REMARK    4  A    between atoms: O_6  and  C_7
REMARK    5  A    between atoms: C_11  and  C_12
REMARK    6  A    between atoms: N_14  and  C_15
REMARK                            x       y       z     vdW  Elec       q    Type
REMARK                         _______ _______ _______ _____ _____    ______ ____
ROOT
ATOM      1  C   UNL     1       5.126   5.965  17.542  0.00  0.00    +0.000 A 
ATOM      2  C   UNL     1       6.072   5.540  18.479  0.00  0.00    +0.000 A 
ATOM      3  C   UNL     1       7.210   4.850  18.065  0.00  0.00    +0.000 A 
ATOM      4  C   UNL     1       7.412   4.598  16.709  0.00  0.00    +0.000 A 
ATOM      5  C   UNL     1       6.483   5.048  15.756  0.00  0.00    +0.000 A 
ATOM      6  C   UNL     1       5.334   5.730  16.183  0.00  0.00    +0.000 A 
ENDROOT
BRANCH   5   7
ATOM      7  C   UNL     1       6.773   4.764  14.316  0.00  0.00    +0.000 C 
ATOM      8  O   UNL     1       7.720   5.318  13.771  0.00  0.00    +0.000 OA
ATOM      9  N   UNL     1       5.924   3.886  13.661  0.00  0.00    +0.000 N 
ATOM     10  H   UNL     1       5.119   3.501  14.132  0.00  0.00    +0.000 HD
BRANCH   9  11
ATOM     11  C   UNL     1       6.095   3.563  12.276  0.00  0.00    +0.000 C 
ATOM     12  C   UNL     1       5.977   2.138  11.806  0.00  0.00    +0.000 C 
ATOM     13  C   UNL     1       4.925   3.140  11.433  0.00  0.00    +0.000 C 
ENDBRANCH   9  11
ENDBRANCH   5   7
BRANCH   1  14
ATOM     14  O   UNL     1       4.088   6.678  18.065  0.00  0.00    +0.000 OA
BRANCH  14  15
ATOM     15  C   UNL     1       3.533   6.230  19.303  0.00  0.00    +0.000 C 
BRANCH  15  19
ATOM     16  C   UNL     1       0.539   2.120  18.939  0.00  0.00    +0.000 C 
ATOM     17  C   UNL     1       1.330   3.349  18.721  0.00  0.00    +0.000 A 
ATOM     18  C   UNL     1       2.133   4.035  19.652  0.00  0.00    +0.000 A 
ATOM     19  C   UNL     1       2.645   5.095  18.953  0.00  0.00    +0.000 A 
ATOM     20  O   UNL     1       2.177   5.056  17.674  0.00  0.00    +0.000 OA
ATOM     21  N   UNL     1       1.347   3.954  17.526  0.00  0.00    +0.000 NA
ENDBRANCH  15  19
ENDBRANCH  14  15
ENDBRANCH   1  14
TORSDOF 5
ENDMDL
MODEL 4
REMARK VINA RESULT:      -7.3      2.070      7.216
REMARK  Name = 
REMARK  6 active torsions:
REMARK  status: ('A' for Active; 'I' for Inactive)
REMARK    1  A    between atoms: C_1  and  C_2
REMARK    2  A    between atoms: C_4  and  C_5
REMARK    3  A    between atoms: C_5  and  O_6
REMARK    4  A    between atoms: O_6  and  C_7
REMARK    5  A    between atoms: C_11  and  C_12
REMARK    6  A    between atoms: N_14  and  C_15
REMARK                            x       y       z     vdW  Elec       q    Type
REMARK                         _______ _______ _______ _____ _____    ______ ____
ROOT
ATOM      1  C   UNL     1       5.481   4.369  18.234  0.00  0.00    +0.000 A 
ATOM      2  C   UNL     1       6.274   5.297  18.916  0.00  0.00    +0.000 A 
ATOM      3  C   UNL     1       7.242   6.030  18.232  0.00  0.00    +0.000 A 
ATOM      4  C   UNL     1       7.408   5.847  16.860  0.00  0.00    +0.000 A 
ATOM      5  C   UNL     1       6.596   4.939  16.159  0.00  0.00    +0.000 A 
ATOM      6  C   UNL     1       5.633   4.197  16.858  0.00  0.00    +0.000 A 
ENDROOT
BRANCH   5   7
ATOM      7  C   UNL     1       6.811   4.810  14.685  0.00  0.00    +0.000 C 
ATOM      8  O   UNL     1       7.712   5.444  14.149  0.00  0.00    +0.000 OA
ATOM      9  N   UNL     1       5.948   3.976  13.991  0.00  0.00    +0.000 N 
ATOM     10  H   UNL     1       5.181   3.522  14.463  0.00  0.00    +0.000 HD
BRANCH   9  11
ATOM     11  C   UNL     1       6.049   3.798  12.574  0.00  0.00    +0.000 C 
ATOM     12  C   UNL     1       6.085   2.415  11.979  0.00  0.00    +0.000 C 
ATOM     13  C   UNL     1       4.881   3.288  11.776  0.00  0.00    +0.000 C 
ENDBRANCH   9  11
ENDBRANCH   5   7
BRANCH   1  14
ATOM     14  O   UNL     1       4.534   3.758  19.002  0.00  0.00    +0.000 OA
BRANCH  14  15
ATOM     15  C   UNL     1       3.171   3.871  18.588  0.00  0.00    +0.000 C 
BRANCH  15  19
ATOM     16  C   UNL     1       2.053   8.816  18.051  0.00  0.00    +0.000 C 
ATOM     17  C   UNL     1       2.342   7.449  18.532  0.00  0.00    +0.000 A 
ATOM     18  C   UNL     1       2.673   6.316  17.766  0.00  0.00    +0.000 A 
ATOM     19  C   UNL     1       2.844   5.314  18.684  0.00  0.00    +0.000 A 
ATOM     20  O   UNL     1       2.626   5.811  19.934  0.00  0.00    +0.000 OA
ATOM     21  N   UNL     1       2.310   7.158  19.840  0.00  0.00    +0.000 NA
ENDBRANCH  15  19
ENDBRANCH  14  15
ENDBRANCH   1  14
TORSDOF 5
ENDMDL
MODEL 5
REMARK VINA RESULT:      -7.3      2.700      7.390
REMARK  Name = 
REMARK  6 active torsions:
REMARK  status: ('A' for Active; 'I' for Inactive)
REMARK    1  A    between atoms: C_1  and  C_2
REMARK    2  A    between atoms: C_4  and  C_5
REMARK    3  A    between atoms: C_5  and  O_6
REMARK    4  A    between atoms: O_6  and  C_7
REMARK    5  A    between atoms: C_11  and  C_12
REMARK    6  A    between atoms: N_14  and  C_15
REMARK                            x       y       z     vdW  Elec       q    Type
REMARK                         _______ _______ _______ _____ _____    ______ ____
ROOT
ATOM      1  C   UNL     1       5.074   5.765  17.553  0.00  0.00    +0.000 A 
ATOM      2  C   UNL     1       6.124   5.446  18.421  0.00  0.00    +0.000 A 
ATOM      3  C   UNL     1       7.294   4.874  17.927  0.00  0.00    +0.000 A 
ATOM      4  C   UNL     1       7.425   4.635  16.560  0.00  0.00    +0.000 A 
ATOM      5  C   UNL     1       6.389   4.979  15.675  0.00  0.00    +0.000 A 
ATOM      6  C   UNL     1       5.209   5.542  16.182  0.00  0.00    +0.000 A 
ENDROOT
BRANCH   5   7
ATOM      7  C   UNL     1       6.604   4.717  14.218  0.00  0.00    +0.000 C 
ATOM      8  O   UNL     1       7.513   5.291  13.629  0.00  0.00    +0.000 OA
ATOM      9  N   UNL     1       5.734   3.833  13.599  0.00  0.00    +0.000 N 
ATOM     10  H   UNL     1       4.962   3.431  14.109  0.00  0.00    +0.000 HD
BRANCH   9  11
ATOM     11  C   UNL     1       5.834   3.529  12.204  0.00  0.00    +0.000 C 
ATOM     12  C   UNL     1       5.658   2.115  11.717  0.00  0.00    +0.000 C 
ATOM     13  C   UNL     1       4.616   3.149  11.408  0.00  0.00    +0.000 C 
ENDBRANCH   9  11
ENDBRANCH   5   7
BRANCH   1  14
ATOM     14  O   UNL     1       4.008   6.370  18.149  0.00  0.00    +0.000 OA
BRANCH  14  15
ATOM     15  C   UNL     1       3.721   6.025  19.505  0.00  0.00    +0.000 C 
BRANCH  15  19
ATOM     16  C   UNL     1       0.568   2.097  18.723  0.00  0.00    +0.000 C 
ATOM     17  C   UNL     1       1.649   3.014  19.137  0.00  0.00    +0.000 A 
ATOM     18  C   UNL     1       1.803   4.373  18.803  0.00  0.00    +0.000 A 
ATOM     19  C   UNL     1       2.953   4.758  19.439  0.00  0.00    +0.000 A 
ATOM     20  O   UNL     1       3.467   3.694  20.117  0.00  0.00    +0.000 OA
ATOM     21  N   UNL     1       2.645   2.593  19.928  0.00  0.00    +0.000 NA
ENDBRANCH  15  19
ENDBRANCH  14  15
ENDBRANCH   1  14
TORSDOF 5
ENDMDL
MODEL 6
REMARK VINA RESULT:      -7.3      1.148      1.166
REMARK  Name = 
REMARK  6 active torsions:
REMARK  status: ('A' for Active; 'I' for Inactive)
REMARK    1  A    between atoms: C_1  and  C_2
REMARK    2  A    between atoms: C_4  and  C_5
REMARK    3  A    between atoms: C_5  and  O_6
REMARK    4  A    between atoms: O_6  and  C_7
REMARK    5  A    between atoms: C_11  and  C_12
REMARK    6  A    between atoms: N_14  and  C_15
REMARK                            x       y       z     vdW  Elec       q    Type
REMARK                         _______ _______ _______ _____ _____    ______ ____
ROOT
ATOM      1  C   UNL     1       4.430   4.739  18.840  0.00  0.00    +0.000 A 
ATOM      2  C   UNL     1       3.720   3.964  19.762  0.00  0.00    +0.000 A 
ATOM      3  C   UNL     1       2.570   4.469  20.366  0.00  0.00    +0.000 A 
ATOM      4  C   UNL     1       2.119   5.747  20.036  0.00  0.00    +0.000 A 
ATOM      5  C   UNL     1       2.808   6.522  19.089  0.00  0.00    +0.000 A 
ATOM      6  C   UNL     1       3.971   6.011  18.495  0.00  0.00    +0.000 A 
ENDROOT
BRANCH   5   7
ATOM      7  C   UNL     1       2.256   7.874  18.765  0.00  0.00    +0.000 C 
ATOM      8  O   UNL     1       2.480   8.370  17.666  0.00  0.00    +0.000 OA
ATOM      9  N   UNL     1       1.523   8.512  19.753  0.00  0.00    +0.000 N 
ATOM     10  H   UNL     1       1.416   8.093  20.664  0.00  0.00    +0.000 HD
BRANCH   9  11
ATOM     11  C   UNL     1       0.970   9.818  19.558  0.00  0.00    +0.000 C 
ATOM     12  C   UNL     1      -0.431  10.129  20.015  0.00  0.00    +0.000 C 
ATOM     13  C   UNL     1       0.743  10.741  20.723  0.00  0.00    +0.000 C 
ENDBRANCH   9  11
ENDBRANCH   5   7
BRANCH   1  14
ATOM     14  O   UNL     1       5.503   4.113  18.278  0.00  0.00    +0.000 OA
BRANCH  14  15
ATOM     15  C   UNL     1       6.593   4.927  17.840  0.00  0.00    +0.000 C 
BRANCH  15  19
ATOM     16  C   UNL     1       6.236   3.665  12.913  0.00  0.00    +0.000 C 
ATOM     17  C   UNL     1       6.554   4.260  14.228  0.00  0.00    +0.000 A 
ATOM     18  C   UNL     1       6.063   3.877  15.490  0.00  0.00    +0.000 A 
ATOM     19  C   UNL     1       6.666   4.736  16.371  0.00  0.00    +0.000 A 
ATOM     20  O   UNL     1       7.472   5.590  15.682  0.00  0.00    +0.000 OA
ATOM     21  N   UNL     1       7.403   5.291  14.329  0.00  0.00    +0.000 NA
ENDBRANCH  15  19
ENDBRANCH  14  15
ENDBRANCH   1  14
TORSDOF 5
ENDMDL
MODEL 7
REMARK VINA RESULT:      -7.3      1.523      1.733
REMARK  Name = 
REMARK  6 active torsions:
REMARK  status: ('A' for Active; 'I' for Inactive)
REMARK    1  A    between atoms: C_1  and  C_2
REMARK    2  A    between atoms: C_4  and  C_5
REMARK    3  A    between atoms: C_5  and  O_6
REMARK    4  A    between atoms: O_6  and  C_7
REMARK    5  A    between atoms: C_11  and  C_12
REMARK    6  A    between atoms: N_14  and  C_15
REMARK                            x       y       z     vdW  Elec       q    Type
REMARK                         _______ _______ _______ _____ _____    ______ ____
ROOT
ATOM      1  C   UNL     1       4.582   4.325  18.564  0.00  0.00    +0.000 A 
ATOM      2  C   UNL     1       3.717   3.374  18.013  0.00  0.00    +0.000 A 
ATOM      3  C   UNL     1       2.342   3.599  18.000  0.00  0.00    +0.000 A 
ATOM      4  C   UNL     1       1.830   4.785  18.525  0.00  0.00    +0.000 A 
ATOM      5  C   UNL     1       2.692   5.761  19.054  0.00  0.00    +0.000 A 
ATOM      6  C   UNL     1       4.074   5.519  19.073  0.00  0.00    +0.000 A 
ENDROOT
BRANCH   5   7
ATOM      7  C   UNL     1       2.078   7.019  19.579  0.00  0.00    +0.000 C 
ATOM      8  O   UNL     1       1.520   7.009  20.670  0.00  0.00    +0.000 OA
ATOM      9  N   UNL     1       2.161   8.146  18.775  0.00  0.00    +0.000 N 
ATOM     10  H   UNL     1       2.575   8.093  17.857  0.00  0.00    +0.000 HD
BRANCH   9  11
ATOM     11  C   UNL     1       1.586   9.397  19.170  0.00  0.00    +0.000 C 
ATOM     12  C   UNL     1       1.623  10.580  18.240  0.00  0.00    +0.000 C 
ATOM     13  C   UNL     1       0.320   9.898  18.532  0.00  0.00    +0.000 C 
ENDBRANCH   9  11
ENDBRANCH   5   7
BRANCH   1  14
ATOM     14  O   UNL     1       5.906   4.014  18.464  0.00  0.00    +0.000 OA
BRANCH  14  15
ATOM     15  C   UNL     1       6.785   5.012  17.942  0.00  0.00    +0.000 C 
BRANCH  15  19
ATOM     16  C   UNL     1       6.238   3.674  13.054  0.00  0.00    +0.000 C 
ATOM     17  C   UNL     1       6.588   4.304  14.343  0.00  0.00    +0.000 A 
ATOM     18  C   UNL     1       6.196   3.904  15.635  0.00  0.00    +0.000 A 
ATOM     19  C   UNL     1       6.788   4.810  16.473  0.00  0.00    +0.000 A 
ATOM     20  O   UNL     1       7.496   5.709  15.733  0.00  0.00    +0.000 OA
ATOM     21  N   UNL     1       7.371   5.391  14.389  0.00  0.00    +0.000 NA
ENDBRANCH  15  19
ENDBRANCH  14  15
ENDBRANCH   1  14
TORSDOF 5
ENDMDL
MODEL 8
REMARK VINA RESULT:      -7.2      1.562      7.320
REMARK  Name = 
REMARK  6 active torsions:
REMARK  status: ('A' for Active; 'I' for Inactive)
REMARK    1  A    between atoms: C_1  and  C_2
REMARK    2  A    between atoms: C_4  and  C_5
REMARK    3  A    between atoms: C_5  and  O_6
REMARK    4  A    between atoms: O_6  and  C_7
REMARK    5  A    between atoms: C_11  and  C_12
REMARK    6  A    between atoms: N_14  and  C_15
REMARK                            x       y       z     vdW  Elec       q    Type
REMARK                         _______ _______ _______ _____ _____    ______ ____
ROOT
ATOM      1  C   UNL     1       5.858   4.336  18.239  0.00  0.00    +0.000 A 
ATOM      2  C   UNL     1       6.515   5.411  18.847  0.00  0.00    +0.000 A 
ATOM      3  C   UNL     1       7.313   6.266  18.089  0.00  0.00    +0.000 A 
ATOM      4  C   UNL     1       7.442   6.057  16.716  0.00  0.00    +0.000 A 
ATOM      5  C   UNL     1       6.762   4.998  16.090  0.00  0.00    +0.000 A 
ATOM      6  C   UNL     1       5.972   4.135  16.864  0.00  0.00    +0.000 A 
ENDROOT
BRANCH   5   7
ATOM      7  C   UNL     1       6.926   4.845  14.612  0.00  0.00    +0.000 C 
ATOM      8  O   UNL     1       7.765   5.519  14.024  0.00  0.00    +0.000 OA
ATOM      9  N   UNL     1       6.089   3.944  13.972  0.00  0.00    +0.000 N 
ATOM     10  H   UNL     1       5.371   3.456  14.486  0.00  0.00    +0.000 HD
BRANCH   9  11
ATOM     11  C   UNL     1       6.145   3.737  12.556  0.00  0.00    +0.000 C 
ATOM     12  C   UNL     1       6.004   2.353  11.982  0.00  0.00    +0.000 C 
ATOM     13  C   UNL     1       4.911   3.361  11.783  0.00  0.00    +0.000 C 
ENDBRANCH   9  11
ENDBRANCH   5   7
BRANCH   1  14
ATOM     14  O   UNL     1       5.064   3.609  19.076  0.00  0.00    +0.000 OA
BRANCH  14  15
ATOM     15  C   UNL     1       3.682   3.484  18.737  0.00  0.00    +0.000 C 
BRANCH  15  19
ATOM     16  C   UNL     1       1.624   7.724  20.679  0.00  0.00    +0.000 C 
ATOM     17  C   UNL     1       2.197   6.662  19.828  0.00  0.00    +0.000 A 
ATOM     18  C   UNL     1       2.641   5.385  20.221  0.00  0.00    +0.000 A 
ATOM     19  C   UNL     1       3.072   4.796  19.062  0.00  0.00    +0.000 A 
ATOM     20  O   UNL     1       2.901   5.665  18.028  0.00  0.00    +0.000 OA
ATOM     21  N   UNL     1       2.349   6.843  18.509  0.00  0.00    +0.000 NA
ENDBRANCH  15  19
ENDBRANCH  14  15
ENDBRANCH   1  14
TORSDOF 5
ENDMDL
MODEL 9
REMARK VINA RESULT:      -7.2      3.290      4.527
REMARK  Name = 
REMARK  6 active torsions:
REMARK  status: ('A' for Active; 'I' for Inactive)
REMARK    1  A    between atoms: C_1  and  C_2
REMARK    2  A    between atoms: C_4  and  C_5
REMARK    3  A    between atoms: C_5  and  O_6
REMARK    4  A    between atoms: O_6  and  C_7
REMARK    5  A    between atoms: C_11  and  C_12
REMARK    6  A    between atoms: N_14  and  C_15
REMARK                            x       y       z     vdW  Elec       q    Type
REMARK                         _______ _______ _______ _____ _____    ______ ____
ROOT
ATOM      1  C   UNL     1       6.252   5.423  16.435  0.00  0.00    +0.000 A 
ATOM      2  C   UNL     1       7.176   6.194  17.149  0.00  0.00    +0.000 A 
ATOM      3  C   UNL     1       7.231   6.117  18.538  0.00  0.00    +0.000 A 
ATOM      4  C   UNL     1       6.371   5.255  19.219  0.00  0.00    +0.000 A 
ATOM      5  C   UNL     1       5.460   4.453  18.510  0.00  0.00    +0.000 A 
ATOM      6  C   UNL     1       5.404   4.547  17.112  0.00  0.00    +0.000 A 
ENDROOT
BRANCH   5   7
ATOM      7  C   UNL     1       4.585   3.533  19.300  0.00  0.00    +0.000 C 
ATOM      8  O   UNL     1       5.094   2.644  19.972  0.00  0.00    +0.000 OA
ATOM      9  N   UNL     1       3.216   3.732  19.211  0.00  0.00    +0.000 N 
ATOM     10  H   UNL     1       2.838   4.437  18.597  0.00  0.00    +0.000 HD
BRANCH   9  11
ATOM     11  C   UNL     1       2.286   2.894  19.906  0.00  0.00    +0.000 C 
ATOM     12  C   UNL     1       1.356   3.478  20.936  0.00  0.00    +0.000 C 
ATOM     13  C   UNL     1       0.811   2.984  19.629  0.00  0.00    +0.000 C 
ENDBRANCH   9  11
ENDBRANCH   5   7
BRANCH   1  14
ATOM     14  O   UNL     1       6.337   5.545  15.080  0.00  0.00    +0.000 OA
BRANCH  14  15
ATOM     15  C   UNL     1       7.204   4.647  14.386  0.00  0.00    +0.000 C 
BRANCH  15  19
ATOM     16  C   UNL     1       3.690   2.987  11.086  0.00  0.00    +0.000 C 
ATOM     17  C   UNL     1       4.913   3.273  11.864  0.00  0.00    +0.000 A 
ATOM     18  C   UNL     1       5.043   4.102  12.995  0.00  0.00    +0.000 A 
ATOM     19  C   UNL     1       6.368   4.022  13.332  0.00  0.00    +0.000 A 
ATOM     20  O   UNL     1       7.004   3.195  12.456  0.00  0.00    +0.000 OA
ATOM     21  N   UNL     1       6.087   2.721  11.529  0.00  0.00    +0.000 NA
ENDBRANCH  15  19
ENDBRANCH  14  15
ENDBRANCH   1  14
TORSDOF 5
ENDMDL
