MODEL 1
REMARK VINA RESULT:      -8.7      0.000      0.000
REMARK  Name = 
REMARK  5 active torsions:
REMARK  status: ('A' for Active; 'I' for Inactive)
REMARK    1  A    between atoms: N_1  and  C_2
REMARK    2  A    between atoms: C_5  and  C_6
REMARK    3  A    between atoms: C_8  and  N_9
REMARK    4  A    between atoms: C_25  and  O_26
REMARK    5  A    between atoms: O_26  and  C_27
REMARK                            x       y       z     vdW  Elec       q    Type
REMARK                         _______ _______ _______ _____ _____    ______ ____
ROOT
ATOM      1  C   UNL     1       4.228   5.663  17.811  0.00  0.00    +0.000 A 
ATOM      2  C   UNL     1       3.880   4.616  18.641  0.00  0.00    +0.000 A 
ATOM      3  C   UNL     1       2.919   4.881  19.590  0.00  0.00    +0.000 A 
ATOM      4  N   UNL     1       2.363   6.102  19.747  0.00  0.00    +0.000 NA
ATOM      5  C   UNL     1       2.761   7.073  18.919  0.00  0.00    +0.000 A 
ATOM      6  N   UNL     1       2.251   8.332  19.107  0.00  0.00    +0.000 N 
ATOM      7  C   UNL     1       1.193   8.542  20.087  0.00  0.00    +0.000 C 
ATOM      8  C   UNL     1       0.778   9.987  19.837  0.00  0.00    +0.000 C 
ATOM      9  C   UNL     1       0.830  10.059  18.325  0.00  0.00    +0.000 C 
ATOM     10  F   UNL     1       0.949  11.331  17.897  0.00  0.00    +0.000 F 
ATOM     11  F   UNL     1      -0.319   9.558  17.806  0.00  0.00    +0.000 F 
ATOM     12  C   UNL     1       2.030   9.186  17.932  0.00  0.00    +0.000 C 
ATOM     13  N   UNL     1       3.669   6.885  17.949  0.00  0.00    +0.000 NA
ENDROOT
BRANCH   1  17
ATOM     14  C   UNL     1       7.197   5.244  14.781  0.00  0.00    +0.000 A 
ATOM     15  N   UNL     1       7.341   6.197  15.723  0.00  0.00    +0.000 NA
ATOM     16  C   UNL     1       6.375   6.300  16.676  0.00  0.00    +0.000 A 
ATOM     17  C   UNL     1       5.230   5.512  16.742  0.00  0.00    +0.000 A 
ATOM     18  C   UNL     1       5.109   4.555  15.725  0.00  0.00    +0.000 A 
ATOM     19  C   UNL     1       6.102   4.381  14.755  0.00  0.00    +0.000 A 
BRANCH  14  20
ATOM     20  N   UNL     1       8.236   5.203  13.849  0.00  0.00    +0.000 N 
ATOM     21  H   UNL     1       8.120   6.049  13.288  0.00  0.00    +0.000 HD
ATOM     22  H   UNL     1       9.127   5.258  14.340  0.00  0.00    +0.000 HD
ENDBRANCH  14  20
BRANCH  19  23
ATOM     23  O   UNL     1       5.819   3.373  13.881  0.00  0.00    +0.000 OA
BRANCH  23  24
ATOM     24  C   UNL     1       5.735   3.683  12.503  0.00  0.00    +0.000 C 
ATOM     25  F   UNL     1       6.422   2.770  11.768  0.00  0.00    +0.000 F 
ATOM     26  F   UNL     1       4.429   3.531  12.150  0.00  0.00    +0.000 F 
ENDBRANCH  23  24
ENDBRANCH  19  23
ENDBRANCH   1  17
BRANCH   3  27
ATOM     27  N   UNL     1       2.485   3.826  20.441  0.00  0.00    +0.000 N 
ATOM     28  C   UNL     1       1.212   3.653  20.942  0.00  0.00    +0.000 A 
ATOM     29  C   UNL     1       1.232   2.514  21.710  0.00  0.00    +0.000 A 
ATOM     30  C   UNL     1       2.555   2.052  21.619  0.00  0.00    +0.000 A 
ATOM     31  N   UNL     1       3.317   2.828  20.848  0.00  0.00    +0.000 NA
ENDBRANCH   3  27
TORSDOF 5
ENDMDL
MODEL 2
REMARK VINA RESULT:      -8.6      3.716      7.855
REMARK  Name = 
REMARK  5 active torsions:
REMARK  status: ('A' for Active; 'I' for Inactive)
REMARK    1  A    between atoms: N_1  and  C_2
REMARK    2  A    between atoms: C_5  and  C_6
REMARK    3  A    between atoms: C_8  and  N_9
REMARK    4  A    between atoms: C_25  and  O_26
REMARK    5  A    between atoms: O_26  and  C_27
REMARK                            x       y       z     vdW  Elec       q    Type
REMARK                         _______ _______ _______ _____ _____    ______ ____
ROOT
ATOM      1  C   UNL     1       2.942   7.170  18.436  0.00  0.00    +0.000 A 
ATOM      2  C   UNL     1       3.852   6.899  17.433  0.00  0.00    +0.000 A 
ATOM      3  C   UNL     1       4.417   5.644  17.443  0.00  0.00    +0.000 A 
ATOM      4  N   UNL     1       4.143   4.725  18.395  0.00  0.00    +0.000 NA
ATOM      5  C   UNL     1       3.265   5.063  19.345  0.00  0.00    +0.000 A 
ATOM      6  N   UNL     1       3.025   4.164  20.352  0.00  0.00    +0.000 N 
ATOM      7  C   UNL     1       3.603   2.829  20.280  0.00  0.00    +0.000 C 
ATOM      8  C   UNL     1       2.939   2.105  21.444  0.00  0.00    +0.000 C 
ATOM      9  C   UNL     1       1.522   2.635  21.360  0.00  0.00    +0.000 C 
ATOM     10  F   UNL     1       0.876   2.499  22.535  0.00  0.00    +0.000 F 
ATOM     11  F   UNL     1       0.829   1.934  20.429  0.00  0.00    +0.000 F 
ATOM     12  C   UNL     1       1.677   4.102  20.934  0.00  0.00    +0.000 C 
ATOM     13  N   UNL     1       2.650   6.255  19.386  0.00  0.00    +0.000 NA
ENDROOT
BRANCH   1  17
ATOM     14  C   UNL     1       0.934  10.925  18.620  0.00  0.00    +0.000 A 
ATOM     15  N   UNL     1       1.817  10.694  17.631  0.00  0.00    +0.000 NA
ATOM     16  C   UNL     1       2.438   9.483  17.601  0.00  0.00    +0.000 A 
ATOM     17  C   UNL     1       2.251   8.467  18.533  0.00  0.00    +0.000 A 
ATOM     18  C   UNL     1       1.344   8.763  19.560  0.00  0.00    +0.000 A 
ATOM     19  C   UNL     1       0.647   9.976  19.601  0.00  0.00    +0.000 A 
BRANCH  14  20
ATOM     20  N   UNL     1       0.338  12.187  18.570  0.00  0.00    +0.000 N 
ATOM     21  H   UNL     1       0.035  12.297  17.601  0.00  0.00    +0.000 HD
ATOM     22  H   UNL     1      -0.485  12.191  19.170  0.00  0.00    +0.000 HD
ENDBRANCH  14  20
BRANCH  19  23
ATOM     23  O   UNL     1      -0.217  10.056  20.653  0.00  0.00    +0.000 OA
BRANCH  23  24
ATOM     24  C   UNL     1       0.102   9.352  21.838  0.00  0.00    +0.000 C 
ATOM     25  F   UNL     1      -0.102  10.139  22.927  0.00  0.00    +0.000 F 
ATOM     26  F   UNL     1      -0.800   8.339  21.943  0.00  0.00    +0.000 F 
ENDBRANCH  23  24
ENDBRANCH  19  23
ENDBRANCH   1  17
BRANCH   3  27
ATOM     27  N   UNL     1       5.323   5.291  16.404  0.00  0.00    +0.000 N 
ATOM     28  C   UNL     1       5.208   4.213  15.551  0.00  0.00    +0.000 A 
ATOM     29  C   UNL     1       6.292   4.249  14.708  0.00  0.00    +0.000 A 
ATOM     30  C   UNL     1       7.015   5.383  15.112  0.00  0.00    +0.000 A 
ATOM     31  N   UNL     1       6.436   6.026  16.126  0.00  0.00    +0.000 NA
ENDBRANCH   3  27
TORSDOF 5
ENDMDL
MODEL 3
REMARK VINA RESULT:      -8.3      3.049      7.335
REMARK  Name = 
REMARK  5 active torsions:
REMARK  status: ('A' for Active; 'I' for Inactive)
REMARK    1  A    between atoms: N_1  and  C_2
REMARK    2  A    between atoms: C_5  and  C_6
REMARK    3  A    between atoms: C_8  and  N_9
REMARK    4  A    between atoms: C_25  and  O_26
REMARK    5  A    between atoms: O_26  and  C_27
REMARK                            x       y       z     vdW  Elec       q    Type
REMARK                         _______ _______ _______ _____ _____    ______ ____
ROOT
ATOM      1  C   UNL     1       2.604   6.856  18.670  0.00  0.00    +0.000 A 
ATOM      2  C   UNL     1       2.239   5.905  19.602  0.00  0.00    +0.000 A 
ATOM      3  C   UNL     1       2.756   4.642  19.422  0.00  0.00    +0.000 A 
ATOM      4  N   UNL     1       3.545   4.317  18.374  0.00  0.00    +0.000 NA
ATOM      5  C   UNL     1       3.842   5.285  17.502  0.00  0.00    +0.000 A 
ATOM      6  N   UNL     1       4.591   4.956  16.402  0.00  0.00    +0.000 N 
ATOM      7  C   UNL     1       5.162   3.620  16.292  0.00  0.00    +0.000 C 
ATOM      8  C   UNL     1       6.066   3.734  15.071  0.00  0.00    +0.000 C 
ATOM      9  C   UNL     1       6.664   5.111  15.265  0.00  0.00    +0.000 C 
ATOM     10  F   UNL     1       7.130   5.613  14.105  0.00  0.00    +0.000 F 
ATOM     11  F   UNL     1       7.709   5.036  16.126  0.00  0.00    +0.000 F 
ATOM     12  C   UNL     1       5.527   5.952  15.861  0.00  0.00    +0.000 C 
ATOM     13  N   UNL     1       3.403   6.547  17.627  0.00  0.00    +0.000 NA
ENDROOT
BRANCH   1  17
ATOM     14  C   UNL     1       1.228  10.888  18.819  0.00  0.00    +0.000 A 
ATOM     15  N   UNL     1       1.889  10.453  17.729  0.00  0.00    +0.000 NA
ATOM     16  C   UNL     1       2.311   9.160  17.715  0.00  0.00    +0.000 A 
ATOM     17  C   UNL     1       2.136   8.251  18.754  0.00  0.00    +0.000 A 
ATOM     18  C   UNL     1       1.469   8.756  19.878  0.00  0.00    +0.000 A 
ATOM     19  C   UNL     1       0.974  10.064  19.915  0.00  0.00    +0.000 A 
BRANCH  14  20
ATOM     20  N   UNL     1       0.823  12.223  18.746  0.00  0.00    +0.000 N 
ATOM     21  H   UNL     1       0.718  12.519  19.717  0.00  0.00    +0.000 HD
ATOM     22  H   UNL     1       1.567  12.772  18.317  0.00  0.00    +0.000 HD
ENDBRANCH  14  20
BRANCH  19  23
ATOM     23  O   UNL     1       0.320  10.351  21.077  0.00  0.00    +0.000 OA
BRANCH  23  24
ATOM     24  C   UNL     1       0.288   9.364  22.090  0.00  0.00    +0.000 C 
ATOM     25  F   UNL     1       0.084   9.937  23.305  0.00  0.00    +0.000 F 
ATOM     26  F   UNL     1      -0.814   8.601  21.853  0.00  0.00    +0.000 F 
ENDBRANCH  23  24
ENDBRANCH  19  23
ENDBRANCH   1  17
BRANCH   3  27
ATOM     27  N   UNL     1       2.454   3.634  20.379  0.00  0.00    +0.000 N 
ATOM     28  C   UNL     1       1.259   3.473  21.047  0.00  0.00    +0.000 A 
ATOM     29  C   UNL     1       1.400   2.382  21.870  0.00  0.00    +0.000 A 
ATOM     30  C   UNL     1       2.710   1.933  21.638  0.00  0.00    +0.000 A 
ATOM     31  N   UNL     1       3.352   2.673  20.734  0.00  0.00    +0.000 NA
ENDBRANCH   3  27
TORSDOF 5
ENDMDL
MODEL 4
REMARK VINA RESULT:      -8.1      3.508      7.501
REMARK  Name = 
REMARK  5 active torsions:
REMARK  status: ('A' for Active; 'I' for Inactive)
REMARK    1  A    between atoms: N_1  and  C_2
REMARK    2  A    between atoms: C_5  and  C_6
REMARK    3  A    between atoms: C_8  and  N_9
REMARK    4  A    between atoms: C_25  and  O_26
REMARK    5  A    between atoms: O_26  and  C_27
REMARK                            x       y       z     vdW  Elec       q    Type
REMARK                         _______ _______ _______ _____ _____    ______ ____
ROOT
ATOM      1  C   UNL     1       2.869   7.381  18.194  0.00  0.00    +0.000 A 
ATOM      2  C   UNL     1       3.786   7.085  17.205  0.00  0.00    +0.000 A 
ATOM      3  C   UNL     1       4.349   5.829  17.248  0.00  0.00    +0.000 A 
ATOM      4  N   UNL     1       4.066   4.934  18.220  0.00  0.00    +0.000 NA
ATOM      5  C   UNL     1       3.181   5.296  19.155  0.00  0.00    +0.000 A 
ATOM      6  N   UNL     1       2.931   4.421  20.180  0.00  0.00    +0.000 N 
ATOM      7  C   UNL     1       3.508   3.084  20.144  0.00  0.00    +0.000 C 
ATOM      8  C   UNL     1       2.832   2.388  21.319  0.00  0.00    +0.000 C 
ATOM      9  C   UNL     1       1.418   2.918  21.212  0.00  0.00    +0.000 C 
ATOM     10  F   UNL     1       0.762   2.811  22.384  0.00  0.00    +0.000 F 
ATOM     11  F   UNL     1       0.731   2.196  20.291  0.00  0.00    +0.000 F 
ATOM     12  C   UNL     1       1.578   4.374  20.752  0.00  0.00    +0.000 C 
ATOM     13  N   UNL     1       2.567   6.489  19.162  0.00  0.00    +0.000 NA
ENDROOT
BRANCH   1  17
ATOM     14  C   UNL     1       0.924  11.172  18.292  0.00  0.00    +0.000 A 
ATOM     15  N   UNL     1       2.234  11.107  17.988  0.00  0.00    +0.000 NA
ATOM     16  C   UNL     1       2.822   9.880  17.963  0.00  0.00    +0.000 A 
ATOM     17  C   UNL     1       2.179   8.681  18.255  0.00  0.00    +0.000 A 
ATOM     18  C   UNL     1       0.825   8.801  18.594  0.00  0.00    +0.000 A 
ATOM     19  C   UNL     1       0.168  10.037  18.584  0.00  0.00    +0.000 A 
BRANCH  14  20
ATOM     20  N   UNL     1       0.400  12.467  18.287  0.00  0.00    +0.000 N 
ATOM     21  H   UNL     1       0.897  12.948  17.535  0.00  0.00    +0.000 HD
ATOM     22  H   UNL     1      -0.589  12.425  18.048  0.00  0.00    +0.000 HD
ENDBRANCH  14  20
BRANCH  19  23
ATOM     23  O   UNL     1      -1.154   9.938  18.901  0.00  0.00    +0.000 OA
BRANCH  23  24
ATOM     24  C   UNL     1      -2.106  10.127  17.872  0.00  0.00    +0.000 C 
ATOM     25  F   UNL     1      -1.557   9.852  16.660  0.00  0.00    +0.000 F 
ATOM     26  F   UNL     1      -3.073   9.188  18.060  0.00  0.00    +0.000 F 
ENDBRANCH  23  24
ENDBRANCH  19  23
ENDBRANCH   1  17
BRANCH   3  27
ATOM     27  N   UNL     1       5.263   5.451  16.226  0.00  0.00    +0.000 N 
ATOM     28  C   UNL     1       5.128   4.384  15.363  0.00  0.00    +0.000 A 
ATOM     29  C   UNL     1       6.229   4.386  14.542  0.00  0.00    +0.000 A 
ATOM     30  C   UNL     1       6.984   5.491  14.969  0.00  0.00    +0.000 A 
ATOM     31  N   UNL     1       6.407   6.147  15.976  0.00  0.00    +0.000 NA
ENDBRANCH   3  27
TORSDOF 5
ENDMDL
MODEL 5
REMARK VINA RESULT:      -7.9      3.797      7.789
REMARK  Name = 
REMARK  5 active torsions:
REMARK  status: ('A' for Active; 'I' for Inactive)
REMARK    1  A    between atoms: N_1  and  C_2
REMARK    2  A    between atoms: C_5  and  C_6
REMARK    3  A    between atoms: C_8  and  N_9
REMARK    4  A    between atoms: C_25  and  O_26
REMARK    5  A    between atoms: O_26  and  C_27
REMARK                            x       y       z     vdW  Elec       q    Type
REMARK                         _______ _______ _______ _____ _____    ______ ____
ROOT
ATOM      1  C   UNL     1       2.244   7.450  19.353  0.00  0.00    +0.000 A 
ATOM      2  C   UNL     1       1.738   6.297  19.920  0.00  0.00    +0.000 A 
ATOM      3  C   UNL     1       2.463   5.145  19.713  0.00  0.00    +0.000 A 
ATOM      4  N   UNL     1       3.589   5.113  18.966  0.00  0.00    +0.000 NA
ATOM      5  C   UNL     1       4.009   6.265  18.434  0.00  0.00    +0.000 A 
ATOM      6  N   UNL     1       5.115   6.236  17.623  0.00  0.00    +0.000 N 
ATOM      7  C   UNL     1       5.878   5.003  17.488  0.00  0.00    +0.000 C 
ATOM      8  C   UNL     1       7.103   5.443  16.696  0.00  0.00    +0.000 C 
ATOM      9  C   UNL     1       7.399   6.790  17.322  0.00  0.00    +0.000 C 
ATOM     10  F   UNL     1       8.138   7.562  16.503  0.00  0.00    +0.000 F 
ATOM     11  F   UNL     1       8.106   6.614  18.466  0.00  0.00    +0.000 F 
ATOM     12  C   UNL     1       6.019   7.394  17.623  0.00  0.00    +0.000 C 
ATOM     13  N   UNL     1       3.375   7.434  18.616  0.00  0.00    +0.000 NA
ENDROOT
BRANCH   1  17
ATOM     14  C   UNL     1       0.262  11.205  19.729  0.00  0.00    +0.000 A 
ATOM     15  N   UNL     1       0.596  10.752  18.506  0.00  0.00    +0.000 NA
ATOM     16  C   UNL     1       1.225   9.548  18.423  0.00  0.00    +0.000 A 
ATOM     17  C   UNL     1       1.577   8.754  19.511  0.00  0.00    +0.000 A 
ATOM     18  C   UNL     1       1.236   9.280  20.764  0.00  0.00    +0.000 A 
ATOM     19  C   UNL     1       0.544  10.490  20.893  0.00  0.00    +0.000 A 
BRANCH  14  20
ATOM     20  N   UNL     1      -0.387  12.442  19.722  0.00  0.00    +0.000 N 
ATOM     21  H   UNL     1      -0.822  12.517  20.642  0.00  0.00    +0.000 HD
ATOM     22  H   UNL     1       0.309  13.182  19.631  0.00  0.00    +0.000 HD
ENDBRANCH  14  20
BRANCH  19  23
ATOM     23  O   UNL     1       0.269  10.808  22.190  0.00  0.00    +0.000 OA
BRANCH  23  24
ATOM     24  C   UNL     1      -0.603   9.964  22.916  0.00  0.00    +0.000 C 
ATOM     25  F   UNL     1       0.064   9.351  23.930  0.00  0.00    +0.000 F 
ATOM     26  F   UNL     1      -1.519  10.773  23.515  0.00  0.00    +0.000 F 
ENDBRANCH  23  24
ENDBRANCH  19  23
ENDBRANCH   1  17
BRANCH   3  27
ATOM     27  N   UNL     1       2.017   3.936  20.315  0.00  0.00    +0.000 N 
ATOM     28  C   UNL     1       2.112   3.605  21.651  0.00  0.00    +0.000 A 
ATOM     29  C   UNL     1       1.561   2.355  21.797  0.00  0.00    +0.000 A 
ATOM     30  C   UNL     1       1.150   1.999  20.503  0.00  0.00    +0.000 A 
ATOM     31  N   UNL     1       1.409   2.947  19.603  0.00  0.00    +0.000 NA
ENDBRANCH   3  27
TORSDOF 5
ENDMDL
MODEL 6
REMARK VINA RESULT:      -7.7      4.166      7.258
REMARK  Name = 
REMARK  5 active torsions:
REMARK  status: ('A' for Active; 'I' for Inactive)
REMARK    1  A    between atoms: N_1  and  C_2
REMARK    2  A    between atoms: C_5  and  C_6
REMARK    3  A    between atoms: C_8  and  N_9
REMARK    4  A    between atoms: C_25  and  O_26
REMARK    5  A    between atoms: O_26  and  C_27
REMARK                            x       y       z     vdW  Elec       q    Type
REMARK                         _______ _______ _______ _____ _____    ______ ____
ROOT
ATOM      1  C   UNL     1       0.638  10.118  18.784  0.00  0.00    +0.000 A 
ATOM      2  C   UNL     1      -0.656  10.094  18.304  0.00  0.00    +0.000 A 
ATOM      3  C   UNL     1      -1.243  11.316  18.065  0.00  0.00    +0.000 A 
ATOM      4  N   UNL     1      -0.620  12.489  18.318  0.00  0.00    +0.000 NA
ATOM      5  C   UNL     1       0.626  12.435  18.798  0.00  0.00    +0.000 A 
ATOM      6  N   UNL     1       1.247  13.615  19.117  0.00  0.00    +0.000 N 
ATOM      7  C   UNL     1       0.603  14.880  18.787  0.00  0.00    +0.000 C 
ATOM      8  C   UNL     1       1.684  15.906  19.105  0.00  0.00    +0.000 C 
ATOM      9  C   UNL     1       2.926  15.204  18.598  0.00  0.00    +0.000 C 
ATOM     10  F   UNL     1       4.040  15.701  19.170  0.00  0.00    +0.000 F 
ATOM     11  F   UNL     1       3.038  15.388  17.259  0.00  0.00    +0.000 F 
ATOM     12  C   UNL     1       2.700  13.721  18.927  0.00  0.00    +0.000 C 
ATOM     13  N   UNL     1       1.276  11.284  19.027  0.00  0.00    +0.000 NA
ENDROOT
BRANCH   1  17
ATOM     14  C   UNL     1       2.738   6.513  19.656  0.00  0.00    +0.000 A 
ATOM     15  N   UNL     1       2.032   7.120  20.629  0.00  0.00    +0.000 NA
ATOM     16  C   UNL     1       1.372   8.268  20.314  0.00  0.00    +0.000 A 
ATOM     17  C   UNL     1       1.390   8.883  19.066  0.00  0.00    +0.000 A 
ATOM     18  C   UNL     1       2.160   8.231  18.094  0.00  0.00    +0.000 A 
ATOM     19  C   UNL     1       2.815   7.023  18.360  0.00  0.00    +0.000 A 
BRANCH  14  20
ATOM     20  N   UNL     1       3.376   5.339  20.063  0.00  0.00    +0.000 N 
ATOM     21  H   UNL     1       4.084   5.163  19.348  0.00  0.00    +0.000 HD
ATOM     22  H   UNL     1       3.847   5.507  20.951  0.00  0.00    +0.000 HD
ENDBRANCH  14  20
BRANCH  19  23
ATOM     23  O   UNL     1       3.476   6.527  17.275  0.00  0.00    +0.000 OA
BRANCH  23  24
ATOM     24  C   UNL     1       4.799   6.968  17.038  0.00  0.00    +0.000 C 
ATOM     25  F   UNL     1       5.678   6.257  17.792  0.00  0.00    +0.000 F 
ATOM     26  F   UNL     1       5.087   6.654  15.746  0.00  0.00    +0.000 F 
ENDBRANCH  23  24
ENDBRANCH  19  23
ENDBRANCH   1  17
BRANCH   3  27
ATOM     27  N   UNL     1      -2.558  11.353  17.523  0.00  0.00    +0.000 N 
ATOM     28  C   UNL     1      -3.715  11.664  18.206  0.00  0.00    +0.000 A 
ATOM     29  C   UNL     1      -4.749  11.580  17.306  0.00  0.00    +0.000 A 
ATOM     30  C   UNL     1      -4.135  11.218  16.096  0.00  0.00    +0.000 A 
ATOM     31  N   UNL     1      -2.814  11.088  16.211  0.00  0.00    +0.000 NA
ENDBRANCH   3  27
TORSDOF 5
ENDMDL
MODEL 7
REMARK VINA RESULT:      -7.7      2.780      3.135
REMARK  Name = 
REMARK  5 active torsions:
REMARK  status: ('A' for Active; 'I' for Inactive)
REMARK    1  A    between atoms: N_1  and  C_2
REMARK    2  A    between atoms: C_5  and  C_6
REMARK    3  A    between atoms: C_8  and  N_9
REMARK    4  A    between atoms: C_25  and  O_26
REMARK    5  A    between atoms: O_26  and  C_27
REMARK                            x       y       z     vdW  Elec       q    Type
REMARK                         _______ _______ _______ _____ _____    ______ ____
ROOT
ATOM      1  C   UNL     1       3.823   5.953  18.335  0.00  0.00    +0.000 A 
ATOM      2  C   UNL     1       3.418   4.863  19.081  0.00  0.00    +0.000 A 
ATOM      3  C   UNL     1       2.385   5.077  19.964  0.00  0.00    +0.000 A 
ATOM      4  N   UNL     1       1.810   6.287  20.139  0.00  0.00    +0.000 NA
ATOM      5  C   UNL     1       2.265   7.300  19.396  0.00  0.00    +0.000 A 
ATOM      6  N   UNL     1       1.734   8.546  19.607  0.00  0.00    +0.000 N 
ATOM      7  C   UNL     1       0.601   8.703  20.510  0.00  0.00    +0.000 C 
ATOM      8  C   UNL     1       0.198  10.158  20.302  0.00  0.00    +0.000 C 
ATOM      9  C   UNL     1       0.367  10.308  18.805  0.00  0.00    +0.000 C 
ATOM     10  F   UNL     1       0.510  11.600  18.453  0.00  0.00    +0.000 F 
ATOM     11  F   UNL     1      -0.735   9.832  18.173  0.00  0.00    +0.000 F 
ATOM     12  C   UNL     1       1.599   9.459  18.463  0.00  0.00    +0.000 C 
ATOM     13  N   UNL     1       3.247   7.164  18.491  0.00  0.00    +0.000 NA
ENDROOT
BRANCH   1  17
ATOM     14  C   UNL     1       6.890   5.671  15.388  0.00  0.00    +0.000 A 
ATOM     15  N   UNL     1       5.802   4.884  15.289  0.00  0.00    +0.000 NA
ATOM     16  C   UNL     1       4.841   5.003  16.246  0.00  0.00    +0.000 A 
ATOM     17  C   UNL     1       4.906   5.859  17.341  0.00  0.00    +0.000 A 
ATOM     18  C   UNL     1       6.069   6.637  17.417  0.00  0.00    +0.000 A 
ATOM     19  C   UNL     1       7.059   6.584  16.429  0.00  0.00    +0.000 A 
BRANCH  14  20
ATOM     20  N   UNL     1       7.820   5.491  14.361  0.00  0.00    +0.000 N 
ATOM     21  H   UNL     1       8.723   5.713  14.783  0.00  0.00    +0.000 HD
ATOM     22  H   UNL     1       7.823   4.510  14.084  0.00  0.00    +0.000 HD
ENDBRANCH  14  20
BRANCH  19  23
ATOM     23  O   UNL     1       8.089   7.445  16.663  0.00  0.00    +0.000 OA
BRANCH  23  24
ATOM     24  C   UNL     1       8.040   8.250  17.826  0.00  0.00    +0.000 C 
ATOM     25  F   UNL     1       8.738   7.668  18.836  0.00  0.00    +0.000 F 
ATOM     26  F   UNL     1       8.707   9.399  17.531  0.00  0.00    +0.000 F 
ENDBRANCH  23  24
ENDBRANCH  19  23
ENDBRANCH   1  17
BRANCH   3  27
ATOM     27  N   UNL     1       1.892   3.979  20.723  0.00  0.00    +0.000 N 
ATOM     28  C   UNL     1       0.946   3.062  20.314  0.00  0.00    +0.000 A 
ATOM     29  C   UNL     1       0.768   2.176  21.348  0.00  0.00    +0.000 A 
ATOM     30  C   UNL     1       1.648   2.622  22.348  0.00  0.00    +0.000 A 
ATOM     31  N   UNL     1       2.338   3.701  21.979  0.00  0.00    +0.000 NA
ENDBRANCH   3  27
TORSDOF 5
ENDMDL
MODEL 8
REMARK VINA RESULT:      -7.6      2.823      7.105
REMARK  Name = 
REMARK  5 active torsions:
REMARK  status: ('A' for Active; 'I' for Inactive)
REMARK    1  A    between atoms: N_1  and  C_2
REMARK    2  A    between atoms: C_5  and  C_6
REMARK    3  A    between atoms: C_8  and  N_9
REMARK    4  A    between atoms: C_25  and  O_26
REMARK    5  A    between atoms: O_26  and  C_27
REMARK                            x       y       z     vdW  Elec       q    Type
REMARK                         _______ _______ _______ _____ _____    ______ ____
ROOT
ATOM      1  C   UNL     1       2.646   7.048  18.371  0.00  0.00    +0.000 A 
ATOM      2  C   UNL     1       2.236   6.148  19.334  0.00  0.00    +0.000 A 
ATOM      3  C   UNL     1       2.737   4.871  19.232  0.00  0.00    +0.000 A 
ATOM      4  N   UNL     1       3.554   4.484  18.227  0.00  0.00    +0.000 NA
ATOM      5  C   UNL     1       3.895   5.404  17.319  0.00  0.00    +0.000 A 
ATOM      6  N   UNL     1       4.673   5.011  16.261  0.00  0.00    +0.000 N 
ATOM      7  C   UNL     1       5.224   3.663  16.234  0.00  0.00    +0.000 C 
ATOM      8  C   UNL     1       6.168   3.704  15.039  0.00  0.00    +0.000 C 
ATOM      9  C   UNL     1       6.783   5.080  15.186  0.00  0.00    +0.000 C 
ATOM     10  F   UNL     1       7.294   5.518  14.019  0.00  0.00    +0.000 F 
ATOM     11  F   UNL     1       7.798   5.030  16.084  0.00  0.00    +0.000 F 
ATOM     12  C   UNL     1       5.641   5.966  15.704  0.00  0.00    +0.000 C 
ATOM     13  N   UNL     1       3.473   6.677  17.370  0.00  0.00    +0.000 NA
ENDROOT
BRANCH   1  17
ATOM     14  C   UNL     1       1.386  11.120  18.285  0.00  0.00    +0.000 A 
ATOM     15  N   UNL     1       2.541  10.771  17.687  0.00  0.00    +0.000 NA
ATOM     16  C   UNL     1       2.911   9.462  17.732  0.00  0.00    +0.000 A 
ATOM     17  C   UNL     1       2.199   8.452  18.373  0.00  0.00    +0.000 A 
ATOM     18  C   UNL     1       1.020   8.867  19.005  0.00  0.00    +0.000 A 
ATOM     19  C   UNL     1       0.576  10.193  18.941  0.00  0.00    +0.000 A 
BRANCH  14  20
ATOM     20  N   UNL     1       1.079  12.478  18.184  0.00  0.00    +0.000 N 
ATOM     21  H   UNL     1       0.196  12.511  17.673  0.00  0.00    +0.000 HD
ATOM     22  H   UNL     1       0.928  12.855  19.118  0.00  0.00    +0.000 HD
ENDBRANCH  14  20
BRANCH  19  23
ATOM     23  O   UNL     1      -0.612  10.386  19.582  0.00  0.00    +0.000 OA
BRANCH  23  24
ATOM     24  C   UNL     1      -1.785  10.498  18.800  0.00  0.00    +0.000 C 
ATOM     25  F   UNL     1      -2.011  11.795  18.465  0.00  0.00    +0.000 F 
ATOM     26  F   UNL     1      -1.534   9.853  17.629  0.00  0.00    +0.000 F 
ENDBRANCH  23  24
ENDBRANCH  19  23
ENDBRANCH   1  17
BRANCH   3  27
ATOM     27  N   UNL     1       2.389   3.914  20.226  0.00  0.00    +0.000 N 
ATOM     28  C   UNL     1       1.138   3.725  20.774  0.00  0.00    +0.000 A 
ATOM     29  C   UNL     1       1.248   2.706  21.688  0.00  0.00    +0.000 A 
ATOM     30  C   UNL     1       2.599   2.326  21.630  0.00  0.00    +0.000 A 
ATOM     31  N   UNL     1       3.294   3.040  20.746  0.00  0.00    +0.000 NA
ENDBRANCH   3  27
TORSDOF 5
ENDMDL
MODEL 9
REMARK VINA RESULT:      -7.5      3.585      7.750
REMARK  Name = 
REMARK  5 active torsions:
REMARK  status: ('A' for Active; 'I' for Inactive)
REMARK    1  A    between atoms: N_1  and  C_2
REMARK    2  A    between atoms: C_5  and  C_6
REMARK    3  A    between atoms: C_8  and  N_9
REMARK    4  A    between atoms: C_25  and  O_26
REMARK    5  A    between atoms: O_26  and  C_27
REMARK                            x       y       z     vdW  Elec       q    Type
REMARK                         _______ _______ _______ _____ _____    ______ ____
ROOT
ATOM      1  C   UNL     1       2.755   7.452  18.535  0.00  0.00    +0.000 A 
ATOM      2  C   UNL     1       3.683   7.236  17.535  0.00  0.00    +0.000 A 
ATOM      3  C   UNL     1       4.278   5.995  17.511  0.00  0.00    +0.000 A 
ATOM      4  N   UNL     1       4.014   5.039  18.429  0.00  0.00    +0.000 NA
ATOM      5  C   UNL     1       3.118   5.325  19.378  0.00  0.00    +0.000 A 
ATOM      6  N   UNL     1       2.887   4.387  20.351  0.00  0.00    +0.000 N 
ATOM      7  C   UNL     1       3.498   3.069  20.242  0.00  0.00    +0.000 C 
ATOM      8  C   UNL     1       2.837   2.292  21.373  0.00  0.00    +0.000 C 
ATOM      9  C   UNL     1       1.409   2.790  21.289  0.00  0.00    +0.000 C 
ATOM     10  F   UNL     1       0.752   2.600  22.450  0.00  0.00    +0.000 F 
ATOM     11  F   UNL     1       0.745   2.104  20.326  0.00  0.00    +0.000 F 
ATOM     12  C   UNL     1       1.534   4.273  20.913  0.00  0.00    +0.000 C 
ATOM     13  N   UNL     1       2.473   6.500  19.450  0.00  0.00    +0.000 NA
ENDROOT
BRANCH   1  17
ATOM     14  C   UNL     1       0.641  11.124  19.007  0.00  0.00    +0.000 A 
ATOM     15  N   UNL     1       0.166  10.006  19.589  0.00  0.00    +0.000 NA
ATOM     16  C   UNL     1       0.868   8.852  19.419  0.00  0.00    +0.000 A 
ATOM     17  C   UNL     1       2.031   8.729  18.666  0.00  0.00    +0.000 A 
ATOM     18  C   UNL     1       2.471   9.911  18.056  0.00  0.00    +0.000 A 
ATOM     19  C   UNL     1       1.809  11.129  18.244  0.00  0.00    +0.000 A 
BRANCH  14  20
ATOM     20  N   UNL     1      -0.135  12.261  19.238  0.00  0.00    +0.000 N 
ATOM     21  H   UNL     1       0.394  13.030  18.822  0.00  0.00    +0.000 HD
ATOM     22  H   UNL     1      -1.019  12.168  18.740  0.00  0.00    +0.000 HD
ENDBRANCH  14  20
BRANCH  19  23
ATOM     23  O   UNL     1       2.416  12.168  17.603  0.00  0.00    +0.000 OA
BRANCH  23  24
ATOM     24  C   UNL     1       2.873  13.260  18.378  0.00  0.00    +0.000 C 
ATOM     25  F   UNL     1       4.142  13.593  18.026  0.00  0.00    +0.000 F 
ATOM     26  F   UNL     1       2.104  14.328  18.034  0.00  0.00    +0.000 F 
ENDBRANCH  23  24
ENDBRANCH  19  23
ENDBRANCH   1  17
BRANCH   3  27
ATOM     27  N   UNL     1       5.205   5.699  16.473  0.00  0.00    +0.000 N 
ATOM     28  C   UNL     1       5.060   4.734  15.498  0.00  0.00    +0.000 A 
ATOM     29  C   UNL     1       6.180   4.788  14.706  0.00  0.00    +0.000 A 
ATOM     30  C   UNL     1       6.955   5.818  15.264  0.00  0.00    +0.000 A 
ATOM     31  N   UNL     1       6.374   6.381  16.323  0.00  0.00    +0.000 NA
ENDBRANCH   3  27
TORSDOF 5
ENDMDL
