MODEL 1
REMARK VINA RESULT:      -6.8      0.000      0.000
REMARK  Name = 
REMARK  1 active torsions:
REMARK  status: ('A' for Active; 'I' for Inactive)
REMARK    1  A    between atoms: N_12  and  C_13
REMARK                            x       y       z     vdW  Elec       q    Type
REMARK                         _______ _______ _______ _____ _____    ______ ____
ROOT
ATOM      1  O   UNL     1       0.082   9.838  18.386  0.00  0.00    +0.000 OA
ATOM      2  C   UNL     1      -0.755  10.642  18.797  0.00  0.00    +0.000 C 
ATOM      3  C   UNL     1      -2.077  10.725  18.097  0.00  0.00    +0.000 A 
ATOM      4  C   UNL     1      -2.115  10.138  16.810  0.00  0.00    +0.000 A 
ATOM      5  C   UNL     1      -3.196  10.332  15.937  0.00  0.00    +0.000 A 
ATOM      6  C   UNL     1      -4.270  11.125  16.322  0.00  0.00    +0.000 A 
ATOM      7  C   UNL     1      -4.266  11.642  17.604  0.00  0.00    +0.000 A 
ATOM      8  C   UNL     1      -3.195  11.454  18.495  0.00  0.00    +0.000 A 
ATOM      9  N   UNL     1      -3.479  12.026  19.784  0.00  0.00    +0.000 N 
ATOM     10  C   UNL     1      -2.448  12.832  20.433  0.00  0.00    +0.000 C 
ATOM     11  C   UNL     1      -1.296  11.927  20.841  0.00  0.00    +0.000 C 
ATOM     12  N   UNL     1      -0.414  11.625  19.723  0.00  0.00    +0.000 N 
ATOM     13  S   UNL     1      -5.039  12.713  19.728  0.00  0.00    +0.000 S 
ATOM     14  O   UNL     1      -4.987  14.111  20.076  0.00  0.00    +0.000 OA
ATOM     15  O   UNL     1      -5.970  11.790  20.326  0.00  0.00    +0.000 OA
ATOM     16  N   UNL     1      -5.237  12.579  18.053  0.00  0.00    +0.000 N 
ATOM     17  H   UNL     1      -6.205  12.411  17.799  0.00  0.00    +0.000 HD
ENDROOT
BRANCH  12  18
ATOM     18  C   UNL     1       0.913  12.263  19.605  0.00  0.00    +0.000 C 
ATOM     19  C   UNL     1       1.485  12.929  20.883  0.00  0.00    +0.000 C 
ATOM     20  N   UNL     1       1.990  14.305  20.616  0.00  0.00    +0.000 NA
ATOM     21  C   UNL     1       3.026  14.256  19.556  0.00  0.00    +0.000 C 
ATOM     22  C   UNL     1       2.509  13.594  18.264  0.00  0.00    +0.000 C 
ATOM     23  C   UNL     1       1.007  13.279  18.430  0.00  0.00    +0.000 C 
ATOM     24  C   UNL     1       0.354  14.632  18.773  0.00  0.00    +0.000 C 
ATOM     25  C   UNL     1       0.868  15.132  20.130  0.00  0.00    +0.000 C 
ENDBRANCH  12  18
TORSDOF 1
ENDMDL
MODEL 2
REMARK VINA RESULT:      -6.4      1.152      1.259
REMARK  Name = 
REMARK  1 active torsions:
REMARK  status: ('A' for Active; 'I' for Inactive)
REMARK    1  A    between atoms: N_12  and  C_13
REMARK                            x       y       z     vdW  Elec       q    Type
REMARK                         _______ _______ _______ _____ _____    ______ ____
ROOT
ATOM      1  O   UNL     1       1.075  10.273  19.137  0.00  0.00    +0.000 OA
ATOM      2  C   UNL     1       0.232  11.089  19.513  0.00  0.00    +0.000 C 
ATOM      3  C   UNL     1      -1.162  10.979  18.976  0.00  0.00    +0.000 A 
ATOM      4  C   UNL     1      -1.301  10.180  17.817  0.00  0.00    +0.000 A 
ATOM      5  C   UNL     1      -2.485  10.163  17.064  0.00  0.00    +0.000 A 
ATOM      6  C   UNL     1      -3.564  10.950  17.444  0.00  0.00    +0.000 A 
ATOM      7  C   UNL     1      -3.455  11.678  18.615  0.00  0.00    +0.000 A 
ATOM      8  C   UNL     1      -2.280  11.703  19.386  0.00  0.00    +0.000 A 
ATOM      9  N   UNL     1      -2.458  12.470  20.590  0.00  0.00    +0.000 N 
ATOM     10  C   UNL     1      -1.424  13.430  20.967  0.00  0.00    +0.000 C 
ATOM     11  C   UNL     1      -0.170  12.671  21.371  0.00  0.00    +0.000 C 
ATOM     12  N   UNL     1       0.601  12.232  20.217  0.00  0.00    +0.000 N 
ATOM     13  S   UNL     1      -4.062  13.051  20.615  0.00  0.00    +0.000 S 
ATOM     14  O   UNL     1      -4.075  14.489  20.723  0.00  0.00    +0.000 OA
ATOM     15  O   UNL     1      -4.848  12.194  21.465  0.00  0.00    +0.000 OA
ATOM     16  N   UNL     1      -4.436  12.624  19.022  0.00  0.00    +0.000 N 
ATOM     17  H   UNL     1      -5.412  12.362  18.920  0.00  0.00    +0.000 HD
ENDROOT
BRANCH  12  18
ATOM     18  C   UNL     1       1.856  12.912  19.834  0.00  0.00    +0.000 C 
ATOM     19  C   UNL     1       2.558  13.753  20.931  0.00  0.00    +0.000 C 
ATOM     20  N   UNL     1       2.932  15.109  20.439  0.00  0.00    +0.000 NA
ATOM     21  C   UNL     1       3.811  14.980  19.251  0.00  0.00    +0.000 C 
ATOM     22  C   UNL     1       3.160  14.144  18.132  0.00  0.00    +0.000 C 
ATOM     23  C   UNL     1       1.720  13.782  18.552  0.00  0.00    +0.000 C 
ATOM     24  C   UNL     1       1.036  15.135  18.832  0.00  0.00    +0.000 C 
ATOM     25  C   UNL     1       1.703  15.819  20.033  0.00  0.00    +0.000 C 
ENDBRANCH  12  18
TORSDOF 1
ENDMDL
MODEL 3
REMARK VINA RESULT:      -5.9      2.593      5.451
REMARK  Name = 
REMARK  1 active torsions:
REMARK  status: ('A' for Active; 'I' for Inactive)
REMARK    1  A    between atoms: N_12  and  C_13
REMARK                            x       y       z     vdW  Elec       q    Type
REMARK                         _______ _______ _______ _____ _____    ______ ____
ROOT
ATOM      1  O   UNL     1       0.879   9.930  18.104  0.00  0.00    +0.000 OA
ATOM      2  C   UNL     1       0.114  10.558  18.837  0.00  0.00    +0.000 C 
ATOM      3  C   UNL     1       0.133  10.273  20.307  0.00  0.00    +0.000 A 
ATOM      4  C   UNL     1       0.763   9.062  20.680  0.00  0.00    +0.000 A 
ATOM      5  C   UNL     1       0.662   8.541  21.978  0.00  0.00    +0.000 A 
ATOM      6  C   UNL     1      -0.077   9.213  22.944  0.00  0.00    +0.000 A 
ATOM      7  C   UNL     1      -0.635  10.431  22.601  0.00  0.00    +0.000 A 
ATOM      8  C   UNL     1      -0.540  10.972  21.307  0.00  0.00    +0.000 A 
ATOM      9  N   UNL     1      -1.135  12.280  21.241  0.00  0.00    +0.000 N 
ATOM     10  C   UNL     1      -2.022  12.588  20.122  0.00  0.00    +0.000 C 
ATOM     11  C   UNL     1      -1.201  12.653  18.844  0.00  0.00    +0.000 C 
ATOM     12  N   UNL     1      -0.916  11.329  18.307  0.00  0.00    +0.000 N 
ATOM     13  S   UNL     1      -1.725  12.673  22.792  0.00  0.00    +0.000 S 
ATOM     14  O   UNL     1      -3.134  12.973  22.735  0.00  0.00    +0.000 OA
ATOM     15  O   UNL     1      -0.767  13.530  23.445  0.00  0.00    +0.000 OA
ATOM     16  N   UNL     1      -1.526  11.132  23.460  0.00  0.00    +0.000 N 
ATOM     17  H   UNL     1      -1.291  11.175  24.447  0.00  0.00    +0.000 HD
ENDROOT
BRANCH  12  18
ATOM     18  C   UNL     1      -1.629  10.820  17.118  0.00  0.00    +0.000 C 
ATOM     19  C   UNL     1      -2.360  11.868  16.238  0.00  0.00    +0.000 C 
ATOM     20  N   UNL     1      -3.757  11.454  15.925  0.00  0.00    +0.000 NA
ATOM     21  C   UNL     1      -3.742  10.135  15.245  0.00  0.00    +0.000 C 
ATOM     22  C   UNL     1      -3.018   9.058  16.077  0.00  0.00    +0.000 C 
ATOM     23  C   UNL     1      -2.619   9.663  17.439  0.00  0.00    +0.000 C 
ATOM     24  C   UNL     1      -3.939  10.174  18.048  0.00  0.00    +0.000 C 
ATOM     25  C   UNL     1      -4.503  11.315  17.190  0.00  0.00    +0.000 C 
ENDBRANCH  12  18
TORSDOF 1
ENDMDL
MODEL 4
REMARK VINA RESULT:      -5.9      9.347     11.305
REMARK  Name = 
REMARK  1 active torsions:
REMARK  status: ('A' for Active; 'I' for Inactive)
REMARK    1  A    between atoms: N_12  and  C_13
REMARK                            x       y       z     vdW  Elec       q    Type
REMARK                         _______ _______ _______ _____ _____    ______ ____
ROOT
ATOM      1  O   UNL     1       2.554   3.874  16.972  0.00  0.00    +0.000 OA
ATOM      2  C   UNL     1       3.536   4.473  17.411  0.00  0.00    +0.000 C 
ATOM      3  C   UNL     1       4.667   4.781  16.477  0.00  0.00    +0.000 A 
ATOM      4  C   UNL     1       4.669   4.043  15.270  0.00  0.00    +0.000 A 
ATOM      5  C   UNL     1       5.772   4.042  14.402  0.00  0.00    +0.000 A 
ATOM      6  C   UNL     1       6.909   4.775  14.718  0.00  0.00    +0.000 A 
ATOM      7  C   UNL     1       6.881   5.551  15.863  0.00  0.00    +0.000 A 
ATOM      8  C   UNL     1       5.784   5.570  16.741  0.00  0.00    +0.000 A 
ATOM      9  N   UNL     1       5.981   6.517  17.805  0.00  0.00    +0.000 N 
ATOM     10  C   UNL     1       5.674   6.106  19.173  0.00  0.00    +0.000 C 
ATOM     11  C   UNL     1       4.170   5.927  19.310  0.00  0.00    +0.000 C 
ATOM     12  N   UNL     1       3.720   4.648  18.780  0.00  0.00    +0.000 N 
ATOM     13  S   UNL     1       7.493   7.270  17.573  0.00  0.00    +0.000 S 
ATOM     14  O   UNL     1       8.328   7.094  18.735  0.00  0.00    +0.000 OA
ATOM     15  O   UNL     1       7.279   8.551  16.948  0.00  0.00    +0.000 OA
ATOM     16  N   UNL     1       8.032   6.225  16.357  0.00  0.00    +0.000 N 
ATOM     17  H   UNL     1       8.623   6.702  15.683  0.00  0.00    +0.000 HD
ENDROOT
BRANCH  12  18
ATOM     18  C   UNL     1       3.333   3.543  19.682  0.00  0.00    +0.000 C 
ATOM     19  C   UNL     1       2.826   2.239  19.014  0.00  0.00    +0.000 C 
ATOM     20  N   UNL     1       1.558   1.755  19.629  0.00  0.00    +0.000 NA
ATOM     21  C   UNL     1       1.763   1.540  21.083  0.00  0.00    +0.000 C 
ATOM     22  C   UNL     1       2.277   2.808  21.793  0.00  0.00    +0.000 C 
ATOM     23  C   UNL     1       2.315   3.969  20.778  0.00  0.00    +0.000 C 
ATOM     24  C   UNL     1       0.876   4.068  20.234  0.00  0.00    +0.000 C 
ATOM     25  C   UNL     1       0.523   2.793  19.455  0.00  0.00    +0.000 C 
ENDBRANCH  12  18
TORSDOF 1
ENDMDL
MODEL 5
REMARK VINA RESULT:      -5.7      3.753      5.758
REMARK  Name = 
REMARK  1 active torsions:
REMARK  status: ('A' for Active; 'I' for Inactive)
REMARK    1  A    between atoms: N_12  and  C_13
REMARK                            x       y       z     vdW  Elec       q    Type
REMARK                         _______ _______ _______ _____ _____    ______ ____
ROOT
ATOM      1  O   UNL     1      -3.280  11.879  24.129  0.00  0.00    +0.000 OA
ATOM      2  C   UNL     1      -2.791  12.361  23.106  0.00  0.00    +0.000 C 
ATOM      3  C   UNL     1      -1.754  11.573  22.366  0.00  0.00    +0.000 A 
ATOM      4  C   UNL     1      -1.166  10.513  23.096  0.00  0.00    +0.000 A 
ATOM      5  C   UNL     1      -0.028   9.835  22.635  0.00  0.00    +0.000 A 
ATOM      6  C   UNL     1       0.561  10.199  21.430  0.00  0.00    +0.000 A 
ATOM      7  C   UNL     1      -0.054  11.187  20.682  0.00  0.00    +0.000 A 
ATOM      8  C   UNL     1      -1.197  11.873  21.125  0.00  0.00    +0.000 A 
ATOM      9  N   UNL     1      -1.678  12.790  20.126  0.00  0.00    +0.000 N 
ATOM     10  C   UNL     1      -2.044  14.143  20.537  0.00  0.00    +0.000 C 
ATOM     11  C   UNL     1      -3.296  14.076  21.398  0.00  0.00    +0.000 C 
ATOM     12  N   UNL     1      -2.997  13.696  22.771  0.00  0.00    +0.000 N 
ATOM     13  S   UNL     1      -0.658  12.673  18.764  0.00  0.00    +0.000 S 
ATOM     14  O   UNL     1      -0.098  13.962  18.442  0.00  0.00    +0.000 OA
ATOM     15  O   UNL     1      -1.291  11.827  17.785  0.00  0.00    +0.000 OA
ATOM     16  N   UNL     1       0.536  11.736  19.511  0.00  0.00    +0.000 N 
ATOM     17  H   UNL     1       0.974  11.092  18.859  0.00  0.00    +0.000 HD
ENDROOT
BRANCH  12  18
ATOM     18  C   UNL     1      -3.022  14.693  23.861  0.00  0.00    +0.000 C 
ATOM     19  C   UNL     1      -3.638  16.077  23.529  0.00  0.00    +0.000 C 
ATOM     20  N   UNL     1      -2.761  17.197  23.973  0.00  0.00    +0.000 NA
ATOM     21  C   UNL     1      -2.512  17.083  25.431  0.00  0.00    +0.000 C 
ATOM     22  C   UNL     1      -1.907  15.719  25.815  0.00  0.00    +0.000 C 
ATOM     23  C   UNL     1      -1.634  14.914  24.527  0.00  0.00    +0.000 C 
ATOM     24  C   UNL     1      -0.715  15.817  23.681  0.00  0.00    +0.000 C 
ATOM     25  C   UNL     1      -1.467  17.090  23.272  0.00  0.00    +0.000 C 
ENDBRANCH  12  18
TORSDOF 1
ENDMDL
MODEL 6
REMARK VINA RESULT:      -5.7      8.031     10.617
REMARK  Name = 
REMARK  1 active torsions:
REMARK  status: ('A' for Active; 'I' for Inactive)
REMARK    1  A    between atoms: N_12  and  C_13
REMARK                            x       y       z     vdW  Elec       q    Type
REMARK                         _______ _______ _______ _____ _____    ______ ____
ROOT
ATOM      1  O   UNL     1       9.868  15.412  22.065  0.00  0.00    +0.000 OA
ATOM      2  C   UNL     1       9.050  15.356  21.147  0.00  0.00    +0.000 C 
ATOM      3  C   UNL     1       7.591  15.316  21.486  0.00  0.00    +0.000 A 
ATOM      4  C   UNL     1       7.293  14.981  22.828  0.00  0.00    +0.000 A 
ATOM      5  C   UNL     1       5.989  14.676  23.246  0.00  0.00    +0.000 A 
ATOM      6  C   UNL     1       4.943  14.692  22.333  0.00  0.00    +0.000 A 
ATOM      7  C   UNL     1       5.220  15.087  21.037  0.00  0.00    +0.000 A 
ATOM      8  C   UNL     1       6.519  15.401  20.601  0.00  0.00    +0.000 A 
ATOM      9  N   UNL     1       6.518  15.857  19.236  0.00  0.00    +0.000 N 
ATOM     10  C   UNL     1       7.519  15.318  18.319  0.00  0.00    +0.000 C 
ATOM     11  C   UNL     1       8.890  15.835  18.725  0.00  0.00    +0.000 C 
ATOM     12  N   UNL     1       9.450  15.086  19.841  0.00  0.00    +0.000 N 
ATOM     13  S   UNL     1       4.908  15.847  18.675  0.00  0.00    +0.000 S 
ATOM     14  O   UNL     1       4.790  15.025  17.496  0.00  0.00    +0.000 OA
ATOM     15  O   UNL     1       4.385  17.187  18.751  0.00  0.00    +0.000 OA
ATOM     16  N   UNL     1       4.261  15.002  19.990  0.00  0.00    +0.000 N 
ATOM     17  H   UNL     1       3.312  15.296  20.198  0.00  0.00    +0.000 HD
ENDROOT
BRANCH  12  18
ATOM     18  C   UNL     1      10.538  14.108  19.633  0.00  0.00    +0.000 C 
ATOM     19  C   UNL     1      11.089  13.970  18.190  0.00  0.00    +0.000 C 
ATOM     20  N   UNL     1      11.179  12.545  17.763  0.00  0.00    +0.000 NA
ATOM     21  C   UNL     1      12.038  11.796  18.713  0.00  0.00    +0.000 C 
ATOM     22  C   UNL     1      11.537  11.910  20.167  0.00  0.00    +0.000 C 
ATOM     23  C   UNL     1      10.205  12.689  20.177  0.00  0.00    +0.000 C 
ATOM     24  C   UNL     1       9.277  11.903  19.230  0.00  0.00    +0.000 C 
ATOM     25  C   UNL     1       9.826  11.956  17.798  0.00  0.00    +0.000 C 
ENDBRANCH  12  18
TORSDOF 1
ENDMDL
MODEL 7
REMARK VINA RESULT:      -5.7      9.773     11.561
REMARK  Name = 
REMARK  1 active torsions:
REMARK  status: ('A' for Active; 'I' for Inactive)
REMARK    1  A    between atoms: N_12  and  C_13
REMARK                            x       y       z     vdW  Elec       q    Type
REMARK                         _______ _______ _______ _____ _____    ______ ____
ROOT
ATOM      1  O   UNL     1       6.900  16.128  21.008  0.00  0.00    +0.000 OA
ATOM      2  C   UNL     1       7.800  15.299  20.866  0.00  0.00    +0.000 C 
ATOM      3  C   UNL     1       7.957  14.631  19.534  0.00  0.00    +0.000 A 
ATOM      4  C   UNL     1       6.842  14.740  18.670  0.00  0.00    +0.000 A 
ATOM      5  C   UNL     1       6.738  13.983  17.493  0.00  0.00    +0.000 A 
ATOM      6  C   UNL     1       7.743  13.090  17.147  0.00  0.00    +0.000 A 
ATOM      7  C   UNL     1       8.865  13.033  17.954  0.00  0.00    +0.000 A 
ATOM      8  C   UNL     1       8.990  13.788  19.134  0.00  0.00    +0.000 A 
ATOM      9  N   UNL     1      10.282  13.604  19.739  0.00  0.00    +0.000 N 
ATOM     10  C   UNL     1      10.352  13.369  21.179  0.00  0.00    +0.000 C 
ATOM     11  C   UNL     1       9.945  14.641  21.907  0.00  0.00    +0.000 C 
ATOM     12  N   UNL     1       8.498  14.801  21.962  0.00  0.00    +0.000 N 
ATOM     13  S   UNL     1      11.177  12.530  18.763  0.00  0.00    +0.000 S 
ATOM     14  O   UNL     1      11.610  11.390  19.533  0.00  0.00    +0.000 OA
ATOM     15  O   UNL     1      12.069  13.297  17.931  0.00  0.00    +0.000 OA
ATOM     16  N   UNL     1       9.886  12.059  17.778  0.00  0.00    +0.000 N 
ATOM     17  H   UNL     1      10.187  11.860  16.828  0.00  0.00    +0.000 HD
ENDROOT
BRANCH  12  18
ATOM     18  C   UNL     1       7.751  14.555  23.213  0.00  0.00    +0.000 C 
ATOM     19  C   UNL     1       8.591  14.351  24.501  0.00  0.00    +0.000 C 
ATOM     20  N   UNL     1       8.153  13.149  25.266  0.00  0.00    +0.000 NA
ATOM     21  C   UNL     1       6.714  13.276  25.606  0.00  0.00    +0.000 C 
ATOM     22  C   UNL     1       5.836  13.490  24.358  0.00  0.00    +0.000 C 
ATOM     23  C   UNL     1       6.723  13.393  23.099  0.00  0.00    +0.000 C 
ATOM     24  C   UNL     1       7.393  12.008  23.192  0.00  0.00    +0.000 C 
ATOM     25  C   UNL     1       8.324  11.958  24.411  0.00  0.00    +0.000 C 
ENDBRANCH  12  18
TORSDOF 1
ENDMDL
MODEL 8
REMARK VINA RESULT:      -5.7      1.811      2.103
REMARK  Name = 
REMARK  1 active torsions:
REMARK  status: ('A' for Active; 'I' for Inactive)
REMARK    1  A    between atoms: N_12  and  C_13
REMARK                            x       y       z     vdW  Elec       q    Type
REMARK                         _______ _______ _______ _____ _____    ______ ____
ROOT
ATOM      1  O   UNL     1      -0.568  10.576  19.702  0.00  0.00    +0.000 OA
ATOM      2  C   UNL     1      -1.617  11.214  19.617  0.00  0.00    +0.000 C 
ATOM      3  C   UNL     1      -2.501  10.988  18.428  0.00  0.00    +0.000 A 
ATOM      4  C   UNL     1      -1.885  10.335  17.334  0.00  0.00    +0.000 A 
ATOM      5  C   UNL     1      -2.498  10.257  16.074  0.00  0.00    +0.000 A 
ATOM      6  C   UNL     1      -3.744  10.835  15.869  0.00  0.00    +0.000 A 
ATOM      7  C   UNL     1      -4.378  11.412  16.954  0.00  0.00    +0.000 A 
ATOM      8  C   UNL     1      -3.782  11.494  18.225  0.00  0.00    +0.000 A 
ATOM      9  N   UNL     1      -4.683  12.066  19.189  0.00  0.00    +0.000 N 
ATOM     10  C   UNL     1      -4.178  13.099  20.090  0.00  0.00    +0.000 C 
ATOM     11  C   UNL     1      -3.187  12.471  21.057  0.00  0.00    +0.000 C 
ATOM     12  N   UNL     1      -1.872  12.294  20.457  0.00  0.00    +0.000 N 
ATOM     13  S   UNL     1      -6.153  12.417  18.400  0.00  0.00    +0.000 S 
ATOM     14  O   UNL     1      -6.483  13.813  18.544  0.00  0.00    +0.000 OA
ATOM     15  O   UNL     1      -7.090  11.358  18.679  0.00  0.00    +0.000 OA
ATOM     16  N   UNL     1      -5.584  12.155  16.829  0.00  0.00    +0.000 N 
ATOM     17  H   UNL     1      -6.307  11.779  16.223  0.00  0.00    +0.000 HD
ENDROOT
BRANCH  12  18
ATOM     18  C   UNL     1      -0.746  13.182  20.813  0.00  0.00    +0.000 C 
ATOM     19  C   UNL     1      -0.433  13.344  22.323  0.00  0.00    +0.000 C 
ATOM     20  N   UNL     1      -0.281  14.775  22.709  0.00  0.00    +0.000 NA
ATOM     21  C   UNL     1       0.791  15.397  21.894  0.00  0.00    +0.000 C 
ATOM     22  C   UNL     1       0.531  15.255  20.381  0.00  0.00    +0.000 C 
ATOM     23  C   UNL     1      -0.848  14.596  20.171  0.00  0.00    +0.000 C 
ATOM     24  C   UNL     1      -1.842  15.507  20.918  0.00  0.00    +0.000 C 
ATOM     25  C   UNL     1      -1.547  15.478  22.424  0.00  0.00    +0.000 C 
ENDBRANCH  12  18
TORSDOF 1
ENDMDL
MODEL 9
REMARK VINA RESULT:      -5.6      1.464      1.713
REMARK  Name = 
REMARK  1 active torsions:
REMARK  status: ('A' for Active; 'I' for Inactive)
REMARK    1  A    between atoms: N_12  and  C_13
REMARK                            x       y       z     vdW  Elec       q    Type
REMARK                         _______ _______ _______ _____ _____    ______ ____
ROOT
ATOM      1  O   UNL     1      -1.081  10.933  18.400  0.00  0.00    +0.000 OA
ATOM      2  C   UNL     1      -1.852  11.557  19.131  0.00  0.00    +0.000 C 
ATOM      3  C   UNL     1      -3.286  11.686  18.718  0.00  0.00    +0.000 A 
ATOM      4  C   UNL     1      -3.551  11.397  17.358  0.00  0.00    +0.000 A 
ATOM      5  C   UNL     1      -4.787  11.691  16.763  0.00  0.00    +0.000 A 
ATOM      6  C   UNL     1      -5.794  12.291  17.508  0.00  0.00    +0.000 A 
ATOM      7  C   UNL     1      -5.562  12.510  18.853  0.00  0.00    +0.000 A 
ATOM      8  C   UNL     1      -4.333  12.216  19.469  0.00  0.00    +0.000 A 
ATOM      9  N   UNL     1      -4.383  12.465  20.885  0.00  0.00    +0.000 N 
ATOM     10  C   UNL     1      -3.277  13.187  21.508  0.00  0.00    +0.000 C 
ATOM     11  C   UNL     1      -2.036  12.310  21.480  0.00  0.00    +0.000 C 
ATOM     12  N   UNL     1      -1.375  12.334  20.182  0.00  0.00    +0.000 N 
ATOM     13  S   UNL     1      -5.949  13.019  21.271  0.00  0.00    +0.000 S 
ATOM     14  O   UNL     1      -5.883  14.305  21.920  0.00  0.00    +0.000 OA
ATOM     15  O   UNL     1      -6.712  11.915  21.795  0.00  0.00    +0.000 OA
ATOM     16  N   UNL     1      -6.462  13.243  19.675  0.00  0.00    +0.000 N 
ATOM     17  H   UNL     1      -7.454  13.058  19.567  0.00  0.00    +0.000 HD
ENDROOT
BRANCH  12  18
ATOM     18  C   UNL     1      -0.121  13.088  19.980  0.00  0.00    +0.000 C 
ATOM     19  C   UNL     1       0.679  13.470  21.252  0.00  0.00    +0.000 C 
ATOM     20  N   UNL     1       1.075  14.906  21.250  0.00  0.00    +0.000 NA
ATOM     21  C   UNL     1       1.875  15.198  20.035  0.00  0.00    +0.000 C 
ATOM     22  C   UNL     1       1.126  14.827  18.740  0.00  0.00    +0.000 C 
ATOM     23  C   UNL     1      -0.299  14.361  19.104  0.00  0.00    +0.000 C 
ATOM     24  C   UNL     1      -0.911  15.534  19.894  0.00  0.00    +0.000 C 
ATOM     25  C   UNL     1      -0.147  15.733  21.210  0.00  0.00    +0.000 C 
ENDBRANCH  12  18
TORSDOF 1
ENDMDL
