MODEL 1
REMARK VINA RESULT:      -8.1      0.000      0.000
REMARK  Name = 
REMARK  7 active torsions:
REMARK  status: ('A' for Active; 'I' for Inactive)
REMARK    1  A    between atoms: C_1  and  C_2
REMARK    2  A    between atoms: C_2  and  O_3
REMARK    3  A    between atoms: O_3  and  C_4
REMARK    4  A    between atoms: N_12  and  C_13
REMARK    5  A    between atoms: C_17  and  C_18
REMARK    6  A    between atoms: C_26  and  O_27
REMARK    7  A    between atoms: O_27  and  C_28
REMARK                            x       y       z     vdW  Elec       q    Type
REMARK                         _______ _______ _______ _____ _____    ______ ____
ROOT
ATOM      1  C   UNL     1       2.987   5.175  19.652  0.00  0.00    +0.000 A 
ATOM      2  N   UNL     1       2.238   6.169  20.179  0.00  0.00    +0.000 NA
ATOM      3  C   UNL     1       2.208   7.327  19.504  0.00  0.00    +0.000 A 
ATOM      4  N   UNL     1       1.427   8.348  19.938  0.00  0.00    +0.000 N 
ATOM      5  C   UNL     1       0.758   8.464  21.200  0.00  0.00    +0.000 C 
ATOM      6  C   UNL     1       0.748   9.986  21.437  0.00  0.00    +0.000 C 
ATOM      7  C   UNL     1      -0.404  10.309  22.348  0.00  0.00    +0.000 C 
ATOM      8  O   UNL     1      -0.681   9.594  23.312  0.00  0.00    +0.000 OA
ATOM      9  N   UNL     1      -1.055  11.483  22.046  0.00  0.00    +0.000 N 
ATOM     10  C   UNL     1      -1.930  12.063  23.058  0.00  0.00    +0.000 C 
ATOM     11  C   UNL     1      -1.227  11.787  20.713  0.00  0.00    +0.000 C 
ATOM     12  N   UNL     1      -1.879  12.936  20.382  0.00  0.00    +0.000 N 
ATOM     13  N   UNL     1      -0.742  11.063  19.757  0.00  0.00    +0.000 NA
ATOM     14  C   UNL     1       0.649  10.637  20.047  0.00  0.00    +0.000 C 
ATOM     15  C   UNL     1       1.214   9.516  19.111  0.00  0.00    +0.000 C 
ATOM     16  N   UNL     1       2.925   7.533  18.390  0.00  0.00    +0.000 NA
ATOM     17  C   UNL     1       3.685   6.534  17.914  0.00  0.00    +0.000 A 
ATOM     18  C   UNL     1       3.732   5.296  18.506  0.00  0.00    +0.000 A 
ATOM     19  F   UNL     1       4.464   4.294  18.009  0.00  0.00    +0.000 F 
ATOM     20  H   UNL     1      -1.694  13.692  21.034  0.00  0.00    +0.000 HD
ATOM     21  H   UNL     1      -1.583  13.225  19.451  0.00  0.00    +0.000 HD
ENDROOT
BRANCH  14  22
ATOM     22  C   UNL     1       1.459  11.877  19.620  0.00  0.00    +0.000 A 
ATOM     23  C   UNL     1       1.818  12.192  18.316  0.00  0.00    +0.000 A 
ATOM     24  C   UNL     1       2.530  13.372  18.066  0.00  0.00    +0.000 A 
ATOM     25  C   UNL     1       2.900  14.235  19.104  0.00  0.00    +0.000 A 
ATOM     26  C   UNL     1       2.602  13.910  20.417  0.00  0.00    +0.000 A 
ATOM     27  C   UNL     1       1.914  12.733  20.669  0.00  0.00    +0.000 A 
ENDBRANCH  14  22
BRANCH  17  28
ATOM     28  O   UNL     1       4.443   6.752  16.786  0.00  0.00    +0.000 OA
ATOM     29  C   UNL     1       5.815   7.006  17.075  0.00  0.00    +0.000 C 
ENDBRANCH  17  28
BRANCH   1  30
ATOM     30  O   UNL     1       2.968   3.933  20.265  0.00  0.00    +0.000 OA
BRANCH  30  32
ATOM     31  C   UNL     1       1.462   2.599  21.552  0.00  0.00    +0.000 C 
ATOM     32  C   UNL     1       2.209   3.916  21.477  0.00  0.00    +0.000 C 
ENDBRANCH  30  32
ENDBRANCH   1  30
TORSDOF 4
ENDMDL
MODEL 2
REMARK VINA RESULT:      -8.1      0.499      1.008
REMARK  Name = 
REMARK  7 active torsions:
REMARK  status: ('A' for Active; 'I' for Inactive)
REMARK    1  A    between atoms: C_1  and  C_2
REMARK    2  A    between atoms: C_2  and  O_3
REMARK    3  A    between atoms: O_3  and  C_4
REMARK    4  A    between atoms: N_12  and  C_13
REMARK    5  A    between atoms: C_17  and  C_18
REMARK    6  A    between atoms: C_26  and  O_27
REMARK    7  A    between atoms: O_27  and  C_28
REMARK                            x       y       z     vdW  Elec       q    Type
REMARK                         _______ _______ _______ _____ _____    ______ ____
ROOT
ATOM      1  C   UNL     1       2.847   5.182  19.728  0.00  0.00    +0.000 A 
ATOM      2  N   UNL     1       2.124   6.195  20.254  0.00  0.00    +0.000 NA
ATOM      3  C   UNL     1       2.140   7.359  19.588  0.00  0.00    +0.000 A 
ATOM      4  N   UNL     1       1.388   8.401  20.020  0.00  0.00    +0.000 N 
ATOM      5  C   UNL     1       0.708   8.530  21.275  0.00  0.00    +0.000 C 
ATOM      6  C   UNL     1       0.745  10.050  21.524  0.00  0.00    +0.000 C 
ATOM      7  C   UNL     1      -0.407  10.404  22.424  0.00  0.00    +0.000 C 
ATOM      8  O   UNL     1      -0.719   9.692  23.379  0.00  0.00    +0.000 OA
ATOM      9  N   UNL     1      -1.016  11.601  22.124  0.00  0.00    +0.000 N 
ATOM     10  C   UNL     1      -1.883  12.201  23.130  0.00  0.00    +0.000 C 
ATOM     11  C   UNL     1      -1.162  11.920  20.791  0.00  0.00    +0.000 C 
ATOM     12  N   UNL     1      -1.772  13.092  20.461  0.00  0.00    +0.000 N 
ATOM     13  N   UNL     1      -0.690  11.188  19.835  0.00  0.00    +0.000 NA
ATOM     14  C   UNL     1       0.683  10.714  20.138  0.00  0.00    +0.000 C 
ATOM     15  C   UNL     1       1.222   9.582  19.200  0.00  0.00    +0.000 C 
ATOM     16  N   UNL     1       2.876   7.550  18.484  0.00  0.00    +0.000 NA
ATOM     17  C   UNL     1       3.609   6.530  18.009  0.00  0.00    +0.000 A 
ATOM     18  C   UNL     1       3.609   5.286  18.592  0.00  0.00    +0.000 A 
ATOM     19  F   UNL     1       4.313   4.265  18.096  0.00  0.00    +0.000 F 
ATOM     20  H   UNL     1      -1.571  13.837  21.121  0.00  0.00    +0.000 HD
ATOM     21  H   UNL     1      -1.456  13.378  19.536  0.00  0.00    +0.000 HD
ENDROOT
BRANCH  14  22
ATOM     22  C   UNL     1       1.538  11.930  19.730  0.00  0.00    +0.000 A 
ATOM     23  C   UNL     1       1.964  12.936  20.587  0.00  0.00    +0.000 A 
ATOM     24  C   UNL     1       2.767  13.970  20.087  0.00  0.00    +0.000 A 
ATOM     25  C   UNL     1       3.137  14.018  18.738  0.00  0.00    +0.000 A 
ATOM     26  C   UNL     1       2.674  13.057  17.855  0.00  0.00    +0.000 A 
ATOM     27  C   UNL     1       1.864  12.043  18.344  0.00  0.00    +0.000 A 
ENDBRANCH  14  22
BRANCH  17  28
ATOM     28  O   UNL     1       4.387   6.731  16.892  0.00  0.00    +0.000 OA
ATOM     29  C   UNL     1       5.767   6.916  17.197  0.00  0.00    +0.000 C 
ENDBRANCH  17  28
BRANCH   1  30
ATOM     30  O   UNL     1       2.780   3.936  20.331  0.00  0.00    +0.000 OA
BRANCH  30  32
ATOM     31  C   UNL     1       0.846   2.864  19.428  0.00  0.00    +0.000 C 
ATOM     32  C   UNL     1       1.443   3.536  20.648  0.00  0.00    +0.000 C 
ENDBRANCH  30  32
ENDBRANCH   1  30
TORSDOF 4
ENDMDL
MODEL 3
REMARK VINA RESULT:      -7.1      7.328     10.763
REMARK  Name = 
REMARK  7 active torsions:
REMARK  status: ('A' for Active; 'I' for Inactive)
REMARK    1  A    between atoms: C_1  and  C_2
REMARK    2  A    between atoms: C_2  and  O_3
REMARK    3  A    between atoms: O_3  and  C_4
REMARK    4  A    between atoms: N_12  and  C_13
REMARK    5  A    between atoms: C_17  and  C_18
REMARK    6  A    between atoms: C_26  and  O_27
REMARK    7  A    between atoms: O_27  and  C_28
REMARK                            x       y       z     vdW  Elec       q    Type
REMARK                         _______ _______ _______ _____ _____    ______ ____
ROOT
ATOM      1  C   UNL     1       3.224  16.865  18.907  0.00  0.00    +0.000 A 
ATOM      2  N   UNL     1       4.572  16.847  18.998  0.00  0.00    +0.000 NA
ATOM      3  C   UNL     1       5.190  15.726  18.601  0.00  0.00    +0.000 A 
ATOM      4  N   UNL     1       6.545  15.658  18.604  0.00  0.00    +0.000 N 
ATOM      5  C   UNL     1       7.467  16.575  19.207  0.00  0.00    +0.000 C 
ATOM      6  C   UNL     1       8.649  15.663  19.586  0.00  0.00    +0.000 C 
ATOM      7  C   UNL     1       9.890  16.509  19.650  0.00  0.00    +0.000 C 
ATOM      8  O   UNL     1       9.876  17.636  20.147  0.00  0.00    +0.000 OA
ATOM      9  N   UNL     1      11.024  15.892  19.172  0.00  0.00    +0.000 N 
ATOM     10  C   UNL     1      12.317  16.471  19.516  0.00  0.00    +0.000 C 
ATOM     11  C   UNL     1      10.888  15.090  18.060  0.00  0.00    +0.000 C 
ATOM     12  N   UNL     1      11.994  14.475  17.556  0.00  0.00    +0.000 N 
ATOM     13  N   UNL     1       9.746  14.842  17.506  0.00  0.00    +0.000 NA
ATOM     14  C   UNL     1       8.699  14.557  18.518  0.00  0.00    +0.000 C 
ATOM     15  C   UNL     1       7.230  14.548  17.977  0.00  0.00    +0.000 C 
ATOM     16  N   UNL     1       4.523  14.641  18.185  0.00  0.00    +0.000 NA
ATOM     17  C   UNL     1       3.182  14.683  18.138  0.00  0.00    +0.000 A 
ATOM     18  C   UNL     1       2.467  15.807  18.471  0.00  0.00    +0.000 A 
ATOM     19  F   UNL     1       1.133  15.855  18.391  0.00  0.00    +0.000 F 
ATOM     20  H   UNL     1      12.650  14.198  18.279  0.00  0.00    +0.000 HD
ATOM     21  H   UNL     1      11.702  13.647  17.040  0.00  0.00    +0.000 HD
ENDROOT
BRANCH  14  22
ATOM     22  C   UNL     1       8.955  13.070  18.833  0.00  0.00    +0.000 A 
ATOM     23  C   UNL     1       8.941  12.038  17.904  0.00  0.00    +0.000 A 
ATOM     24  C   UNL     1       9.224  10.732  18.324  0.00  0.00    +0.000 A 
ATOM     25  C   UNL     1       9.506  10.442  19.664  0.00  0.00    +0.000 A 
ATOM     26  C   UNL     1       9.468  11.447  20.616  0.00  0.00    +0.000 A 
ATOM     27  C   UNL     1       9.169  12.737  20.206  0.00  0.00    +0.000 A 
ENDBRANCH  14  22
BRANCH  17  28
ATOM     28  O   UNL     1       2.493  13.561  17.738  0.00  0.00    +0.000 OA
ATOM     29  C   UNL     1       2.170  12.687  18.816  0.00  0.00    +0.000 C 
ENDBRANCH  17  28
BRANCH   1  30
ATOM     30  O   UNL     1       2.553  18.037  19.215  0.00  0.00    +0.000 OA
BRANCH  30  32
ATOM     31  C   UNL     1       0.760  18.305  20.770  0.00  0.00    +0.000 C 
ATOM     32  C   UNL     1       2.261  18.168  20.610  0.00  0.00    +0.000 C 
ENDBRANCH  30  32
ENDBRANCH   1  30
TORSDOF 4
ENDMDL
MODEL 4
REMARK VINA RESULT:      -7.0      1.012      1.349
REMARK  Name = 
REMARK  7 active torsions:
REMARK  status: ('A' for Active; 'I' for Inactive)
REMARK    1  A    between atoms: C_1  and  C_2
REMARK    2  A    between atoms: C_2  and  O_3
REMARK    3  A    between atoms: O_3  and  C_4
REMARK    4  A    between atoms: N_12  and  C_13
REMARK    5  A    between atoms: C_17  and  C_18
REMARK    6  A    between atoms: C_26  and  O_27
REMARK    7  A    between atoms: O_27  and  C_28
REMARK                            x       y       z     vdW  Elec       q    Type
REMARK                         _______ _______ _______ _____ _____    ______ ____
ROOT
ATOM      1  C   UNL     1       1.940   5.741  19.876  0.00  0.00    +0.000 A 
ATOM      2  N   UNL     1       1.365   6.859  20.372  0.00  0.00    +0.000 NA
ATOM      3  C   UNL     1       1.604   8.004  19.717  0.00  0.00    +0.000 A 
ATOM      4  N   UNL     1       1.010   9.155  20.119  0.00  0.00    +0.000 N 
ATOM      5  C   UNL     1       0.295   9.393  21.339  0.00  0.00    +0.000 C 
ATOM      6  C   UNL     1       0.565  10.886  21.601  0.00  0.00    +0.000 C 
ATOM      7  C   UNL     1      -0.559  11.423  22.444  0.00  0.00    +0.000 C 
ATOM      8  O   UNL     1      -1.031  10.771  23.376  0.00  0.00    +0.000 OA
ATOM      9  N   UNL     1      -0.949  12.703  22.123  0.00  0.00    +0.000 N 
ATOM     10  C   UNL     1      -1.758  13.437  23.088  0.00  0.00    +0.000 C 
ATOM     11  C   UNL     1      -0.972  13.042  20.787  0.00  0.00    +0.000 C 
ATOM     12  N   UNL     1      -1.366  14.297  20.436  0.00  0.00    +0.000 N 
ATOM     13  N   UNL     1      -0.576  12.242  19.851  0.00  0.00    +0.000 NA
ATOM     14  C   UNL     1       0.684  11.552  20.220  0.00  0.00    +0.000 C 
ATOM     15  C   UNL     1       1.081  10.347  19.302  0.00  0.00    +0.000 C 
ATOM     16  N   UNL     1       2.418   8.073  18.655  0.00  0.00    +0.000 NA
ATOM     17  C   UNL     1       2.999   6.947  18.209  0.00  0.00    +0.000 A 
ATOM     18  C   UNL     1       2.767   5.720  18.781  0.00  0.00    +0.000 A 
ATOM     19  F   UNL     1       3.321   4.598  18.314  0.00  0.00    +0.000 F 
ATOM     20  H   UNL     1      -1.081  14.999  21.111  0.00  0.00    +0.000 HD
ATOM     21  H   UNL     1      -0.960  14.527  19.531  0.00  0.00    +0.000 HD
ENDROOT
BRANCH  14  22
ATOM     22  C   UNL     1       1.745  12.612  19.866  0.00  0.00    +0.000 A 
ATOM     23  C   UNL     1       2.454  13.377  20.783  0.00  0.00    +0.000 A 
ATOM     24  C   UNL     1       3.416  14.285  20.323  0.00  0.00    +0.000 A 
ATOM     25  C   UNL     1       3.669  14.449  18.956  0.00  0.00    +0.000 A 
ATOM     26  C   UNL     1       2.933  13.739  18.022  0.00  0.00    +0.000 A 
ATOM     27  C   UNL     1       1.966  12.853  18.475  0.00  0.00    +0.000 A 
ENDBRANCH  14  22
BRANCH  17  28
ATOM     28  O   UNL     1       3.857   7.019  17.136  0.00  0.00    +0.000 OA
ATOM     29  C   UNL     1       5.227   6.886  17.504  0.00  0.00    +0.000 C 
ENDBRANCH  17  28
BRANCH   1  30
ATOM     30  O   UNL     1       1.641   4.523  20.465  0.00  0.00    +0.000 OA
BRANCH  30  32
ATOM     31  C   UNL     1       2.491   2.640  21.664  0.00  0.00    +0.000 C 
ATOM     32  C   UNL     1       2.579   4.142  21.475  0.00  0.00    +0.000 C 
ENDBRANCH  30  32
ENDBRANCH   1  30
TORSDOF 4
ENDMDL
MODEL 5
REMARK VINA RESULT:      -6.8      3.154      8.456
REMARK  Name = 
REMARK  7 active torsions:
REMARK  status: ('A' for Active; 'I' for Inactive)
REMARK    1  A    between atoms: C_1  and  C_2
REMARK    2  A    between atoms: C_2  and  O_3
REMARK    3  A    between atoms: O_3  and  C_4
REMARK    4  A    between atoms: N_12  and  C_13
REMARK    5  A    between atoms: C_17  and  C_18
REMARK    6  A    between atoms: C_26  and  O_27
REMARK    7  A    between atoms: O_27  and  C_28
REMARK                            x       y       z     vdW  Elec       q    Type
REMARK                         _______ _______ _______ _____ _____    ______ ____
ROOT
ATOM      1  C   UNL     1       1.650  11.570  18.111  0.00  0.00    +0.000 A 
ATOM      2  N   UNL     1       2.461  10.496  17.981  0.00  0.00    +0.000 NA
ATOM      3  C   UNL     1       1.903   9.291  18.166  0.00  0.00    +0.000 A 
ATOM      4  N   UNL     1       2.639   8.166  17.989  0.00  0.00    +0.000 N 
ATOM      5  C   UNL     1       4.061   8.063  17.840  0.00  0.00    +0.000 C 
ATOM      6  C   UNL     1       4.366   6.687  18.461  0.00  0.00    +0.000 C 
ATOM      7  C   UNL     1       5.643   6.174  17.854  0.00  0.00    +0.000 C 
ATOM      8  O   UNL     1       6.603   6.918  17.652  0.00  0.00    +0.000 OA
ATOM      9  N   UNL     1       5.655   4.818  17.616  0.00  0.00    +0.000 N 
ATOM     10  C   UNL     1       6.940   4.174  17.378  0.00  0.00    +0.000 C 
ATOM     11  C   UNL     1       4.488   4.245  17.158  0.00  0.00    +0.000 C 
ATOM     12  N   UNL     1       4.471   2.908  16.902  0.00  0.00    +0.000 N 
ATOM     13  N   UNL     1       3.385   4.907  17.020  0.00  0.00    +0.000 NA
ATOM     14  C   UNL     1       3.138   5.805  18.175  0.00  0.00    +0.000 C 
ATOM     15  C   UNL     1       2.006   6.865  17.968  0.00  0.00    +0.000 C 
ATOM     16  N   UNL     1       0.620   9.135  18.520  0.00  0.00    +0.000 NA
ATOM     17  C   UNL     1      -0.148  10.226  18.673  0.00  0.00    +0.000 A 
ATOM     18  C   UNL     1       0.322  11.497  18.449  0.00  0.00    +0.000 A 
ATOM     19  F   UNL     1      -0.454  12.578  18.570  0.00  0.00    +0.000 F 
ATOM     20  H   UNL     1       5.054   2.380  17.543  0.00  0.00    +0.000 HD
ATOM     21  H   UNL     1       3.513   2.572  16.975  0.00  0.00    +0.000 HD
ENDROOT
BRANCH  14  22
ATOM     22  C   UNL     1       2.517   4.839  19.203  0.00  0.00    +0.000 A 
ATOM     23  C   UNL     1       2.910   4.717  20.530  0.00  0.00    +0.000 A 
ATOM     24  C   UNL     1       2.234   3.818  21.365  0.00  0.00    +0.000 A 
ATOM     25  C   UNL     1       1.181   3.029  20.888  0.00  0.00    +0.000 A 
ATOM     26  C   UNL     1       0.813   3.093  19.555  0.00  0.00    +0.000 A 
ATOM     27  C   UNL     1       1.492   3.968  18.721  0.00  0.00    +0.000 A 
ENDBRANCH  14  22
BRANCH  17  28
ATOM     28  O   UNL     1      -1.458  10.071  19.064  0.00  0.00    +0.000 OA
ATOM     29  C   UNL     1      -2.365  10.008  17.967  0.00  0.00    +0.000 C 
ENDBRANCH  17  28
BRANCH   1  30
ATOM     30  O   UNL     1       2.164  12.826  17.834  0.00  0.00    +0.000 OA
BRANCH  30  32
ATOM     31  C   UNL     1       2.539  14.981  18.793  0.00  0.00    +0.000 C 
ATOM     32  C   UNL     1       2.690  13.486  18.989  0.00  0.00    +0.000 C 
ENDBRANCH  30  32
ENDBRANCH   1  30
TORSDOF 4
ENDMDL
MODEL 6
REMARK VINA RESULT:      -6.6      7.913      9.329
REMARK  Name = 
REMARK  7 active torsions:
REMARK  status: ('A' for Active; 'I' for Inactive)
REMARK    1  A    between atoms: C_1  and  C_2
REMARK    2  A    between atoms: C_2  and  O_3
REMARK    3  A    between atoms: O_3  and  C_4
REMARK    4  A    between atoms: N_12  and  C_13
REMARK    5  A    between atoms: C_17  and  C_18
REMARK    6  A    between atoms: C_26  and  O_27
REMARK    7  A    between atoms: O_27  and  C_28
REMARK                            x       y       z     vdW  Elec       q    Type
REMARK                         _______ _______ _______ _____ _____    ______ ____
ROOT
ATOM      1  C   UNL     1       9.704  10.770  19.913  0.00  0.00    +0.000 A 
ATOM      2  N   UNL     1       8.945  11.024  21.001  0.00  0.00    +0.000 NA
ATOM      3  C   UNL     1       9.166  12.184  21.635  0.00  0.00    +0.000 A 
ATOM      4  N   UNL     1       8.400  12.536  22.698  0.00  0.00    +0.000 N 
ATOM      5  C   UNL     1       7.479  11.713  23.425  0.00  0.00    +0.000 C 
ATOM      6  C   UNL     1       7.548  12.305  24.846  0.00  0.00    +0.000 C 
ATOM      7  C   UNL     1       6.255  11.991  25.546  0.00  0.00    +0.000 C 
ATOM      8  O   UNL     1       5.709  10.894  25.427  0.00  0.00    +0.000 OA
ATOM      9  N   UNL     1       5.791  12.998  26.361  0.00  0.00    +0.000 N 
ATOM     10  C   UNL     1       4.767  12.669  27.344  0.00  0.00    +0.000 C 
ATOM     11  C   UNL     1       5.947  14.294  25.918  0.00  0.00    +0.000 C 
ATOM     12  N   UNL     1       5.487  15.313  26.697  0.00  0.00    +0.000 N 
ATOM     13  N   UNL     1       6.568  14.595  24.824  0.00  0.00    +0.000 NA
ATOM     14  C   UNL     1       7.817  13.810  24.672  0.00  0.00    +0.000 C 
ATOM     15  C   UNL     1       8.477  13.870  23.254  0.00  0.00    +0.000 C 
ATOM     16  N   UNL     1      10.128  13.040  21.262  0.00  0.00    +0.000 NA
ATOM     17  C   UNL     1      10.886  12.739  20.196  0.00  0.00    +0.000 A 
ATOM     18  C   UNL     1      10.693  11.601  19.450  0.00  0.00    +0.000 A 
ATOM     19  F   UNL     1      11.427  11.323  18.369  0.00  0.00    +0.000 F 
ATOM     20  H   UNL     1       5.587  15.122  27.688  0.00  0.00    +0.000 HD
ATOM     21  H   UNL     1       6.007  16.159  26.471  0.00  0.00    +0.000 HD
ENDROOT
BRANCH  14  22
ATOM     22  C   UNL     1       8.806  14.611  25.542  0.00  0.00    +0.000 A 
ATOM     23  C   UNL     1       9.298  14.209  26.776  0.00  0.00    +0.000 A 
ATOM     24  C   UNL     1      10.220  15.024  27.446  0.00  0.00    +0.000 A 
ATOM     25  C   UNL     1      10.645  16.242  26.905  0.00  0.00    +0.000 A 
ATOM     26  C   UNL     1      10.122  16.689  25.703  0.00  0.00    +0.000 A 
ATOM     27  C   UNL     1       9.196  15.893  25.047  0.00  0.00    +0.000 A 
ENDBRANCH  14  22
BRANCH  17  28
ATOM     28  O   UNL     1      11.892  13.602  19.827  0.00  0.00    +0.000 OA
ATOM     29  C   UNL     1      11.437  14.670  19.000  0.00  0.00    +0.000 C 
ENDBRANCH  17  28
BRANCH   1  30
ATOM     30  O   UNL     1       9.442   9.628  19.172  0.00  0.00    +0.000 OA
BRANCH  30  32
ATOM     31  C   UNL     1       7.928   8.469  17.734  0.00  0.00    +0.000 C 
ATOM     32  C   UNL     1       8.442   9.827  18.168  0.00  0.00    +0.000 C 
ENDBRANCH  30  32
ENDBRANCH   1  30
TORSDOF 4
ENDMDL
MODEL 7
REMARK VINA RESULT:      -6.6      7.124     10.534
REMARK  Name = 
REMARK  7 active torsions:
REMARK  status: ('A' for Active; 'I' for Inactive)
REMARK    1  A    between atoms: C_1  and  C_2
REMARK    2  A    between atoms: C_2  and  O_3
REMARK    3  A    between atoms: O_3  and  C_4
REMARK    4  A    between atoms: N_12  and  C_13
REMARK    5  A    between atoms: C_17  and  C_18
REMARK    6  A    between atoms: C_26  and  O_27
REMARK    7  A    between atoms: O_27  and  C_28
REMARK                            x       y       z     vdW  Elec       q    Type
REMARK                         _______ _______ _______ _____ _____    ______ ____
ROOT
ATOM      1  C   UNL     1       2.594  16.326  18.801  0.00  0.00    +0.000 A 
ATOM      2  N   UNL     1       3.934  16.499  18.831  0.00  0.00    +0.000 NA
ATOM      3  C   UNL     1       4.688  15.443  18.496  0.00  0.00    +0.000 A 
ATOM      4  N   UNL     1       6.039  15.561  18.441  0.00  0.00    +0.000 N 
ATOM      5  C   UNL     1       6.844  16.642  18.926  0.00  0.00    +0.000 C 
ATOM      6  C   UNL     1       8.154  15.935  19.321  0.00  0.00    +0.000 C 
ATOM      7  C   UNL     1       9.267  16.945  19.259  0.00  0.00    +0.000 C 
ATOM      8  O   UNL     1       9.113  18.097  19.665  0.00  0.00    +0.000 OA
ATOM      9  N   UNL     1      10.458  16.450  18.780  0.00  0.00    +0.000 N 
ATOM     10  C   UNL     1      11.669  17.226  19.016  0.00  0.00    +0.000 C 
ATOM     11  C   UNL     1      10.396  15.544  17.743  0.00  0.00    +0.000 C 
ATOM     12  N   UNL     1      11.559  15.045  17.239  0.00  0.00    +0.000 N 
ATOM     13  N   UNL     1       9.281  15.096  17.265  0.00  0.00    +0.000 NA
ATOM     14  C   UNL     1       8.321  14.759  18.344  0.00  0.00    +0.000 C 
ATOM     15  C   UNL     1       6.849  14.505  17.874  0.00  0.00    +0.000 C 
ATOM     16  N   UNL     1       4.164  14.246  18.199  0.00  0.00    +0.000 NA
ATOM     17  C   UNL     1       2.830  14.101  18.212  0.00  0.00    +0.000 A 
ATOM     18  C   UNL     1       1.977  15.141  18.486  0.00  0.00    +0.000 A 
ATOM     19  F   UNL     1       0.648  15.000  18.465  0.00  0.00    +0.000 F 
ATOM     20  H   UNL     1      12.272  14.922  17.950  0.00  0.00    +0.000 HD
ATOM     21  H   UNL     1      11.368  14.144  16.805  0.00  0.00    +0.000 HD
ENDROOT
BRANCH  14  22
ATOM     22  C   UNL     1       8.792  13.353  18.764  0.00  0.00    +0.000 A 
ATOM     23  C   UNL     1       8.962  12.274  17.907  0.00  0.00    +0.000 A 
ATOM     24  C   UNL     1       9.429  11.057  18.421  0.00  0.00    +0.000 A 
ATOM     25  C   UNL     1       9.715  10.901  19.782  0.00  0.00    +0.000 A 
ATOM     26  C   UNL     1       9.497  11.948  20.662  0.00  0.00    +0.000 A 
ATOM     27  C   UNL     1       9.017  13.147  20.159  0.00  0.00    +0.000 A 
ENDBRANCH  14  22
BRANCH  17  28
ATOM     28  O   UNL     1       2.290  12.866  17.934  0.00  0.00    +0.000 OA
ATOM     29  C   UNL     1       1.832  12.181  19.097  0.00  0.00    +0.000 C 
ENDBRANCH  17  28
BRANCH   1  30
ATOM     30  O   UNL     1       1.778  17.418  19.046  0.00  0.00    +0.000 OA
BRANCH  30  32
ATOM     31  C   UNL     1      -0.180  18.173  17.905  0.00  0.00    +0.000 C 
ATOM     32  C   UNL     1       1.331  18.065  17.851  0.00  0.00    +0.000 C 
ENDBRANCH  30  32
ENDBRANCH   1  30
TORSDOF 4
ENDMDL
MODEL 8
REMARK VINA RESULT:      -6.5      4.933      7.347
REMARK  Name = 
REMARK  7 active torsions:
REMARK  status: ('A' for Active; 'I' for Inactive)
REMARK    1  A    between atoms: C_1  and  C_2
REMARK    2  A    between atoms: C_2  and  O_3
REMARK    3  A    between atoms: O_3  and  C_4
REMARK    4  A    between atoms: N_12  and  C_13
REMARK    5  A    between atoms: C_17  and  C_18
REMARK    6  A    between atoms: C_26  and  O_27
REMARK    7  A    between atoms: O_27  and  C_28
REMARK                            x       y       z     vdW  Elec       q    Type
REMARK                         _______ _______ _______ _____ _____    ______ ____
ROOT
ATOM      1  C   UNL     1      -0.355  10.728  19.316  0.00  0.00    +0.000 A 
ATOM      2  N   UNL     1      -1.159  11.540  20.037  0.00  0.00    +0.000 NA
ATOM      3  C   UNL     1      -2.392  11.754  19.555  0.00  0.00    +0.000 A 
ATOM      4  N   UNL     1      -3.276  12.506  20.258  0.00  0.00    +0.000 N 
ATOM      5  C   UNL     1      -3.011  13.335  21.396  0.00  0.00    +0.000 C 
ATOM      6  C   UNL     1      -4.059  14.455  21.248  0.00  0.00    +0.000 C 
ATOM      7  C   UNL     1      -4.325  15.028  22.613  0.00  0.00    +0.000 C 
ATOM      8  O   UNL     1      -3.413  15.223  23.417  0.00  0.00    +0.000 OA
ATOM      9  N   UNL     1      -5.639  15.366  22.841  0.00  0.00    +0.000 N 
ATOM     10  C   UNL     1      -5.937  16.246  23.964  0.00  0.00    +0.000 C 
ATOM     11  C   UNL     1      -6.607  14.527  22.332  0.00  0.00    +0.000 C 
ATOM     12  N   UNL     1      -7.916  14.827  22.552  0.00  0.00    +0.000 N 
ATOM     13  N   UNL     1      -6.331  13.497  21.600  0.00  0.00    +0.000 NA
ATOM     14  C   UNL     1      -5.289  13.808  20.590  0.00  0.00    +0.000 C 
ATOM     15  C   UNL     1      -4.668  12.567  19.866  0.00  0.00    +0.000 C 
ATOM     16  N   UNL     1      -2.810  11.247  18.387  0.00  0.00    +0.000 NA
ATOM     17  C   UNL     1      -1.972  10.472  17.680  0.00  0.00    +0.000 A 
ATOM     18  C   UNL     1      -0.712  10.151  18.123  0.00  0.00    +0.000 A 
ATOM     19  F   UNL     1       0.105   9.351  17.432  0.00  0.00    +0.000 F 
ATOM     20  H   UNL     1      -8.093  15.826  22.556  0.00  0.00    +0.000 HD
ATOM     21  H   UNL     1      -8.479  14.397  21.820  0.00  0.00    +0.000 HD
ENDROOT
BRANCH  14  22
ATOM     22  C   UNL     1      -6.116  14.475  19.473  0.00  0.00    +0.000 A 
ATOM     23  C   UNL     1      -6.083  15.824  19.146  0.00  0.00    +0.000 A 
ATOM     24  C   UNL     1      -6.865  16.292  18.082  0.00  0.00    +0.000 A 
ATOM     25  C   UNL     1      -7.692  15.431  17.351  0.00  0.00    +0.000 A 
ATOM     26  C   UNL     1      -7.783  14.093  17.698  0.00  0.00    +0.000 A 
ATOM     27  C   UNL     1      -7.024  13.632  18.762  0.00  0.00    +0.000 A 
ENDBRANCH  14  22
BRANCH  17  28
ATOM     28  O   UNL     1      -2.389   9.972  16.468  0.00  0.00    +0.000 OA
ATOM     29  C   UNL     1      -3.079  10.934  15.674  0.00  0.00    +0.000 C 
ENDBRANCH  17  28
BRANCH   1  30
ATOM     30  O   UNL     1       0.891  10.403  19.827  0.00  0.00    +0.000 OA
BRANCH  30  32
ATOM     31  C   UNL     1       1.103   8.630  21.413  0.00  0.00    +0.000 C 
ATOM     32  C   UNL     1       0.866  10.116  21.228  0.00  0.00    +0.000 C 
ENDBRANCH  30  32
ENDBRANCH   1  30
TORSDOF 4
ENDMDL
MODEL 9
REMARK VINA RESULT:      -6.4      3.261      7.737
REMARK  Name = 
REMARK  7 active torsions:
REMARK  status: ('A' for Active; 'I' for Inactive)
REMARK    1  A    between atoms: C_1  and  C_2
REMARK    2  A    between atoms: C_2  and  O_3
REMARK    3  A    between atoms: O_3  and  C_4
REMARK    4  A    between atoms: N_12  and  C_13
REMARK    5  A    between atoms: C_17  and  C_18
REMARK    6  A    between atoms: C_26  and  O_27
REMARK    7  A    between atoms: O_27  and  C_28
REMARK                            x       y       z     vdW  Elec       q    Type
REMARK                         _______ _______ _______ _____ _____    ______ ____
ROOT
ATOM      1  C   UNL     1      -0.103  10.355  18.433  0.00  0.00    +0.000 A 
ATOM      2  N   UNL     1       0.308   9.069  18.492  0.00  0.00    +0.000 NA
ATOM      3  C   UNL     1       1.627   8.850  18.397  0.00  0.00    +0.000 A 
ATOM      4  N   UNL     1       2.118   7.591  18.512  0.00  0.00    +0.000 N 
ATOM      5  C   UNL     1       1.384   6.360  18.500  0.00  0.00    +0.000 C 
ATOM      6  C   UNL     1       2.391   5.374  17.878  0.00  0.00    +0.000 C 
ATOM      7  C   UNL     1       2.038   3.989  18.345  0.00  0.00    +0.000 C 
ATOM      8  O   UNL     1       0.867   3.614  18.421  0.00  0.00    +0.000 OA
ATOM      9  N   UNL     1       3.123   3.184  18.609  0.00  0.00    +0.000 N 
ATOM     10  C   UNL     1       2.902   1.747  18.712  0.00  0.00    +0.000 C 
ATOM     11  C   UNL     1       4.216   3.771  19.208  0.00  0.00    +0.000 C 
ATOM     12  N   UNL     1       5.301   2.998  19.492  0.00  0.00    +0.000 N 
ATOM     13  N   UNL     1       4.287   5.038  19.457  0.00  0.00    +0.000 NA
ATOM     14  C   UNL     1       3.786   5.847  18.319  0.00  0.00    +0.000 C 
ATOM     15  C   UNL     1       3.542   7.362  18.632  0.00  0.00    +0.000 C 
ATOM     16  N   UNL     1       2.511   9.837  18.194  0.00  0.00    +0.000 NA
ATOM     17  C   UNL     1       2.064  11.100  18.107  0.00  0.00    +0.000 A 
ATOM     18  C   UNL     1       0.737  11.425  18.250  0.00  0.00    +0.000 A 
ATOM     19  F   UNL     1       0.302  12.687  18.196  0.00  0.00    +0.000 F 
ATOM     20  H   UNL     1       5.456   2.273  18.800  0.00  0.00    +0.000 HD
ATOM     21  H   UNL     1       6.126   3.594  19.536  0.00  0.00    +0.000 HD
ENDROOT
BRANCH  14  22
ATOM     22  C   UNL     1       5.014   5.885  17.389  0.00  0.00    +0.000 A 
ATOM     23  C   UNL     1       6.231   6.483  17.689  0.00  0.00    +0.000 A 
ATOM     24  C   UNL     1       7.277   6.414  16.760  0.00  0.00    +0.000 A 
ATOM     25  C   UNL     1       7.118   5.768  15.528  0.00  0.00    +0.000 A 
ATOM     26  C   UNL     1       5.895   5.216  15.186  0.00  0.00    +0.000 A 
ATOM     27  C   UNL     1       4.852   5.299  16.096  0.00  0.00    +0.000 A 
ENDBRANCH  14  22
BRANCH  17  28
ATOM     28  O   UNL     1       2.966  12.112  17.872  0.00  0.00    +0.000 OA
ATOM     29  C   UNL     1       2.889  13.164  18.829  0.00  0.00    +0.000 C 
ENDBRANCH  17  28
BRANCH   1  30
ATOM     30  O   UNL     1      -1.446  10.633  18.624  0.00  0.00    +0.000 OA
BRANCH  30  32
ATOM     31  C   UNL     1      -3.386   9.675  17.612  0.00  0.00    +0.000 C 
ATOM     32  C   UNL     1      -2.204  10.603  17.411  0.00  0.00    +0.000 C 
ENDBRANCH  30  32
ENDBRANCH   1  30
TORSDOF 4
ENDMDL
