MODEL 1
REMARK VINA RESULT:      -7.2      0.000      0.000
REMARK  Name = 
REMARK  10 active torsions:
REMARK  status: ('A' for Active; 'I' for Inactive)
REMARK    1  A    between atoms: C_1  and  C_2
REMARK    2  A    between atoms: C_7  and  C_8
REMARK    3  A    between atoms: C_8  and  N_9
REMARK    4  A    between atoms: C_12  and  C_13
REMARK    5  A    between atoms: C_13  and  N_14
REMARK    6  A    between atoms: C_15  and  O_17
REMARK    7  A    between atoms: O_17  and  C_18
REMARK    8  A    between atoms: C_18  and  C_19
REMARK    9  A    between atoms: C_18  and  C_20
REMARK   10  A    between atoms: C_18  and  C_21
REMARK                            x       y       z     vdW  Elec       q    Type
REMARK                         _______ _______ _______ _____ _____    ______ ____
ROOT
ATOM      1  N   UNL     1       4.554   5.428  18.701  0.00  0.00    +0.000 N 
ATOM      2  C   UNL     1       5.484   4.482  19.027  0.00  0.00    +0.000 A 
ATOM      3  N   UNL     1       6.472   4.446  18.158  0.00  0.00    +0.000 NA
ATOM      4  C   UNL     1       6.185   5.429  17.240  0.00  0.00    +0.000 A 
ATOM      5  C   UNL     1       4.978   6.029  17.546  0.00  0.00    +0.000 A 
ENDROOT
BRANCH   1   6
ATOM      6  C   UNL     1       3.460   5.865  19.554  0.00  0.00    +0.000 C 
BRANCH   6  13
ATOM      7  C   UNL     1       1.442   4.348  17.734  0.00  0.00    +0.000 C 
ATOM      8  C   UNL     1       1.653   4.043  19.192  0.00  0.00    +0.000 A 
ATOM      9  C   UNL     1       0.871   3.011  19.750  0.00  0.00    +0.000 A 
ATOM     10  C   UNL     1       1.010   2.635  21.084  0.00  0.00    +0.000 A 
ATOM     11  C   UNL     1       1.935   3.285  21.889  0.00  0.00    +0.000 A 
ATOM     12  C   UNL     1       2.701   4.323  21.363  0.00  0.00    +0.000 A 
ATOM     13  C   UNL     1       2.572   4.728  20.018  0.00  0.00    +0.000 A 
ENDBRANCH   6  13
ENDBRANCH   1   6
BRANCH   4  14
ATOM     14  C   UNL     1       7.137   5.753  16.147  0.00  0.00    +0.000 C 
BRANCH  14  15
ATOM     15  N   UNL     1       7.269   4.627  15.259  0.00  0.00    +0.000 N 
ATOM     16  C   UNL     1       6.242   4.307  14.432  0.00  0.00    +0.000 C 
ATOM     17  O   UNL     1       5.162   4.889  14.453  0.00  0.00    +0.000 OA
ATOM     18  H   UNL     1       8.177   4.214  15.096  0.00  0.00    +0.000 HD
BRANCH  16  19
ATOM     19  O   UNL     1       6.564   3.267  13.623  0.00  0.00    +0.000 OA
BRANCH  19  20
ATOM     20  C   UNL     1       6.422   3.443  12.187  0.00  0.00    +0.000 C 
ATOM     21  C   UNL     1       7.195   4.675  11.698  0.00  0.00    +0.000 C 
ATOM     22  C   UNL     1       7.015   2.187  11.523  0.00  0.00    +0.000 C 
ATOM     23  C   UNL     1       4.938   3.514  11.794  0.00  0.00    +0.000 C 
ENDBRANCH  19  20
ENDBRANCH  16  19
ENDBRANCH  14  15
ENDBRANCH   4  14
TORSDOF 6
ENDMDL
MODEL 2
REMARK VINA RESULT:      -7.1      5.773      8.299
REMARK  Name = 
REMARK  10 active torsions:
REMARK  status: ('A' for Active; 'I' for Inactive)
REMARK    1  A    between atoms: C_1  and  C_2
REMARK    2  A    between atoms: C_7  and  C_8
REMARK    3  A    between atoms: C_8  and  N_9
REMARK    4  A    between atoms: C_12  and  C_13
REMARK    5  A    between atoms: C_13  and  N_14
REMARK    6  A    between atoms: C_15  and  O_17
REMARK    7  A    between atoms: O_17  and  C_18
REMARK    8  A    between atoms: C_18  and  C_19
REMARK    9  A    between atoms: C_18  and  C_20
REMARK   10  A    between atoms: C_18  and  C_21
REMARK                            x       y       z     vdW  Elec       q    Type
REMARK                         _______ _______ _______ _____ _____    ______ ____
ROOT
ATOM      1  N   UNL     1       2.339   7.452  19.128  0.00  0.00    +0.000 N 
ATOM      2  C   UNL     1       2.387   7.934  17.851  0.00  0.00    +0.000 A 
ATOM      3  N   UNL     1       1.748   9.078  17.735  0.00  0.00    +0.000 NA
ATOM      4  C   UNL     1       1.284   9.366  18.997  0.00  0.00    +0.000 A 
ATOM      5  C   UNL     1       1.616   8.347  19.870  0.00  0.00    +0.000 A 
ENDROOT
BRANCH   1   6
ATOM      6  C   UNL     1       3.112   6.329  19.636  0.00  0.00    +0.000 C 
BRANCH   6  13
ATOM      7  C   UNL     1       0.920   4.295  20.497  0.00  0.00    +0.000 C 
ATOM      8  C   UNL     1       1.828   4.102  19.312  0.00  0.00    +0.000 A 
ATOM      9  C   UNL     1       1.666   2.916  18.568  0.00  0.00    +0.000 A 
ATOM     10  C   UNL     1       2.439   2.656  17.439  0.00  0.00    +0.000 A 
ATOM     11  C   UNL     1       3.393   3.578  17.031  0.00  0.00    +0.000 A 
ATOM     12  C   UNL     1       3.584   4.746  17.767  0.00  0.00    +0.000 A 
ATOM     13  C   UNL     1       2.820   5.027  18.918  0.00  0.00    +0.000 A 
ENDBRANCH   6  13
ENDBRANCH   1   6
BRANCH   4  14
ATOM     14  C   UNL     1       0.586  10.646  19.280  0.00  0.00    +0.000 C 
BRANCH  14  15
ATOM     15  N   UNL     1      -0.264  10.999  18.173  0.00  0.00    +0.000 N 
ATOM     16  C   UNL     1      -1.512  11.472  18.417  0.00  0.00    +0.000 C 
ATOM     17  O   UNL     1      -1.989  11.548  19.545  0.00  0.00    +0.000 OA
ATOM     18  H   UNL     1       0.125  11.098  17.246  0.00  0.00    +0.000 HD
BRANCH  16  19
ATOM     19  O   UNL     1      -2.144  11.816  17.267  0.00  0.00    +0.000 OA
BRANCH  19  20
ATOM     20  C   UNL     1      -3.251  10.988  16.815  0.00  0.00    +0.000 C 
ATOM     21  C   UNL     1      -4.601  11.665  17.093  0.00  0.00    +0.000 C 
ATOM     22  C   UNL     1      -3.085  10.813  15.295  0.00  0.00    +0.000 C 
ATOM     23  C   UNL     1      -3.177   9.591  17.450  0.00  0.00    +0.000 C 
ENDBRANCH  19  20
ENDBRANCH  16  19
ENDBRANCH  14  15
ENDBRANCH   4  14
TORSDOF 6
ENDMDL
MODEL 3
REMARK VINA RESULT:      -7.1      5.747      8.269
REMARK  Name = 
REMARK  10 active torsions:
REMARK  status: ('A' for Active; 'I' for Inactive)
REMARK    1  A    between atoms: C_1  and  C_2
REMARK    2  A    between atoms: C_7  and  C_8
REMARK    3  A    between atoms: C_8  and  N_9
REMARK    4  A    between atoms: C_12  and  C_13
REMARK    5  A    between atoms: C_13  and  N_14
REMARK    6  A    between atoms: C_15  and  O_17
REMARK    7  A    between atoms: O_17  and  C_18
REMARK    8  A    between atoms: C_18  and  C_19
REMARK    9  A    between atoms: C_18  and  C_20
REMARK   10  A    between atoms: C_18  and  C_21
REMARK                            x       y       z     vdW  Elec       q    Type
REMARK                         _______ _______ _______ _____ _____    ______ ____
ROOT
ATOM      1  N   UNL     1       2.312   7.491  19.113  0.00  0.00    +0.000 N 
ATOM      2  C   UNL     1       2.468   7.952  17.836  0.00  0.00    +0.000 A 
ATOM      3  N   UNL     1       1.885   9.118  17.661  0.00  0.00    +0.000 NA
ATOM      4  C   UNL     1       1.345   9.442  18.883  0.00  0.00    +0.000 A 
ATOM      5  C   UNL     1       1.574   8.425  19.791  0.00  0.00    +0.000 A 
ENDROOT
BRANCH   1   6
ATOM      6  C   UNL     1       3.002   6.348  19.689  0.00  0.00    +0.000 C 
BRANCH   6  13
ATOM      7  C   UNL     1       5.177   5.327  17.710  0.00  0.00    +0.000 C 
ATOM      8  C   UNL     1       3.865   4.630  17.951  0.00  0.00    +0.000 A 
ATOM      9  C   UNL     1       3.622   3.451  17.217  0.00  0.00    +0.000 A 
ATOM     10  C   UNL     1       2.450   2.718  17.388  0.00  0.00    +0.000 A 
ATOM     11  C   UNL     1       1.494   3.151  18.296  0.00  0.00    +0.000 A 
ATOM     12  C   UNL     1       1.705   4.327  19.014  0.00  0.00    +0.000 A 
ATOM     13  C   UNL     1       2.880   5.091  18.852  0.00  0.00    +0.000 A 
ENDBRANCH   6  13
ENDBRANCH   1   6
BRANCH   4  14
ATOM     14  C   UNL     1       0.680  10.753  19.100  0.00  0.00    +0.000 C 
BRANCH  14  15
ATOM     15  N   UNL     1      -0.203  11.045  18.000  0.00  0.00    +0.000 N 
ATOM     16  C   UNL     1      -1.461  11.485  18.255  0.00  0.00    +0.000 C 
ATOM     17  O   UNL     1      -1.919  11.578  19.390  0.00  0.00    +0.000 OA
ATOM     18  H   UNL     1       0.166  11.130  17.064  0.00  0.00    +0.000 HD
BRANCH  16  19
ATOM     19  O   UNL     1      -2.126  11.774  17.109  0.00  0.00    +0.000 OA
BRANCH  19  20
ATOM     20  C   UNL     1      -3.243  10.925  16.728  0.00  0.00    +0.000 C 
ATOM     21  C   UNL     1      -4.583  11.645  16.933  0.00  0.00    +0.000 C 
ATOM     22  C   UNL     1      -3.072  10.608  15.231  0.00  0.00    +0.000 C 
ATOM     23  C   UNL     1      -3.195   9.592  17.489  0.00  0.00    +0.000 C 
ENDBRANCH  19  20
ENDBRANCH  16  19
ENDBRANCH  14  15
ENDBRANCH   4  14
TORSDOF 6
ENDMDL
MODEL 4
REMARK VINA RESULT:      -6.9      5.747      8.377
REMARK  Name = 
REMARK  10 active torsions:
REMARK  status: ('A' for Active; 'I' for Inactive)
REMARK    1  A    between atoms: C_1  and  C_2
REMARK    2  A    between atoms: C_7  and  C_8
REMARK    3  A    between atoms: C_8  and  N_9
REMARK    4  A    between atoms: C_12  and  C_13
REMARK    5  A    between atoms: C_13  and  N_14
REMARK    6  A    between atoms: C_15  and  O_17
REMARK    7  A    between atoms: O_17  and  C_18
REMARK    8  A    between atoms: C_18  and  C_19
REMARK    9  A    between atoms: C_18  and  C_20
REMARK   10  A    between atoms: C_18  and  C_21
REMARK                            x       y       z     vdW  Elec       q    Type
REMARK                         _______ _______ _______ _____ _____    ______ ____
ROOT
ATOM      1  N   UNL     1       2.297   7.537  19.041  0.00  0.00    +0.000 N 
ATOM      2  C   UNL     1       2.536   8.058  17.800  0.00  0.00    +0.000 A 
ATOM      3  N   UNL     1       1.984   9.243  17.652  0.00  0.00    +0.000 NA
ATOM      4  C   UNL     1       1.379   9.517  18.856  0.00  0.00    +0.000 A 
ATOM      5  C   UNL     1       1.538   8.451  19.722  0.00  0.00    +0.000 A 
ENDROOT
BRANCH   1   6
ATOM      6  C   UNL     1       2.933   6.353  19.596  0.00  0.00    +0.000 C 
BRANCH   6  13
ATOM      7  C   UNL     1       1.520   4.214  17.831  0.00  0.00    +0.000 C 
ATOM      8  C   UNL     1       2.989   4.530  17.755  0.00  0.00    +0.000 A 
ATOM      9  C   UNL     1       3.756   3.792  16.830  0.00  0.00    +0.000 A 
ATOM     10  C   UNL     1       5.119   4.027  16.665  0.00  0.00    +0.000 A 
ATOM     11  C   UNL     1       5.745   5.005  17.425  0.00  0.00    +0.000 A 
ATOM     12  C   UNL     1       5.010   5.728  18.362  0.00  0.00    +0.000 A 
ATOM     13  C   UNL     1       3.631   5.503  18.553  0.00  0.00    +0.000 A 
ENDBRANCH   6  13
ENDBRANCH   1   6
BRANCH   4  14
ATOM     14  C   UNL     1       0.726  10.828  19.101  0.00  0.00    +0.000 C 
BRANCH  14  15
ATOM     15  N   UNL     1      -0.167  11.143  18.016  0.00  0.00    +0.000 N 
ATOM     16  C   UNL     1      -1.436  11.535  18.291  0.00  0.00    +0.000 C 
ATOM     17  O   UNL     1      -1.895  11.564  19.430  0.00  0.00    +0.000 OA
ATOM     18  H   UNL     1       0.197  11.280  17.084  0.00  0.00    +0.000 HD
BRANCH  16  19
ATOM     19  O   UNL     1      -2.112  11.855  17.160  0.00  0.00    +0.000 OA
BRANCH  19  20
ATOM     20  C   UNL     1      -3.174  10.967  16.716  0.00  0.00    +0.000 C 
ATOM     21  C   UNL     1      -3.026  10.625  15.227  0.00  0.00    +0.000 C 
ATOM     22  C   UNL     1      -3.046   9.673  17.539  0.00  0.00    +0.000 C 
ATOM     23  C   UNL     1      -4.551  11.575  17.023  0.00  0.00    +0.000 C 
ENDBRANCH  19  20
ENDBRANCH  16  19
ENDBRANCH  14  15
ENDBRANCH   4  14
TORSDOF 6
ENDMDL
MODEL 5
REMARK VINA RESULT:      -6.7      3.331      6.466
REMARK  Name = 
REMARK  10 active torsions:
REMARK  status: ('A' for Active; 'I' for Inactive)
REMARK    1  A    between atoms: C_1  and  C_2
REMARK    2  A    between atoms: C_7  and  C_8
REMARK    3  A    between atoms: C_8  and  N_9
REMARK    4  A    between atoms: C_12  and  C_13
REMARK    5  A    between atoms: C_13  and  N_14
REMARK    6  A    between atoms: C_15  and  O_17
REMARK    7  A    between atoms: O_17  and  C_18
REMARK    8  A    between atoms: C_18  and  C_19
REMARK    9  A    between atoms: C_18  and  C_20
REMARK   10  A    between atoms: C_18  and  C_21
REMARK                            x       y       z     vdW  Elec       q    Type
REMARK                         _______ _______ _______ _____ _____    ______ ____
ROOT
ATOM      1  N   UNL     1       3.550   7.262  17.461  0.00  0.00    +0.000 N 
ATOM      2  C   UNL     1       2.864   8.373  17.862  0.00  0.00    +0.000 A 
ATOM      3  N   UNL     1       2.125   8.136  18.924  0.00  0.00    +0.000 NA
ATOM      4  C   UNL     1       2.357   6.819  19.243  0.00  0.00    +0.000 A 
ATOM      5  C   UNL     1       3.218   6.250  18.323  0.00  0.00    +0.000 A 
ENDROOT
BRANCH   1   6
ATOM      6  C   UNL     1       4.605   7.237  16.460  0.00  0.00    +0.000 C 
BRANCH   6  13
ATOM      7  C   UNL     1       5.298   4.681  14.825  0.00  0.00    +0.000 C 
ATOM      8  C   UNL     1       6.041   5.117  16.059  0.00  0.00    +0.000 A 
ATOM      9  C   UNL     1       7.104   4.298  16.490  0.00  0.00    +0.000 A 
ATOM     10  C   UNL     1       7.870   4.628  17.605  0.00  0.00    +0.000 A 
ATOM     11  C   UNL     1       7.586   5.786  18.315  0.00  0.00    +0.000 A 
ATOM     12  C   UNL     1       6.525   6.597  17.920  0.00  0.00    +0.000 A 
ATOM     13  C   UNL     1       5.729   6.279  16.799  0.00  0.00    +0.000 A 
ENDBRANCH   6  13
ENDBRANCH   1   6
BRANCH   4  14
ATOM     14  C   UNL     1       1.760   6.211  20.460  0.00  0.00    +0.000 C 
BRANCH  14  15
ATOM     15  N   UNL     1       2.512   5.046  20.847  0.00  0.00    +0.000 N 
ATOM     16  C   UNL     1       2.075   3.817  20.472  0.00  0.00    +0.000 C 
ATOM     17  O   UNL     1       1.017   3.637  19.875  0.00  0.00    +0.000 OA
ATOM     18  H   UNL     1       3.452   5.144  21.202  0.00  0.00    +0.000 HD
BRANCH  16  19
ATOM     19  O   UNL     1       2.936   2.845  20.863  0.00  0.00    +0.000 OA
BRANCH  19  20
ATOM     20  C   UNL     1       3.951   2.404  19.920  0.00  0.00    +0.000 C 
ATOM     21  C   UNL     1       4.770   3.590  19.390  0.00  0.00    +0.000 C 
ATOM     22  C   UNL     1       4.889   1.454  20.685  0.00  0.00    +0.000 C 
ATOM     23  C   UNL     1       3.315   1.600  18.776  0.00  0.00    +0.000 C 
ENDBRANCH  19  20
ENDBRANCH  16  19
ENDBRANCH  14  15
ENDBRANCH   4  14
TORSDOF 6
ENDMDL
MODEL 6
REMARK VINA RESULT:      -6.7      5.763      8.297
REMARK  Name = 
REMARK  10 active torsions:
REMARK  status: ('A' for Active; 'I' for Inactive)
REMARK    1  A    between atoms: C_1  and  C_2
REMARK    2  A    between atoms: C_7  and  C_8
REMARK    3  A    between atoms: C_8  and  N_9
REMARK    4  A    between atoms: C_12  and  C_13
REMARK    5  A    between atoms: C_13  and  N_14
REMARK    6  A    between atoms: C_15  and  O_17
REMARK    7  A    between atoms: O_17  and  C_18
REMARK    8  A    between atoms: C_18  and  C_19
REMARK    9  A    between atoms: C_18  and  C_20
REMARK   10  A    between atoms: C_18  and  C_21
REMARK                            x       y       z     vdW  Elec       q    Type
REMARK                         _______ _______ _______ _____ _____    ______ ____
ROOT
ATOM      1  N   UNL     1       2.553   7.856  18.396  0.00  0.00    +0.000 N 
ATOM      2  C   UNL     1       2.191   7.536  19.674  0.00  0.00    +0.000 A 
ATOM      3  N   UNL     1       1.403   8.447  20.203  0.00  0.00    +0.000 NA
ATOM      4  C   UNL     1       1.224   9.390  19.217  0.00  0.00    +0.000 A 
ATOM      5  C   UNL     1       1.959   9.053  18.096  0.00  0.00    +0.000 A 
ENDROOT
BRANCH   1   6
ATOM      6  C   UNL     1       3.237   6.971  17.466  0.00  0.00    +0.000 C 
BRANCH   6  13
ATOM      7  C   UNL     1       1.459   4.422  17.627  0.00  0.00    +0.000 C 
ATOM      8  C   UNL     1       2.860   4.506  18.169  0.00  0.00    +0.000 A 
ATOM      9  C   UNL     1       3.375   3.352  18.795  0.00  0.00    +0.000 A 
ATOM     10  C   UNL     1       4.671   3.320  19.306  0.00  0.00    +0.000 A 
ATOM     11  C   UNL     1       5.478   4.444  19.204  0.00  0.00    +0.000 A 
ATOM     12  C   UNL     1       4.980   5.601  18.610  0.00  0.00    +0.000 A 
ATOM     13  C   UNL     1       3.669   5.661  18.093  0.00  0.00    +0.000 A 
ENDBRANCH   6  13
ENDBRANCH   1   6
BRANCH   4  14
ATOM     14  C   UNL     1       0.303  10.538  19.418  0.00  0.00    +0.000 C 
BRANCH  14  15
ATOM     15  N   UNL     1      -0.445  10.785  18.213  0.00  0.00    +0.000 N 
ATOM     16  C   UNL     1      -1.591  11.509  18.278  0.00  0.00    +0.000 C 
ATOM     17  O   UNL     1      -2.071  11.908  19.335  0.00  0.00    +0.000 OA
ATOM     18  H   UNL     1      -0.025  10.613  17.311  0.00  0.00    +0.000 HD
BRANCH  16  19
ATOM     19  O   UNL     1      -2.126  11.700  17.046  0.00  0.00    +0.000 OA
BRANCH  19  20
ATOM     20  C   UNL     1      -3.263  10.883  16.654  0.00  0.00    +0.000 C 
ATOM     21  C   UNL     1      -4.581  11.653  16.809  0.00  0.00    +0.000 C 
ATOM     22  C   UNL     1      -3.066  10.528  15.169  0.00  0.00    +0.000 C 
ATOM     23  C   UNL     1      -3.281   9.565  17.443  0.00  0.00    +0.000 C 
ENDBRANCH  19  20
ENDBRANCH  16  19
ENDBRANCH  14  15
ENDBRANCH   4  14
TORSDOF 6
ENDMDL
MODEL 7
REMARK VINA RESULT:      -6.7      4.714      7.722
REMARK  Name = 
REMARK  10 active torsions:
REMARK  status: ('A' for Active; 'I' for Inactive)
REMARK    1  A    between atoms: C_1  and  C_2
REMARK    2  A    between atoms: C_7  and  C_8
REMARK    3  A    between atoms: C_8  and  N_9
REMARK    4  A    between atoms: C_12  and  C_13
REMARK    5  A    between atoms: C_13  and  N_14
REMARK    6  A    between atoms: C_15  and  O_17
REMARK    7  A    between atoms: O_17  and  C_18
REMARK    8  A    between atoms: C_18  and  C_19
REMARK    9  A    between atoms: C_18  and  C_20
REMARK   10  A    between atoms: C_18  and  C_21
REMARK                            x       y       z     vdW  Elec       q    Type
REMARK                         _______ _______ _______ _____ _____    ______ ____
ROOT
ATOM      1  N   UNL     1       3.434   6.482  18.512  0.00  0.00    +0.000 N 
ATOM      2  C   UNL     1       4.005   7.042  17.404  0.00  0.00    +0.000 A 
ATOM      3  N   UNL     1       3.376   8.135  17.029  0.00  0.00    +0.000 NA
ATOM      4  C   UNL     1       2.366   8.308  17.946  0.00  0.00    +0.000 A 
ATOM      5  C   UNL     1       2.369   7.269  18.859  0.00  0.00    +0.000 A 
ENDROOT
BRANCH   1   6
ATOM      6  C   UNL     1       4.003   5.398  19.298  0.00  0.00    +0.000 C 
BRANCH   6  13
ATOM      7  C   UNL     1       2.870   3.274  17.326  0.00  0.00    +0.000 C 
ATOM      8  C   UNL     1       2.475   3.372  18.775  0.00  0.00    +0.000 A 
ATOM      9  C   UNL     1       1.523   2.444  19.245  0.00  0.00    +0.000 A 
ATOM     10  C   UNL     1       1.111   2.436  20.575  0.00  0.00    +0.000 A 
ATOM     11  C   UNL     1       1.642   3.358  21.465  0.00  0.00    +0.000 A 
ATOM     12  C   UNL     1       2.566   4.300  21.016  0.00  0.00    +0.000 A 
ATOM     13  C   UNL     1       2.992   4.334  19.671  0.00  0.00    +0.000 A 
ENDBRANCH   6  13
ENDBRANCH   1   6
BRANCH   4  14
ATOM     14  C   UNL     1       1.491   9.507  17.902  0.00  0.00    +0.000 C 
BRANCH  14  15
ATOM     15  N   UNL     1       1.323  10.043  19.228  0.00  0.00    +0.000 N 
ATOM     16  C   UNL     1       0.071  10.230  19.716  0.00  0.00    +0.000 C 
ATOM     17  O   UNL     1      -0.942  10.034  19.051  0.00  0.00    +0.000 OA
ATOM     18  H   UNL     1       2.107  10.078  19.864  0.00  0.00    +0.000 HD
BRANCH  16  19
ATOM     19  O   UNL     1       0.101  10.674  20.997  0.00  0.00    +0.000 OA
BRANCH  19  20
ATOM     20  C   UNL     1      -0.015   9.697  22.068  0.00  0.00    +0.000 C 
ATOM     21  C   UNL     1      -0.567   8.363  21.546  0.00  0.00    +0.000 C 
ATOM     22  C   UNL     1       1.403   9.468  22.619  0.00  0.00    +0.000 C 
ATOM     23  C   UNL     1      -0.871  10.253  23.217  0.00  0.00    +0.000 C 
ENDBRANCH  19  20
ENDBRANCH  16  19
ENDBRANCH  14  15
ENDBRANCH   4  14
TORSDOF 6
ENDMDL
MODEL 8
REMARK VINA RESULT:      -6.7      5.634      8.557
REMARK  Name = 
REMARK  10 active torsions:
REMARK  status: ('A' for Active; 'I' for Inactive)
REMARK    1  A    between atoms: C_1  and  C_2
REMARK    2  A    between atoms: C_7  and  C_8
REMARK    3  A    between atoms: C_8  and  N_9
REMARK    4  A    between atoms: C_12  and  C_13
REMARK    5  A    between atoms: C_13  and  N_14
REMARK    6  A    between atoms: C_15  and  O_17
REMARK    7  A    between atoms: O_17  and  C_18
REMARK    8  A    between atoms: C_18  and  C_19
REMARK    9  A    between atoms: C_18  and  C_20
REMARK   10  A    between atoms: C_18  and  C_21
REMARK                            x       y       z     vdW  Elec       q    Type
REMARK                         _______ _______ _______ _____ _____    ______ ____
ROOT
ATOM      1  N   UNL     1       2.384   7.478  18.564  0.00  0.00    +0.000 N 
ATOM      2  C   UNL     1       2.082   7.385  19.893  0.00  0.00    +0.000 A 
ATOM      3  N   UNL     1       1.423   8.440  20.321  0.00  0.00    +0.000 NA
ATOM      4  C   UNL     1       1.267   9.245  19.216  0.00  0.00    +0.000 A 
ATOM      5  C   UNL     1       1.887   8.675  18.120  0.00  0.00    +0.000 A 
ENDROOT
BRANCH   1   6
ATOM      6  C   UNL     1       2.915   6.402  17.742  0.00  0.00    +0.000 C 
BRANCH   6  13
ATOM      7  C   UNL     1       4.155   4.210  19.570  0.00  0.00    +0.000 C 
ATOM      8  C   UNL     1       4.964   5.190  18.764  0.00  0.00    +0.000 A 
ATOM      9  C   UNL     1       6.367   5.100  18.867  0.00  0.00    +0.000 A 
ATOM     10  C   UNL     1       7.205   5.943  18.142  0.00  0.00    +0.000 A 
ATOM     11  C   UNL     1       6.655   6.898  17.298  0.00  0.00    +0.000 A 
ATOM     12  C   UNL     1       5.271   7.019  17.200  0.00  0.00    +0.000 A 
ATOM     13  C   UNL     1       4.402   6.183  17.931  0.00  0.00    +0.000 A 
ENDBRANCH   6  13
ENDBRANCH   1   6
BRANCH   4  14
ATOM     14  C   UNL     1       0.476  10.500  19.292  0.00  0.00    +0.000 C 
BRANCH  14  15
ATOM     15  N   UNL     1      -0.271  10.685  18.074  0.00  0.00    +0.000 N 
ATOM     16  C   UNL     1      -1.456  11.345  18.114  0.00  0.00    +0.000 C 
ATOM     17  O   UNL     1      -1.969  11.735  19.159  0.00  0.00    +0.000 OA
ATOM     18  H   UNL     1       0.169  10.521  17.180  0.00  0.00    +0.000 HD
BRANCH  16  19
ATOM     19  O   UNL     1      -1.985  11.486  16.874  0.00  0.00    +0.000 OA
BRANCH  19  20
ATOM     20  C   UNL     1      -3.183  10.730  16.546  0.00  0.00    +0.000 C 
ATOM     21  C   UNL     1      -3.118  10.180  15.114  0.00  0.00    +0.000 C 
ATOM     22  C   UNL     1      -3.248   9.549  17.531  0.00  0.00    +0.000 C 
ATOM     23  C   UNL     1      -4.441  11.584  16.767  0.00  0.00    +0.000 C 
ENDBRANCH  19  20
ENDBRANCH  16  19
ENDBRANCH  14  15
ENDBRANCH   4  14
TORSDOF 6
ENDMDL
MODEL 9
REMARK VINA RESULT:      -6.7      2.950      5.074
REMARK  Name = 
REMARK  10 active torsions:
REMARK  status: ('A' for Active; 'I' for Inactive)
REMARK    1  A    between atoms: C_1  and  C_2
REMARK    2  A    between atoms: C_7  and  C_8
REMARK    3  A    between atoms: C_8  and  N_9
REMARK    4  A    between atoms: C_12  and  C_13
REMARK    5  A    between atoms: C_13  and  N_14
REMARK    6  A    between atoms: C_15  and  O_17
REMARK    7  A    between atoms: O_17  and  C_18
REMARK    8  A    between atoms: C_18  and  C_19
REMARK    9  A    between atoms: C_18  and  C_20
REMARK   10  A    between atoms: C_18  and  C_21
REMARK                            x       y       z     vdW  Elec       q    Type
REMARK                         _______ _______ _______ _____ _____    ______ ____
ROOT
ATOM      1  N   UNL     1       1.921   5.617  20.463  0.00  0.00    +0.000 N 
ATOM      2  C   UNL     1       1.089   4.536  20.380  0.00  0.00    +0.000 A 
ATOM      3  N   UNL     1       1.735   3.446  20.027  0.00  0.00    +0.000 NA
ATOM      4  C   UNL     1       3.050   3.828  19.898  0.00  0.00    +0.000 A 
ATOM      5  C   UNL     1       3.178   5.184  20.136  0.00  0.00    +0.000 A 
ENDROOT
BRANCH   1   6
ATOM      6  C   UNL     1       1.569   6.912  21.025  0.00  0.00    +0.000 C 
BRANCH   6  13
ATOM      7  C   UNL     1       0.200   9.675  21.445  0.00  0.00    +0.000 C 
ATOM      8  C   UNL     1       0.923   9.277  20.186  0.00  0.00    +0.000 A 
ATOM      9  C   UNL     1       0.960  10.223  19.142  0.00  0.00    +0.000 A 
ATOM     10  C   UNL     1       1.626   9.961  17.947  0.00  0.00    +0.000 A 
ATOM     11  C   UNL     1       2.268   8.744  17.771  0.00  0.00    +0.000 A 
ATOM     12  C   UNL     1       2.223   7.786  18.781  0.00  0.00    +0.000 A 
ATOM     13  C   UNL     1       1.547   8.024  19.997  0.00  0.00    +0.000 A 
ENDBRANCH   6  13
ENDBRANCH   1   6
BRANCH   4  14
ATOM     14  C   UNL     1       4.109   2.830  19.600  0.00  0.00    +0.000 C 
BRANCH  14  15
ATOM     15  N   UNL     1       5.283   3.494  19.094  0.00  0.00    +0.000 N 
ATOM     16  C   UNL     1       5.393   3.729  17.762  0.00  0.00    +0.000 C 
ATOM     17  O   UNL     1       4.567   3.334  16.943  0.00  0.00    +0.000 OA
ATOM     18  H   UNL     1       5.910   3.968  19.728  0.00  0.00    +0.000 HD
BRANCH  16  19
ATOM     19  O   UNL     1       6.523   4.420  17.473  0.00  0.00    +0.000 OA
BRANCH  19  20
ATOM     20  C   UNL     1       6.397   5.677  16.753  0.00  0.00    +0.000 C 
ATOM     21  C   UNL     1       7.385   6.724  17.285  0.00  0.00    +0.000 C 
ATOM     22  C   UNL     1       6.728   5.383  15.279  0.00  0.00    +0.000 C 
ATOM     23  C   UNL     1       4.949   6.189  16.806  0.00  0.00    +0.000 C 
ENDBRANCH  19  20
ENDBRANCH  16  19
ENDBRANCH  14  15
ENDBRANCH   4  14
TORSDOF 6
ENDMDL
