MODEL 1
REMARK VINA RESULT:      -8.5      0.000      0.000
REMARK  Name = 
REMARK  8 active torsions:
REMARK  status: ('A' for Active; 'I' for Inactive)
REMARK    1  A    between atoms: C_2  and  C_3
REMARK    2  A    between atoms: C_3  and  N_4
REMARK    3  A    between atoms: N_4  and  C_5
REMARK    4  A    between atoms: N_4  and  S_14
REMARK    5  A    between atoms: C_9  and  N_10
REMARK    6  A    between atoms: S_14  and  C_17
REMARK    7  A    between atoms: N_23  and  C_24
REMARK    8  A    between atoms: C_24  and  C_25
REMARK                            x       y       z     vdW  Elec       q    Type
REMARK                         _______ _______ _______ _____ _____    ______ ____
ROOT
ATOM      1  N   UNL     1       3.639   5.497  17.847  0.00  0.00    +0.000 N 
ENDROOT
BRANCH   1   2
ATOM      2  C   UNL     1       4.974   5.296  17.359  0.00  0.00    +0.000 A 
ATOM      3  C   UNL     1       5.980   5.015  18.289  0.00  0.00    +0.000 A 
ATOM      4  C   UNL     1       7.284   4.746  17.871  0.00  0.00    +0.000 A 
ATOM      5  C   UNL     1       7.590   4.721  16.510  0.00  0.00    +0.000 A 
ATOM      6  C   UNL     1       6.576   4.987  15.580  0.00  0.00    +0.000 A 
ATOM      7  C   UNL     1       5.276   5.324  15.997  0.00  0.00    +0.000 A 
BRANCH   6   8
ATOM      8  N   UNL     1       6.869   4.845  14.147  0.00  0.00    +0.000 N 
ATOM      9  O   UNL     1       6.170   4.068  13.487  0.00  0.00    +0.000 OA
ATOM     10  O   UNL     1       7.802   5.521  13.682  0.00  0.00    +0.000 OA
ENDBRANCH   6   8
ENDBRANCH   1   2
BRANCH   1  11
ATOM     11  S   UNL     1       2.529   4.210  17.731  0.00  0.00    +0.000 S 
ATOM     12  O   UNL     1       1.249   4.767  17.324  0.00  0.00    +0.000 OA
ATOM     13  O   UNL     1       3.128   3.146  16.947  0.00  0.00    +0.000 OA
BRANCH  11  14
ATOM     14  C   UNL     1       2.316   3.577  19.385  0.00  0.00    +0.000 A 
ATOM     15  C   UNL     1       1.047   3.559  19.975  0.00  0.00    +0.000 A 
ATOM     16  C   UNL     1       0.876   2.963  21.230  0.00  0.00    +0.000 A 
ATOM     17  C   UNL     1       1.955   2.357  21.876  0.00  0.00    +0.000 A 
ATOM     18  C   UNL     1       3.211   2.343  21.269  0.00  0.00    +0.000 A 
ATOM     19  C   UNL     1       3.393   2.946  20.022  0.00  0.00    +0.000 A 
ENDBRANCH  11  14
ENDBRANCH   1  11
BRANCH   1  20
ATOM     20  C   UNL     1       3.368   6.510  18.895  0.00  0.00    +0.000 C 
BRANCH  20  22
ATOM     21  O   UNL     1       2.544   8.147  17.316  0.00  0.00    +0.000 OA
ATOM     22  C   UNL     1       2.539   7.723  18.474  0.00  0.00    +0.000 C 
ATOM     23  N   UNL     1       1.791   8.309  19.473  0.00  0.00    +0.000 N 
ATOM     24  H   UNL     1       1.979   8.064  20.437  0.00  0.00    +0.000 HD
BRANCH  23  25
ATOM     25  C   UNL     1       0.962   9.481  19.248  0.00  0.00    +0.000 C 
BRANCH  25  26
ATOM     26  C   UNL     1       0.352   9.944  20.541  0.00  0.00    +0.000 A 
ATOM     27  C   UNL     1       0.511   9.233  21.736  0.00  0.00    +0.000 A 
ATOM     28  C   UNL     1      -0.151   9.656  22.886  0.00  0.00    +0.000 A 
ATOM     29  C   UNL     1      -0.951  10.783  22.808  0.00  0.00    +0.000 A 
ATOM     30  N   UNL     1      -1.119  11.503  21.679  0.00  0.00    +0.000 NA
ATOM     31  C   UNL     1      -0.467  11.069  20.576  0.00  0.00    +0.000 A 
ENDBRANCH  25  26
ENDBRANCH  23  25
ENDBRANCH  20  22
ENDBRANCH   1  20
TORSDOF 8
ENDMDL
MODEL 2
REMARK VINA RESULT:      -8.3      2.201      2.792
REMARK  Name = 
REMARK  8 active torsions:
REMARK  status: ('A' for Active; 'I' for Inactive)
REMARK    1  A    between atoms: C_2  and  C_3
REMARK    2  A    between atoms: C_3  and  N_4
REMARK    3  A    between atoms: N_4  and  C_5
REMARK    4  A    between atoms: N_4  and  S_14
REMARK    5  A    between atoms: C_9  and  N_10
REMARK    6  A    between atoms: S_14  and  C_17
REMARK    7  A    between atoms: N_23  and  C_24
REMARK    8  A    between atoms: C_24  and  C_25
REMARK                            x       y       z     vdW  Elec       q    Type
REMARK                         _______ _______ _______ _____ _____    ______ ____
ROOT
ATOM      1  N   UNL     1       3.145   5.675  17.759  0.00  0.00    +0.000 N 
ENDROOT
BRANCH   1   2
ATOM      2  C   UNL     1       4.536   5.712  17.404  0.00  0.00    +0.000 A 
ATOM      3  C   UNL     1       4.868   5.712  16.046  0.00  0.00    +0.000 A 
ATOM      4  C   UNL     1       6.198   5.813  15.636  0.00  0.00    +0.000 A 
ATOM      5  C   UNL     1       7.212   5.950  16.584  0.00  0.00    +0.000 A 
ATOM      6  C   UNL     1       6.874   5.967  17.944  0.00  0.00    +0.000 A 
ATOM      7  C   UNL     1       5.543   5.799  18.365  0.00  0.00    +0.000 A 
BRANCH   6   8
ATOM      8  N   UNL     1       7.926   6.230  18.936  0.00  0.00    +0.000 N 
ATOM      9  O   UNL     1       8.521   7.312  18.876  0.00  0.00    +0.000 OA
ATOM     10  O   UNL     1       8.152   5.348  19.781  0.00  0.00    +0.000 OA
ENDBRANCH   6   8
ENDBRANCH   1   2
BRANCH   1  11
ATOM     11  S   UNL     1       2.327   4.182  17.684  0.00  0.00    +0.000 S 
ATOM     12  O   UNL     1       0.953   4.451  17.290  0.00  0.00    +0.000 OA
ATOM     13  O   UNL     1       3.125   3.251  16.908  0.00  0.00    +0.000 OA
BRANCH  11  14
ATOM     14  C   UNL     1       2.273   3.553  19.352  0.00  0.00    +0.000 A 
ATOM     15  C   UNL     1       1.058   3.493  20.044  0.00  0.00    +0.000 A 
ATOM     16  C   UNL     1       1.011   2.900  21.311  0.00  0.00    +0.000 A 
ATOM     17  C   UNL     1       2.160   2.337  21.868  0.00  0.00    +0.000 A 
ATOM     18  C   UNL     1       3.362   2.363  21.160  0.00  0.00    +0.000 A 
ATOM     19  C   UNL     1       3.421   2.964  19.901  0.00  0.00    +0.000 A 
ENDBRANCH  11  14
ENDBRANCH   1  11
BRANCH   1  20
ATOM     20  C   UNL     1       2.577   6.694  18.672  0.00  0.00    +0.000 C 
BRANCH  20  22
ATOM     21  O   UNL     1       2.841   8.429  17.007  0.00  0.00    +0.000 OA
ATOM     22  C   UNL     1       2.351   8.088  18.086  0.00  0.00    +0.000 C 
ATOM     23  N   UNL     1       1.568   8.933  18.843  0.00  0.00    +0.000 N 
ATOM     24  H   UNL     1       1.368   8.689  19.804  0.00  0.00    +0.000 HD
BRANCH  23  25
ATOM     25  C   UNL     1       1.270  10.298  18.441  0.00  0.00    +0.000 C 
BRANCH  25  26
ATOM     26  C   UNL     1      -0.215  10.524  18.425  0.00  0.00    +0.000 A 
ATOM     27  C   UNL     1      -1.063   9.839  17.548  0.00  0.00    +0.000 A 
ATOM     28  C   UNL     1      -2.421  10.152  17.511  0.00  0.00    +0.000 A 
ATOM     29  C   UNL     1      -2.890  11.142  18.359  0.00  0.00    +0.000 A 
ATOM     30  N   UNL     1      -2.108  11.814  19.228  0.00  0.00    +0.000 NA
ATOM     31  C   UNL     1      -0.794  11.492  19.241  0.00  0.00    +0.000 A 
ENDBRANCH  25  26
ENDBRANCH  23  25
ENDBRANCH  20  22
ENDBRANCH   1  20
TORSDOF 8
ENDMDL
MODEL 3
REMARK VINA RESULT:      -8.2      1.301      1.741
REMARK  Name = 
REMARK  8 active torsions:
REMARK  status: ('A' for Active; 'I' for Inactive)
REMARK    1  A    between atoms: C_2  and  C_3
REMARK    2  A    between atoms: C_3  and  N_4
REMARK    3  A    between atoms: N_4  and  C_5
REMARK    4  A    between atoms: N_4  and  S_14
REMARK    5  A    between atoms: C_9  and  N_10
REMARK    6  A    between atoms: S_14  and  C_17
REMARK    7  A    between atoms: N_23  and  C_24
REMARK    8  A    between atoms: C_24  and  C_25
REMARK                            x       y       z     vdW  Elec       q    Type
REMARK                         _______ _______ _______ _____ _____    ______ ____
ROOT
ATOM      1  N   UNL     1       3.311   5.712  17.814  0.00  0.00    +0.000 N 
ENDROOT
BRANCH   1   2
ATOM      2  C   UNL     1       4.706   5.617  17.484  0.00  0.00    +0.000 A 
ATOM      3  C   UNL     1       5.631   5.612  18.533  0.00  0.00    +0.000 A 
ATOM      4  C   UNL     1       6.994   5.456  18.281  0.00  0.00    +0.000 A 
ATOM      5  C   UNL     1       7.446   5.269  16.974  0.00  0.00    +0.000 A 
ATOM      6  C   UNL     1       6.514   5.258  15.927  0.00  0.00    +0.000 A 
ATOM      7  C   UNL     1       5.147   5.481  16.168  0.00  0.00    +0.000 A 
BRANCH   6   8
ATOM      8  N   UNL     1       6.975   4.944  14.568  0.00  0.00    +0.000 N 
ATOM      9  O   UNL     1       6.333   4.113  13.916  0.00  0.00    +0.000 OA
ATOM     10  O   UNL     1       7.982   5.540  14.150  0.00  0.00    +0.000 OA
ENDBRANCH   6   8
ENDBRANCH   1   2
BRANCH   1  11
ATOM     11  S   UNL     1       2.358   4.301  17.730  0.00  0.00    +0.000 S 
ATOM     12  O   UNL     1       1.004   4.704  17.388  0.00  0.00    +0.000 OA
ATOM     13  O   UNL     1       3.044   3.322  16.908  0.00  0.00    +0.000 OA
BRANCH  11  14
ATOM     14  C   UNL     1       2.299   3.636  19.385  0.00  0.00    +0.000 A 
ATOM     15  C   UNL     1       1.083   3.575  20.076  0.00  0.00    +0.000 A 
ATOM     16  C   UNL     1       1.030   2.954  21.329  0.00  0.00    +0.000 A 
ATOM     17  C   UNL     1       2.173   2.365  21.873  0.00  0.00    +0.000 A 
ATOM     18  C   UNL     1       3.375   2.394  21.165  0.00  0.00    +0.000 A 
ATOM     19  C   UNL     1       3.439   3.021  19.919  0.00  0.00    +0.000 A 
ENDBRANCH  11  14
ENDBRANCH   1  11
BRANCH   1  20
ATOM     20  C   UNL     1       2.825   6.785  18.712  0.00  0.00    +0.000 C 
BRANCH  20  22
ATOM     21  O   UNL     1       2.755   8.470  16.978  0.00  0.00    +0.000 OA
ATOM     22  C   UNL     1       2.291   8.050  18.040  0.00  0.00    +0.000 C 
ATOM     23  N   UNL     1       1.261   8.687  18.700  0.00  0.00    +0.000 N 
ATOM     24  H   UNL     1       1.060   8.432  19.658  0.00  0.00    +0.000 HD
BRANCH  23  25
ATOM     25  C   UNL     1       0.652   9.911  18.208  0.00  0.00    +0.000 C 
BRANCH  25  26
ATOM     26  C   UNL     1       1.120  11.088  19.016  0.00  0.00    +0.000 A 
ATOM     27  C   UNL     1       1.912  12.102  18.465  0.00  0.00    +0.000 A 
ATOM     28  C   UNL     1       2.395  13.123  19.280  0.00  0.00    +0.000 A 
ATOM     29  C   UNL     1       2.067  13.101  20.625  0.00  0.00    +0.000 A 
ATOM     30  N   UNL     1       1.295  12.150  21.191  0.00  0.00    +0.000 NA
ATOM     31  C   UNL     1       0.842  11.168  20.377  0.00  0.00    +0.000 A 
ENDBRANCH  25  26
ENDBRANCH  23  25
ENDBRANCH  20  22
ENDBRANCH   1  20
TORSDOF 8
ENDMDL
MODEL 4
REMARK VINA RESULT:      -8.2      0.817      1.404
REMARK  Name = 
REMARK  8 active torsions:
REMARK  status: ('A' for Active; 'I' for Inactive)
REMARK    1  A    between atoms: C_2  and  C_3
REMARK    2  A    between atoms: C_3  and  N_4
REMARK    3  A    between atoms: N_4  and  C_5
REMARK    4  A    between atoms: N_4  and  S_14
REMARK    5  A    between atoms: C_9  and  N_10
REMARK    6  A    between atoms: S_14  and  C_17
REMARK    7  A    between atoms: N_23  and  C_24
REMARK    8  A    between atoms: C_24  and  C_25
REMARK                            x       y       z     vdW  Elec       q    Type
REMARK                         _______ _______ _______ _____ _____    ______ ____
ROOT
ATOM      1  N   UNL     1       3.426   5.301  17.722  0.00  0.00    +0.000 N 
ENDROOT
BRANCH   1   2
ATOM      2  C   UNL     1       4.806   5.170  17.349  0.00  0.00    +0.000 A 
ATOM      3  C   UNL     1       5.742   4.943  18.362  0.00  0.00    +0.000 A 
ATOM      4  C   UNL     1       7.089   4.742  18.058  0.00  0.00    +0.000 A 
ATOM      5  C   UNL     1       7.510   4.732  16.728  0.00  0.00    +0.000 A 
ATOM      6  C   UNL     1       6.566   4.943  15.714  0.00  0.00    +0.000 A 
ATOM      7  C   UNL     1       5.220   5.212  16.018  0.00  0.00    +0.000 A 
BRANCH   6   8
ATOM      8  N   UNL     1       6.987   4.815  14.312  0.00  0.00    +0.000 N 
ATOM      9  O   UNL     1       7.903   5.544  13.913  0.00  0.00    +0.000 OA
ATOM     10  O   UNL     1       6.400   3.974  13.610  0.00  0.00    +0.000 OA
ENDBRANCH   6   8
ENDBRANCH   1   2
BRANCH   1  11
ATOM     11  S   UNL     1       2.418   3.932  17.604  0.00  0.00    +0.000 S 
ATOM     12  O   UNL     1       1.094   4.390  17.217  0.00  0.00    +0.000 OA
ATOM     13  O   UNL     1       3.090   2.925  16.804  0.00  0.00    +0.000 OA
BRANCH  11  14
ATOM     14  C   UNL     1       2.275   3.270  19.255  0.00  0.00    +0.000 A 
ATOM     15  C   UNL     1       3.407   2.780  19.918  0.00  0.00    +0.000 A 
ATOM     16  C   UNL     1       3.301   2.362  21.249  0.00  0.00    +0.000 A 
ATOM     17  C   UNL     1       2.085   2.467  21.927  0.00  0.00    +0.000 A 
ATOM     18  C   UNL     1       0.969   2.992  21.276  0.00  0.00    +0.000 A 
ATOM     19  C   UNL     1       1.062   3.400  19.944  0.00  0.00    +0.000 A 
ENDBRANCH  11  14
ENDBRANCH   1  11
BRANCH   1  20
ATOM     20  C   UNL     1       3.004   6.351  18.679  0.00  0.00    +0.000 C 
BRANCH  20  22
ATOM     21  O   UNL     1       3.573   8.299  17.362  0.00  0.00    +0.000 OA
ATOM     22  C   UNL     1       2.756   7.744  18.100  0.00  0.00    +0.000 C 
ATOM     23  N   UNL     1       1.564   8.335  18.459  0.00  0.00    +0.000 N 
ATOM     24  H   UNL     1       1.030   7.942  19.224  0.00  0.00    +0.000 HD
BRANCH  23  25
ATOM     25  C   UNL     1       1.180   9.664  18.013  0.00  0.00    +0.000 C 
BRANCH  25  26
ATOM     26  C   UNL     1       0.391  10.366  19.082  0.00  0.00    +0.000 A 
ATOM     27  C   UNL     1       0.776  10.345  20.427  0.00  0.00    +0.000 A 
ATOM     28  C   UNL     1      -0.040  10.934  21.390  0.00  0.00    +0.000 A 
ATOM     29  C   UNL     1      -1.219  11.531  20.977  0.00  0.00    +0.000 A 
ATOM     30  N   UNL     1      -1.618  11.584  19.689  0.00  0.00    +0.000 NA
ATOM     31  C   UNL     1      -0.809  11.002  18.775  0.00  0.00    +0.000 A 
ENDBRANCH  25  26
ENDBRANCH  23  25
ENDBRANCH  20  22
ENDBRANCH   1  20
TORSDOF 8
ENDMDL
MODEL 5
REMARK VINA RESULT:      -8.1      1.814      2.346
REMARK  Name = 
REMARK  8 active torsions:
REMARK  status: ('A' for Active; 'I' for Inactive)
REMARK    1  A    between atoms: C_2  and  C_3
REMARK    2  A    between atoms: C_3  and  N_4
REMARK    3  A    between atoms: N_4  and  C_5
REMARK    4  A    between atoms: N_4  and  S_14
REMARK    5  A    between atoms: C_9  and  N_10
REMARK    6  A    between atoms: S_14  and  C_17
REMARK    7  A    between atoms: N_23  and  C_24
REMARK    8  A    between atoms: C_24  and  C_25
REMARK                            x       y       z     vdW  Elec       q    Type
REMARK                         _______ _______ _______ _____ _____    ______ ____
ROOT
ATOM      1  N   UNL     1       3.193   5.618  17.887  0.00  0.00    +0.000 N 
ENDROOT
BRANCH   1   2
ATOM      2  C   UNL     1       4.573   5.659  17.494  0.00  0.00    +0.000 A 
ATOM      3  C   UNL     1       4.867   5.656  16.127  0.00  0.00    +0.000 A 
ATOM      4  C   UNL     1       6.185   5.761  15.680  0.00  0.00    +0.000 A 
ATOM      5  C   UNL     1       7.225   5.904  16.600  0.00  0.00    +0.000 A 
ATOM      6  C   UNL     1       6.924   5.924  17.969  0.00  0.00    +0.000 A 
ATOM      7  C   UNL     1       5.606   5.752  18.426  0.00  0.00    +0.000 A 
BRANCH   6   8
ATOM      8  N   UNL     1       8.003   6.193  18.930  0.00  0.00    +0.000 N 
ATOM      9  O   UNL     1       8.529   7.312  18.912  0.00  0.00    +0.000 OA
ATOM     10  O   UNL     1       8.318   5.279  19.710  0.00  0.00    +0.000 OA
ENDBRANCH   6   8
ENDBRANCH   1   2
BRANCH   1  11
ATOM     11  S   UNL     1       2.328   4.166  17.667  0.00  0.00    +0.000 S 
ATOM     12  O   UNL     1       0.968   4.516  17.289  0.00  0.00    +0.000 OA
ATOM     13  O   UNL     1       3.104   3.285  16.815  0.00  0.00    +0.000 OA
BRANCH  11  14
ATOM     14  C   UNL     1       2.236   3.387  19.269  0.00  0.00    +0.000 A 
ATOM     15  C   UNL     1       3.404   2.959  19.913  0.00  0.00    +0.000 A 
ATOM     16  C   UNL     1       3.329   2.448  21.213  0.00  0.00    +0.000 A 
ATOM     17  C   UNL     1       2.105   2.398  21.882  0.00  0.00    +0.000 A 
ATOM     18  C   UNL     1       0.948   2.860  21.253  0.00  0.00    +0.000 A 
ATOM     19  C   UNL     1       1.012   3.361  19.951  0.00  0.00    +0.000 A 
ENDBRANCH  11  14
ENDBRANCH   1  11
BRANCH   1  20
ATOM     20  C   UNL     1       2.682   6.538  18.930  0.00  0.00    +0.000 C 
BRANCH  20  22
ATOM     21  O   UNL     1       2.474   8.339  17.328  0.00  0.00    +0.000 OA
ATOM     22  C   UNL     1       2.220   7.917  18.458  0.00  0.00    +0.000 C 
ATOM     23  N   UNL     1       1.505   8.653  19.379  0.00  0.00    +0.000 N 
ATOM     24  H   UNL     1       1.504   8.362  20.348  0.00  0.00    +0.000 HD
BRANCH  23  25
ATOM     25  C   UNL     1       1.008   9.990  19.099  0.00  0.00    +0.000 C 
BRANCH  25  26
ATOM     26  C   UNL     1       0.280  10.536  20.295  0.00  0.00    +0.000 A 
ATOM     27  C   UNL     1       0.338   9.917  21.548  0.00  0.00    +0.000 A 
ATOM     28  C   UNL     1      -0.428  10.412  22.601  0.00  0.00    +0.000 A 
ATOM     29  C   UNL     1      -1.229  11.518  22.369  0.00  0.00    +0.000 A 
ATOM     30  N   UNL     1      -1.301  12.151  21.179  0.00  0.00    +0.000 NA
ATOM     31  C   UNL     1      -0.550  11.647  20.173  0.00  0.00    +0.000 A 
ENDBRANCH  25  26
ENDBRANCH  23  25
ENDBRANCH  20  22
ENDBRANCH   1  20
TORSDOF 8
ENDMDL
MODEL 6
REMARK VINA RESULT:      -8.0      1.500      1.961
REMARK  Name = 
REMARK  8 active torsions:
REMARK  status: ('A' for Active; 'I' for Inactive)
REMARK    1  A    between atoms: C_2  and  C_3
REMARK    2  A    between atoms: C_3  and  N_4
REMARK    3  A    between atoms: N_4  and  C_5
REMARK    4  A    between atoms: N_4  and  S_14
REMARK    5  A    between atoms: C_9  and  N_10
REMARK    6  A    between atoms: S_14  and  C_17
REMARK    7  A    between atoms: N_23  and  C_24
REMARK    8  A    between atoms: C_24  and  C_25
REMARK                            x       y       z     vdW  Elec       q    Type
REMARK                         _______ _______ _______ _____ _____    ______ ____
ROOT
ATOM      1  N   UNL     1       3.392   5.770  17.873  0.00  0.00    +0.000 N 
ENDROOT
BRANCH   1   2
ATOM      2  C   UNL     1       4.785   5.602  17.565  0.00  0.00    +0.000 A 
ATOM      3  C   UNL     1       5.685   5.492  18.629  0.00  0.00    +0.000 A 
ATOM      4  C   UNL     1       7.041   5.262  18.396  0.00  0.00    +0.000 A 
ATOM      5  C   UNL     1       7.508   5.104  17.090  0.00  0.00    +0.000 A 
ATOM      6  C   UNL     1       6.600   5.197  16.027  0.00  0.00    +0.000 A 
ATOM      7  C   UNL     1       5.245   5.495  16.253  0.00  0.00    +0.000 A 
BRANCH   6   8
ATOM      8  N   UNL     1       7.069   4.914  14.664  0.00  0.00    +0.000 N 
ATOM      9  O   UNL     1       8.007   5.587  14.222  0.00  0.00    +0.000 OA
ATOM     10  O   UNL     1       6.497   4.007  14.036  0.00  0.00    +0.000 OA
ENDBRANCH   6   8
ENDBRANCH   1   2
BRANCH   1  11
ATOM     11  S   UNL     1       2.365   4.415  17.761  0.00  0.00    +0.000 S 
ATOM     12  O   UNL     1       1.029   4.898  17.451  0.00  0.00    +0.000 OA
ATOM     13  O   UNL     1       2.988   3.427  16.899  0.00  0.00    +0.000 OA
BRANCH  11  14
ATOM     14  C   UNL     1       2.292   3.703  19.395  0.00  0.00    +0.000 A 
ATOM     15  C   UNL     1       1.077   3.655  20.089  0.00  0.00    +0.000 A 
ATOM     16  C   UNL     1       1.011   2.999  21.323  0.00  0.00    +0.000 A 
ATOM     17  C   UNL     1       2.139   2.363  21.845  0.00  0.00    +0.000 A 
ATOM     18  C   UNL     1       3.339   2.380  21.134  0.00  0.00    +0.000 A 
ATOM     19  C   UNL     1       3.417   3.042  19.907  0.00  0.00    +0.000 A 
ENDBRANCH  11  14
ENDBRANCH   1  11
BRANCH   1  20
ATOM     20  C   UNL     1       2.950   6.861  18.773  0.00  0.00    +0.000 C 
BRANCH  20  22
ATOM     21  O   UNL     1       2.723   8.489  16.997  0.00  0.00    +0.000 OA
ATOM     22  C   UNL     1       2.347   8.097  18.104  0.00  0.00    +0.000 C 
ATOM     23  N   UNL     1       1.361   8.741  18.821  0.00  0.00    +0.000 N 
ATOM     24  H   UNL     1       1.237   8.514  19.800  0.00  0.00    +0.000 HD
BRANCH  23  25
ATOM     25  C   UNL     1       0.697   9.940  18.340  0.00  0.00    +0.000 C 
BRANCH  25  26
ATOM     26  C   UNL     1       1.334  11.163  18.934  0.00  0.00    +0.000 A 
ATOM     27  C   UNL     1       1.015  11.621  20.217  0.00  0.00    +0.000 A 
ATOM     28  C   UNL     1       1.567  12.812  20.686  0.00  0.00    +0.000 A 
ATOM     29  C   UNL     1       2.428  13.508  19.855  0.00  0.00    +0.000 A 
ATOM     30  N   UNL     1       2.773  13.093  18.618  0.00  0.00    +0.000 NA
ATOM     31  C   UNL     1       2.220  11.936  18.187  0.00  0.00    +0.000 A 
ENDBRANCH  25  26
ENDBRANCH  23  25
ENDBRANCH  20  22
ENDBRANCH   1  20
TORSDOF 8
ENDMDL
MODEL 7
REMARK VINA RESULT:      -8.0      2.565      5.365
REMARK  Name = 
REMARK  8 active torsions:
REMARK  status: ('A' for Active; 'I' for Inactive)
REMARK    1  A    between atoms: C_2  and  C_3
REMARK    2  A    between atoms: C_3  and  N_4
REMARK    3  A    between atoms: N_4  and  C_5
REMARK    4  A    between atoms: N_4  and  S_14
REMARK    5  A    between atoms: C_9  and  N_10
REMARK    6  A    between atoms: S_14  and  C_17
REMARK    7  A    between atoms: N_23  and  C_24
REMARK    8  A    between atoms: C_24  and  C_25
REMARK                            x       y       z     vdW  Elec       q    Type
REMARK                         _______ _______ _______ _____ _____    ______ ____
ROOT
ATOM      1  N   UNL     1       3.562   6.017  17.654  0.00  0.00    +0.000 N 
ENDROOT
BRANCH   1   2
ATOM      2  C   UNL     1       2.852   4.964  18.325  0.00  0.00    +0.000 A 
ATOM      3  C   UNL     1       1.694   4.463  17.722  0.00  0.00    +0.000 A 
ATOM      4  C   UNL     1       0.997   3.397  18.291  0.00  0.00    +0.000 A 
ATOM      5  C   UNL     1       1.472   2.795  19.457  0.00  0.00    +0.000 A 
ATOM      6  C   UNL     1       2.642   3.289  20.050  0.00  0.00    +0.000 A 
ATOM      7  C   UNL     1       3.311   4.405  19.517  0.00  0.00    +0.000 A 
BRANCH   6   8
ATOM      8  N   UNL     1       3.206   2.582  21.208  0.00  0.00    +0.000 N 
ATOM      9  O   UNL     1       4.334   2.089  21.093  0.00  0.00    +0.000 OA
ATOM     10  O   UNL     1       2.515   2.527  22.240  0.00  0.00    +0.000 OA
ENDBRANCH   6   8
ENDBRANCH   1   2
BRANCH   1  11
ATOM     11  S   UNL     1       4.888   5.602  16.668  0.00  0.00    +0.000 S 
ATOM     12  O   UNL     1       4.960   4.151  16.611  0.00  0.00    +0.000 OA
ATOM     13  O   UNL     1       4.809   6.364  15.435  0.00  0.00    +0.000 OA
BRANCH  11  14
ATOM     14  C   UNL     1       6.348   6.160  17.527  0.00  0.00    +0.000 A 
ATOM     15  C   UNL     1       6.895   7.418  17.245  0.00  0.00    +0.000 A 
ATOM     16  C   UNL     1       7.976   7.888  18.000  0.00  0.00    +0.000 A 
ATOM     17  C   UNL     1       8.483   7.126  19.054  0.00  0.00    +0.000 A 
ATOM     18  C   UNL     1       7.912   5.890  19.358  0.00  0.00    +0.000 A 
ATOM     19  C   UNL     1       6.841   5.408  18.602  0.00  0.00    +0.000 A 
ENDBRANCH  11  14
ENDBRANCH   1  11
BRANCH   1  20
ATOM     20  C   UNL     1       2.887   7.299  17.348  0.00  0.00    +0.000 C 
BRANCH  20  22
ATOM     21  O   UNL     1       2.328   7.608  19.681  0.00  0.00    +0.000 OA
ATOM     22  C   UNL     1       2.269   8.046  18.530  0.00  0.00    +0.000 C 
ATOM     23  N   UNL     1       1.643   9.235  18.223  0.00  0.00    +0.000 N 
ATOM     24  H   UNL     1       1.436   9.446  17.255  0.00  0.00    +0.000 HD
BRANCH  23  25
ATOM     25  C   UNL     1       0.988  10.060  19.224  0.00  0.00    +0.000 C 
BRANCH  25  26
ATOM     26  C   UNL     1      -0.405  10.409  18.783  0.00  0.00    +0.000 A 
ATOM     27  C   UNL     1      -0.989   9.842  17.645  0.00  0.00    +0.000 A 
ATOM     28  C   UNL     1      -2.248  10.268  17.227  0.00  0.00    +0.000 A 
ATOM     29  C   UNL     1      -2.889  11.250  17.965  0.00  0.00    +0.000 A 
ATOM     30  N   UNL     1      -2.365  11.810  19.076  0.00  0.00    +0.000 NA
ATOM     31  C   UNL     1      -1.140  11.380  19.457  0.00  0.00    +0.000 A 
ENDBRANCH  25  26
ENDBRANCH  23  25
ENDBRANCH  20  22
ENDBRANCH   1  20
TORSDOF 8
ENDMDL
MODEL 8
REMARK VINA RESULT:      -7.9      2.370      2.986
REMARK  Name = 
REMARK  8 active torsions:
REMARK  status: ('A' for Active; 'I' for Inactive)
REMARK    1  A    between atoms: C_2  and  C_3
REMARK    2  A    between atoms: C_3  and  N_4
REMARK    3  A    between atoms: N_4  and  C_5
REMARK    4  A    between atoms: N_4  and  S_14
REMARK    5  A    between atoms: C_9  and  N_10
REMARK    6  A    between atoms: S_14  and  C_17
REMARK    7  A    between atoms: N_23  and  C_24
REMARK    8  A    between atoms: C_24  and  C_25
REMARK                            x       y       z     vdW  Elec       q    Type
REMARK                         _______ _______ _______ _____ _____    ______ ____
ROOT
ATOM      1  N   UNL     1       3.069   5.588  17.708  0.00  0.00    +0.000 N 
ENDROOT
BRANCH   1   2
ATOM      2  C   UNL     1       4.480   5.631  17.445  0.00  0.00    +0.000 A 
ATOM      3  C   UNL     1       4.900   5.639  16.112  0.00  0.00    +0.000 A 
ATOM      4  C   UNL     1       6.254   5.746  15.791  0.00  0.00    +0.000 A 
ATOM      5  C   UNL     1       7.203   5.882  16.805  0.00  0.00    +0.000 A 
ATOM      6  C   UNL     1       6.776   5.891  18.140  0.00  0.00    +0.000 A 
ATOM      7  C   UNL     1       5.421   5.717  18.471  0.00  0.00    +0.000 A 
BRANCH   6   8
ATOM      8  N   UNL     1       7.760   6.153  19.199  0.00  0.00    +0.000 N 
ATOM      9  O   UNL     1       8.535   7.104  19.049  0.00  0.00    +0.000 OA
ATOM     10  O   UNL     1       7.750   5.403  20.190  0.00  0.00    +0.000 OA
ENDBRANCH   6   8
ENDBRANCH   1   2
BRANCH   1  11
ATOM     11  S   UNL     1       2.263   4.092  17.577  0.00  0.00    +0.000 S 
ATOM     12  O   UNL     1       0.880   4.365  17.223  0.00  0.00    +0.000 OA
ATOM     13  O   UNL     1       3.054   3.207  16.742  0.00  0.00    +0.000 OA
BRANCH  11  14
ATOM     14  C   UNL     1       2.249   3.383  19.214  0.00  0.00    +0.000 A 
ATOM     15  C   UNL     1       3.428   2.874  19.772  0.00  0.00    +0.000 A 
ATOM     16  C   UNL     1       3.427   2.419  21.095  0.00  0.00    +0.000 A 
ATOM     17  C   UNL     1       2.269   2.504  21.869  0.00  0.00    +0.000 A 
ATOM     18  C   UNL     1       1.105   3.047  21.323  0.00  0.00    +0.000 A 
ATOM     19  C   UNL     1       1.094   3.493  20.000  0.00  0.00    +0.000 A 
ENDBRANCH  11  14
ENDBRANCH   1  11
BRANCH   1  20
ATOM     20  C   UNL     1       2.437   6.603  18.583  0.00  0.00    +0.000 C 
BRANCH  20  22
ATOM     21  O   UNL     1       2.912   8.348  16.977  0.00  0.00    +0.000 OA
ATOM     22  C   UNL     1       2.372   8.030  18.039  0.00  0.00    +0.000 C 
ATOM     23  N   UNL     1       1.674   8.932  18.813  0.00  0.00    +0.000 N 
ATOM     24  H   UNL     1       1.434   8.682  19.764  0.00  0.00    +0.000 HD
BRANCH  23  25
ATOM     25  C   UNL     1       1.531  10.332  18.451  0.00  0.00    +0.000 C 
BRANCH  25  26
ATOM     26  C   UNL     1       0.079  10.713  18.404  0.00  0.00    +0.000 A 
ATOM     27  C   UNL     1      -0.387  11.935  18.904  0.00  0.00    +0.000 A 
ATOM     28  C   UNL     1      -1.755  12.200  18.919  0.00  0.00    +0.000 A 
ATOM     29  C   UNL     1      -2.618  11.234  18.429  0.00  0.00    +0.000 A 
ATOM     30  N   UNL     1      -2.207  10.052  17.926  0.00  0.00    +0.000 NA
ATOM     31  C   UNL     1      -0.874   9.818  17.926  0.00  0.00    +0.000 A 
ENDBRANCH  25  26
ENDBRANCH  23  25
ENDBRANCH  20  22
ENDBRANCH   1  20
TORSDOF 8
ENDMDL
MODEL 9
REMARK VINA RESULT:      -7.9      2.899      5.577
REMARK  Name = 
REMARK  8 active torsions:
REMARK  status: ('A' for Active; 'I' for Inactive)
REMARK    1  A    between atoms: C_2  and  C_3
REMARK    2  A    between atoms: C_3  and  N_4
REMARK    3  A    between atoms: N_4  and  C_5
REMARK    4  A    between atoms: N_4  and  S_14
REMARK    5  A    between atoms: C_9  and  N_10
REMARK    6  A    between atoms: S_14  and  C_17
REMARK    7  A    between atoms: N_23  and  C_24
REMARK    8  A    between atoms: C_24  and  C_25
REMARK                            x       y       z     vdW  Elec       q    Type
REMARK                         _______ _______ _______ _____ _____    ______ ____
ROOT
ATOM      1  N   UNL     1       3.290   6.353  18.465  0.00  0.00    +0.000 N 
ENDROOT
BRANCH   1   2
ATOM      2  C   UNL     1       2.585   5.146  18.792  0.00  0.00    +0.000 A 
ATOM      3  C   UNL     1       1.903   4.484  17.767  0.00  0.00    +0.000 A 
ATOM      4  C   UNL     1       1.254   3.272  18.007  0.00  0.00    +0.000 A 
ATOM      5  C   UNL     1       1.308   2.691  19.275  0.00  0.00    +0.000 A 
ATOM      6  C   UNL     1       2.006   3.349  20.296  0.00  0.00    +0.000 A 
ATOM      7  C   UNL     1       2.606   4.602  20.076  0.00  0.00    +0.000 A 
BRANCH   6   8
ATOM      8  N   UNL     1       2.163   2.682  21.596  0.00  0.00    +0.000 N 
ATOM      9  O   UNL     1       3.281   2.247  21.893  0.00  0.00    +0.000 OA
ATOM     10  O   UNL     1       1.159   2.600  22.324  0.00  0.00    +0.000 OA
ENDBRANCH   6   8
ENDBRANCH   1   2
BRANCH   1  11
ATOM     11  S   UNL     1       4.974   6.267  18.210  0.00  0.00    +0.000 S 
ATOM     12  O   UNL     1       5.452   7.618  17.964  0.00  0.00    +0.000 OA
ATOM     13  O   UNL     1       5.567   5.480  19.276  0.00  0.00    +0.000 OA
BRANCH  11  14
ATOM     14  C   UNL     1       5.208   5.350  16.698  0.00  0.00    +0.000 A 
ATOM     15  C   UNL     1       5.331   6.024  15.478  0.00  0.00    +0.000 A 
ATOM     16  C   UNL     1       5.621   5.302  14.315  0.00  0.00    +0.000 A 
ATOM     17  C   UNL     1       5.824   3.922  14.374  0.00  0.00    +0.000 A 
ATOM     18  C   UNL     1       5.738   3.258  15.598  0.00  0.00    +0.000 A 
ATOM     19  C   UNL     1       5.438   3.969  16.762  0.00  0.00    +0.000 A 
ENDBRANCH  11  14
ENDBRANCH   1  11
BRANCH   1  20
ATOM     20  C   UNL     1       2.583   7.484  17.820  0.00  0.00    +0.000 C 
BRANCH  20  22
ATOM     21  O   UNL     1       1.773   8.261  19.964  0.00  0.00    +0.000 OA
ATOM     22  C   UNL     1       1.877   8.469  18.753  0.00  0.00    +0.000 C 
ATOM     23  N   UNL     1       1.364   9.598  18.150  0.00  0.00    +0.000 N 
ATOM     24  H   UNL     1       1.285   9.624  17.141  0.00  0.00    +0.000 HD
BRANCH  23  25
ATOM     25  C   UNL     1       0.648  10.625  18.887  0.00  0.00    +0.000 C 
BRANCH  25  26
ATOM     26  C   UNL     1      -0.797  10.649  18.476  0.00  0.00    +0.000 A 
ATOM     27  C   UNL     1      -1.294   9.837  17.451  0.00  0.00    +0.000 A 
ATOM     28  C   UNL     1      -2.621   9.964  17.048  0.00  0.00    +0.000 A 
ATOM     29  C   UNL     1      -3.416  10.900  17.688  0.00  0.00    +0.000 A 
ATOM     30  N   UNL     1      -2.979  11.691  18.690  0.00  0.00    +0.000 NA
ATOM     31  C   UNL     1      -1.685  11.549  19.059  0.00  0.00    +0.000 A 
ENDBRANCH  25  26
ENDBRANCH  23  25
ENDBRANCH  20  22
ENDBRANCH   1  20
TORSDOF 8
ENDMDL
