MODEL 1
REMARK VINA RESULT:      -9.3      0.000      0.000
REMARK  Name = 
REMARK  4 active torsions:
REMARK  status: ('A' for Active; 'I' for Inactive)
REMARK    1  A    between atoms: C_4  and  C_5
REMARK    2  A    between atoms: C_5  and  N_6
REMARK    3  A    between atoms: N_11  and  C_12
REMARK    4  A    between atoms: C_12  and  C_13
REMARK                            x       y       z     vdW  Elec       q    Type
REMARK                         _______ _______ _______ _____ _____    ______ ____
ROOT
ATOM      1  N   UNL     1       5.137   5.038  16.985  0.00  0.00    +0.000 N 
ATOM      2  N   UNL     1       4.836   5.945  16.025  0.00  0.00    +0.000 NA
ATOM      3  N   UNL     1       5.726   6.933  16.114  0.00  0.00    +0.000 NA
ATOM      4  C   UNL     1       6.578   6.652  17.152  0.00  0.00    +0.000 A 
ATOM      5  C   UNL     1       7.621   7.362  17.779  0.00  0.00    +0.000 A 
ATOM      6  N   UNL     1       7.985   8.673  17.415  0.00  0.00    +0.000 N 
ATOM      7  N   UNL     1       8.237   6.757  18.837  0.00  0.00    +0.000 NA
ATOM      8  C   UNL     1       7.819   5.547  19.244  0.00  0.00    +0.000 A 
ATOM      9  N   UNL     1       6.809   4.815  18.755  0.00  0.00    +0.000 NA
ATOM     10  C   UNL     1       6.238   5.429  17.706  0.00  0.00    +0.000 A 
ATOM     11  H   UNL     1       8.597   8.631  16.598  0.00  0.00    +0.000 HD
ENDROOT
BRANCH   1  12
ATOM     12  C   UNL     1       4.218   3.970  17.316  0.00  0.00    +0.000 C 
BRANCH  12  16
ATOM     13  C   UNL     1       1.404   5.053  20.397  0.00  0.00    +0.000 A 
ATOM     14  C   UNL     1       1.327   3.805  19.790  0.00  0.00    +0.000 A 
ATOM     15  C   UNL     1       2.231   3.463  18.786  0.00  0.00    +0.000 A 
ATOM     16  C   UNL     1       3.225   4.367  18.376  0.00  0.00    +0.000 A 
ATOM     17  C   UNL     1       3.281   5.630  18.982  0.00  0.00    +0.000 A 
ATOM     18  C   UNL     1       2.380   5.966  19.993  0.00  0.00    +0.000 A 
ENDBRANCH  12  16
ENDBRANCH   1  12
BRANCH   6  19
ATOM     19  C   UNL     1       8.575   9.413  18.532  0.00  0.00    +0.000 C 
BRANCH  19  20
ATOM     20  C   UNL     1       9.044  10.762  18.046  0.00  0.00    +0.000 A 
ATOM     21  C   UNL     1       8.127  11.787  17.698  0.00  0.00    +0.000 A 
ATOM     22  C   UNL     1       8.563  13.101  17.501  0.00  0.00    +0.000 A 
ATOM     23  C   UNL     1       9.904  13.341  17.692  0.00  0.00    +0.000 A 
ATOM     24  C   UNL     1      10.812  12.320  17.887  0.00  0.00    +0.000 A 
ATOM     25  C   UNL     1      10.422  11.018  18.035  0.00  0.00    +0.000 A 
ATOM     26  O   UNL     1      12.066  12.788  18.139  0.00  0.00    +0.000 OA
ATOM     27  C   UNL     1      11.685  14.101  18.574  0.00  0.00    +0.000 C 
ATOM     28  O   UNL     1      10.490  14.558  17.898  0.00  0.00    +0.000 OA
ENDBRANCH  19  20
ENDBRANCH   6  19
TORSDOF 4
ENDMDL
MODEL 2
REMARK VINA RESULT:      -8.9      1.875      2.152
REMARK  Name = 
REMARK  4 active torsions:
REMARK  status: ('A' for Active; 'I' for Inactive)
REMARK    1  A    between atoms: C_4  and  C_5
REMARK    2  A    between atoms: C_5  and  N_6
REMARK    3  A    between atoms: N_11  and  C_12
REMARK    4  A    between atoms: C_12  and  C_13
REMARK                            x       y       z     vdW  Elec       q    Type
REMARK                         _______ _______ _______ _____ _____    ______ ____
ROOT
ATOM      1  N   UNL     1       3.711   5.093  17.259  0.00  0.00    +0.000 N 
ATOM      2  N   UNL     1       3.128   6.222  17.728  0.00  0.00    +0.000 NA
ATOM      3  N   UNL     1       4.060   7.173  17.755  0.00  0.00    +0.000 NA
ATOM      4  C   UNL     1       5.243   6.630  17.318  0.00  0.00    +0.000 A 
ATOM      5  C   UNL     1       6.565   7.106  17.239  0.00  0.00    +0.000 A 
ATOM      6  N   UNL     1       6.951   8.384  17.691  0.00  0.00    +0.000 N 
ATOM      7  N   UNL     1       7.511   6.240  16.770  0.00  0.00    +0.000 NA
ATOM      8  C   UNL     1       7.156   4.988  16.434  0.00  0.00    +0.000 A 
ATOM      9  N   UNL     1       5.944   4.424  16.522  0.00  0.00    +0.000 NA
ATOM     10  C   UNL     1       5.036   5.307  16.967  0.00  0.00    +0.000 A 
ATOM     11  H   UNL     1       6.733   9.070  16.966  0.00  0.00    +0.000 HD
ENDROOT
BRANCH   1  12
ATOM     12  C   UNL     1       3.036   3.815  17.340  0.00  0.00    +0.000 C 
BRANCH  12  16
ATOM     13  C   UNL     1       1.735   2.954  21.358  0.00  0.00    +0.000 A 
ATOM     14  C   UNL     1       3.057   2.732  20.990  0.00  0.00    +0.000 A 
ATOM     15  C   UNL     1       3.471   3.000  19.688  0.00  0.00    +0.000 A 
ATOM     16  C   UNL     1       2.566   3.495  18.733  0.00  0.00    +0.000 A 
ATOM     17  C   UNL     1       1.230   3.697  19.110  0.00  0.00    +0.000 A 
ATOM     18  C   UNL     1       0.822   3.435  20.418  0.00  0.00    +0.000 A 
ENDBRANCH  12  16
ENDBRANCH   1  12
BRANCH   6  19
ATOM     19  C   UNL     1       8.354   8.423  18.108  0.00  0.00    +0.000 C 
BRANCH  19  20
ATOM     20  C   UNL     1       8.763   9.854  18.353  0.00  0.00    +0.000 A 
ATOM     21  C   UNL     1       8.365  10.899  17.481  0.00  0.00    +0.000 A 
ATOM     22  C   UNL     1       8.526  12.239  17.850  0.00  0.00    +0.000 A 
ATOM     23  C   UNL     1       9.056  12.475  19.098  0.00  0.00    +0.000 A 
ATOM     24  C   UNL     1       9.573  11.462  19.880  0.00  0.00    +0.000 A 
ATOM     25  C   UNL     1       9.475  10.146  19.524  0.00  0.00    +0.000 A 
ATOM     26  O   UNL     1       9.965  11.907  21.106  0.00  0.00    +0.000 OA
ATOM     27  C   UNL     1       9.164  13.097  21.130  0.00  0.00    +0.000 C 
ATOM     28  O   UNL     1       8.986  13.645  19.802  0.00  0.00    +0.000 OA
ENDBRANCH  19  20
ENDBRANCH   6  19
TORSDOF 4
ENDMDL
MODEL 3
REMARK VINA RESULT:      -8.7      1.581      1.994
REMARK  Name = 
REMARK  4 active torsions:
REMARK  status: ('A' for Active; 'I' for Inactive)
REMARK    1  A    between atoms: C_4  and  C_5
REMARK    2  A    between atoms: C_5  and  N_6
REMARK    3  A    between atoms: N_11  and  C_12
REMARK    4  A    between atoms: C_12  and  C_13
REMARK                            x       y       z     vdW  Elec       q    Type
REMARK                         _______ _______ _______ _____ _____    ______ ____
ROOT
ATOM      1  N   UNL     1       3.712   5.117  17.198  0.00  0.00    +0.000 N 
ATOM      2  N   UNL     1       3.125   6.278  17.576  0.00  0.00    +0.000 NA
ATOM      3  N   UNL     1       4.059   7.227  17.551  0.00  0.00    +0.000 NA
ATOM      4  C   UNL     1       5.247   6.653  17.173  0.00  0.00    +0.000 A 
ATOM      5  C   UNL     1       6.572   7.120  17.081  0.00  0.00    +0.000 A 
ATOM      6  N   UNL     1       6.954   8.426  17.447  0.00  0.00    +0.000 N 
ATOM      7  N   UNL     1       7.523   6.221  16.690  0.00  0.00    +0.000 NA
ATOM      8  C   UNL     1       7.169   4.949  16.438  0.00  0.00    +0.000 A 
ATOM      9  N   UNL     1       5.955   4.394  16.547  0.00  0.00    +0.000 NA
ATOM     10  C   UNL     1       5.042   5.308  16.913  0.00  0.00    +0.000 A 
ATOM     11  H   UNL     1       6.749   9.059  16.672  0.00  0.00    +0.000 HD
ENDROOT
BRANCH   1  12
ATOM     12  C   UNL     1       3.033   3.850  17.359  0.00  0.00    +0.000 C 
BRANCH  12  16
ATOM     13  C   UNL     1       1.396   3.264  21.303  0.00  0.00    +0.000 A 
ATOM     14  C   UNL     1       0.751   2.729  20.194  0.00  0.00    +0.000 A 
ATOM     15  C   UNL     1       1.277   2.930  18.920  0.00  0.00    +0.000 A 
ATOM     16  C   UNL     1       2.456   3.672  18.738  0.00  0.00    +0.000 A 
ATOM     17  C   UNL     1       3.087   4.223  19.862  0.00  0.00    +0.000 A 
ATOM     18  C   UNL     1       2.562   4.013  21.137  0.00  0.00    +0.000 A 
ENDBRANCH  12  16
ENDBRANCH   1  12
BRANCH   6  19
ATOM     19  C   UNL     1       8.350   8.492  17.883  0.00  0.00    +0.000 C 
BRANCH  19  20
ATOM     20  C   UNL     1       8.627   9.854  18.470  0.00  0.00    +0.000 A 
ATOM     21  C   UNL     1       9.218  10.006  19.750  0.00  0.00    +0.000 A 
ATOM     22  C   UNL     1       9.705  11.248  20.171  0.00  0.00    +0.000 A 
ATOM     23  C   UNL     1       9.605  12.285  19.273  0.00  0.00    +0.000 A 
ATOM     24  C   UNL     1       8.901  12.169  18.091  0.00  0.00    +0.000 A 
ATOM     25  C   UNL     1       8.371  10.979  17.675  0.00  0.00    +0.000 A 
ATOM     26  O   UNL     1       9.004  13.286  17.318  0.00  0.00    +0.000 OA
ATOM     27  C   UNL     1      10.206  13.802  17.907  0.00  0.00    +0.000 C 
ATOM     28  O   UNL     1      10.299  13.462  19.311  0.00  0.00    +0.000 OA
ENDBRANCH  19  20
ENDBRANCH   6  19
TORSDOF 4
ENDMDL
MODEL 4
REMARK VINA RESULT:      -8.6      0.983      1.369
REMARK  Name = 
REMARK  4 active torsions:
REMARK  status: ('A' for Active; 'I' for Inactive)
REMARK    1  A    between atoms: C_4  and  C_5
REMARK    2  A    between atoms: C_5  and  N_6
REMARK    3  A    between atoms: N_11  and  C_12
REMARK    4  A    between atoms: C_12  and  C_13
REMARK                            x       y       z     vdW  Elec       q    Type
REMARK                         _______ _______ _______ _____ _____    ______ ____
ROOT
ATOM      1  N   UNL     1       5.100   5.511  16.942  0.00  0.00    +0.000 N 
ATOM      2  N   UNL     1       4.873   6.607  16.178  0.00  0.00    +0.000 NA
ATOM      3  N   UNL     1       5.846   7.481  16.430  0.00  0.00    +0.000 NA
ATOM      4  C   UNL     1       6.679   6.937  17.375  0.00  0.00    +0.000 A 
ATOM      5  C   UNL     1       7.785   7.424  18.098  0.00  0.00    +0.000 A 
ATOM      6  N   UNL     1       8.260   8.745  17.980  0.00  0.00    +0.000 N 
ATOM      7  N   UNL     1       8.355   6.579  19.007  0.00  0.00    +0.000 NA
ATOM      8  C   UNL     1       7.835   5.353  19.189  0.00  0.00    +0.000 A 
ATOM      9  N   UNL     1       6.761   4.816  18.596  0.00  0.00    +0.000 NA
ATOM     10  C   UNL     1       6.238   5.664  17.696  0.00  0.00    +0.000 A 
ATOM     11  H   UNL     1       8.859   8.807  17.155  0.00  0.00    +0.000 HD
ENDROOT
BRANCH   1  12
ATOM     12  C   UNL     1       4.094   4.481  17.089  0.00  0.00    +0.000 C 
BRANCH  12  16
ATOM     13  C   UNL     1       1.799   4.872  20.716  0.00  0.00    +0.000 A 
ATOM     14  C   UNL     1       2.108   5.998  19.962  0.00  0.00    +0.000 A 
ATOM     15  C   UNL     1       2.860   5.869  18.797  0.00  0.00    +0.000 A 
ATOM     16  C   UNL     1       3.314   4.610  18.370  0.00  0.00    +0.000 A 
ATOM     17  C   UNL     1       3.013   3.484  19.149  0.00  0.00    +0.000 A 
ATOM     18  C   UNL     1       2.253   3.616  20.311  0.00  0.00    +0.000 A 
ENDBRANCH  12  16
ENDBRANCH   1  12
BRANCH   6  19
ATOM     19  C   UNL     1       8.922   9.206  19.201  0.00  0.00    +0.000 C 
BRANCH  19  20
ATOM     20  C   UNL     1       9.298  10.659  19.048  0.00  0.00    +0.000 A 
ATOM     21  C   UNL     1       9.275  11.553  20.150  0.00  0.00    +0.000 A 
ATOM     22  C   UNL     1       9.866  12.817  20.058  0.00  0.00    +0.000 A 
ATOM     23  C   UNL     1      10.485  13.123  18.868  0.00  0.00    +0.000 A 
ATOM     24  C   UNL     1      10.379  12.313  17.756  0.00  0.00    +0.000 A 
ATOM     25  C   UNL     1       9.765  11.093  17.800  0.00  0.00    +0.000 A 
ATOM     26  O   UNL     1      11.139  12.763  16.718  0.00  0.00    +0.000 OA
ATOM     27  C   UNL     1      12.047  13.560  17.491  0.00  0.00    +0.000 C 
ATOM     28  O   UNL     1      11.403  14.115  18.662  0.00  0.00    +0.000 OA
ENDBRANCH  19  20
ENDBRANCH   6  19
TORSDOF 4
ENDMDL
MODEL 5
REMARK VINA RESULT:      -8.5      6.422      9.069
REMARK  Name = 
REMARK  4 active torsions:
REMARK  status: ('A' for Active; 'I' for Inactive)
REMARK    1  A    between atoms: C_4  and  C_5
REMARK    2  A    between atoms: C_5  and  N_6
REMARK    3  A    between atoms: N_11  and  C_12
REMARK    4  A    between atoms: C_12  and  C_13
REMARK                            x       y       z     vdW  Elec       q    Type
REMARK                         _______ _______ _______ _____ _____    ______ ____
ROOT
ATOM      1  N   UNL     1       2.844   6.970  18.189  0.00  0.00    +0.000 N 
ATOM      2  N   UNL     1       2.950   7.765  17.098  0.00  0.00    +0.000 NA
ATOM      3  N   UNL     1       2.381   8.932  17.394  0.00  0.00    +0.000 NA
ATOM      4  C   UNL     1       1.896   8.861  18.676  0.00  0.00    +0.000 A 
ATOM      5  C   UNL     1       1.118   9.721  19.474  0.00  0.00    +0.000 A 
ATOM      6  N   UNL     1       0.611  10.951  19.011  0.00  0.00    +0.000 N 
ATOM      7  N   UNL     1       0.790   9.282  20.725  0.00  0.00    +0.000 NA
ATOM      8  C   UNL     1       1.192   8.064  21.127  0.00  0.00    +0.000 A 
ATOM      9  N   UNL     1       1.884   7.153  20.430  0.00  0.00    +0.000 NA
ATOM     10  C   UNL     1       2.206   7.624  19.215  0.00  0.00    +0.000 A 
ATOM     11  H   UNL     1       1.344  11.659  19.084  0.00  0.00    +0.000 HD
ENDROOT
BRANCH   1  12
ATOM     12  C   UNL     1       3.141   5.555  18.114  0.00  0.00    +0.000 C 
BRANCH  12  16
ATOM     13  C   UNL     1       7.327   4.827  17.388  0.00  0.00    +0.000 A 
ATOM     14  C   UNL     1       6.392   4.574  16.392  0.00  0.00    +0.000 A 
ATOM     15  C   UNL     1       5.039   4.799  16.634  0.00  0.00    +0.000 A 
ATOM     16  C   UNL     1       4.602   5.281  17.879  0.00  0.00    +0.000 A 
ATOM     17  C   UNL     1       5.552   5.515  18.883  0.00  0.00    +0.000 A 
ATOM     18  C   UNL     1       6.908   5.296  18.634  0.00  0.00    +0.000 A 
ENDBRANCH  12  16
ENDBRANCH   1  12
BRANCH   6  19
ATOM     19  C   UNL     1      -0.622  11.337  19.700  0.00  0.00    +0.000 C 
BRANCH  19  20
ATOM     20  C   UNL     1      -1.803  11.059  18.805  0.00  0.00    +0.000 A 
ATOM     21  C   UNL     1      -3.026  11.763  18.948  0.00  0.00    +0.000 A 
ATOM     22  C   UNL     1      -4.016  11.687  17.962  0.00  0.00    +0.000 A 
ATOM     23  C   UNL     1      -3.724  10.927  16.853  0.00  0.00    +0.000 A 
ATOM     24  C   UNL     1      -2.599  10.131  16.784  0.00  0.00    +0.000 A 
ATOM     25  C   UNL     1      -1.636  10.146  17.755  0.00  0.00    +0.000 A 
ATOM     26  O   UNL     1      -2.464   9.534  15.567  0.00  0.00    +0.000 OA
ATOM     27  C   UNL     1      -3.287  10.448  14.827  0.00  0.00    +0.000 C 
ATOM     28  O   UNL     1      -4.356  10.980  15.643  0.00  0.00    +0.000 OA
ENDBRANCH  19  20
ENDBRANCH   6  19
TORSDOF 4
ENDMDL
MODEL 6
REMARK VINA RESULT:      -8.5      5.376      7.947
REMARK  Name = 
REMARK  4 active torsions:
REMARK  status: ('A' for Active; 'I' for Inactive)
REMARK    1  A    between atoms: C_4  and  C_5
REMARK    2  A    between atoms: C_5  and  N_6
REMARK    3  A    between atoms: N_11  and  C_12
REMARK    4  A    between atoms: C_12  and  C_13
REMARK                            x       y       z     vdW  Elec       q    Type
REMARK                         _______ _______ _______ _____ _____    ______ ____
ROOT
ATOM      1  N   UNL     1       0.642  10.247  19.959  0.00  0.00    +0.000 N 
ATOM      2  N   UNL     1       0.339   9.643  21.134  0.00  0.00    +0.000 NA
ATOM      3  N   UNL     1       0.891   8.431  21.117  0.00  0.00    +0.000 NA
ATOM      4  C   UNL     1       1.529   8.266  19.913  0.00  0.00    +0.000 A 
ATOM      5  C   UNL     1       2.175   7.180  19.292  0.00  0.00    +0.000 A 
ATOM      6  N   UNL     1       2.253   5.898  19.871  0.00  0.00    +0.000 N 
ATOM      7  N   UNL     1       2.672   7.387  18.037  0.00  0.00    +0.000 NA
ATOM      8  C   UNL     1       2.507   8.584  17.448  0.00  0.00    +0.000 A 
ATOM      9  N   UNL     1       1.865   9.657  17.927  0.00  0.00    +0.000 NA
ATOM     10  C   UNL     1       1.407   9.426  19.167  0.00  0.00    +0.000 A 
ATOM     11  H   UNL     1       3.024   5.885  20.541  0.00  0.00    +0.000 HD
ENDROOT
BRANCH   1  12
ATOM     12  C   UNL     1      -0.013  11.474  19.560  0.00  0.00    +0.000 C 
BRANCH  12  16
ATOM     13  C   UNL     1      -3.913  10.730  17.882  0.00  0.00    +0.000 A 
ATOM     14  C   UNL     1      -2.834   9.932  17.519  0.00  0.00    +0.000 A 
ATOM     15  C   UNL     1      -1.573  10.183  18.055  0.00  0.00    +0.000 A 
ATOM     16  C   UNL     1      -1.373  11.238  18.961  0.00  0.00    +0.000 A 
ATOM     17  C   UNL     1      -2.465  12.048  19.305  0.00  0.00    +0.000 A 
ATOM     18  C   UNL     1      -3.728  11.788  18.772  0.00  0.00    +0.000 A 
ENDBRANCH  12  16
ENDBRANCH   1  12
BRANCH   6  19
ATOM     19  C   UNL     1       2.357   4.841  18.863  0.00  0.00    +0.000 C 
BRANCH  19  20
ATOM     20  C   UNL     1       3.810   4.611  18.527  0.00  0.00    +0.000 A 
ATOM     21  C   UNL     1       4.222   4.259  17.217  0.00  0.00    +0.000 A 
ATOM     22  C   UNL     1       5.574   4.303  16.856  0.00  0.00    +0.000 A 
ATOM     23  C   UNL     1       6.456   4.729  17.822  0.00  0.00    +0.000 A 
ATOM     24  C   UNL     1       6.070   4.930  19.132  0.00  0.00    +0.000 A 
ATOM     25  C   UNL     1       4.764   4.847  19.527  0.00  0.00    +0.000 A 
ATOM     26  O   UNL     1       7.081   5.431  19.895  0.00  0.00    +0.000 OA
ATOM     27  C   UNL     1       7.868   5.967  18.822  0.00  0.00    +0.000 C 
ATOM     28  O   UNL     1       7.730   5.178  17.616  0.00  0.00    +0.000 OA
ENDBRANCH  19  20
ENDBRANCH   6  19
TORSDOF 4
ENDMDL
MODEL 7
REMARK VINA RESULT:      -8.5      1.181      1.383
REMARK  Name = 
REMARK  4 active torsions:
REMARK  status: ('A' for Active; 'I' for Inactive)
REMARK    1  A    between atoms: C_4  and  C_5
REMARK    2  A    between atoms: C_5  and  N_6
REMARK    3  A    between atoms: N_11  and  C_12
REMARK    4  A    between atoms: C_12  and  C_13
REMARK                            x       y       z     vdW  Elec       q    Type
REMARK                         _______ _______ _______ _____ _____    ______ ____
ROOT
ATOM      1  N   UNL     1       5.267   5.380  16.824  0.00  0.00    +0.000 N 
ATOM      2  N   UNL     1       5.038   6.457  16.035  0.00  0.00    +0.000 NA
ATOM      3  N   UNL     1       5.962   7.371  16.324  0.00  0.00    +0.000 NA
ATOM      4  C   UNL     1       6.766   6.872  17.319  0.00  0.00    +0.000 A 
ATOM      5  C   UNL     1       7.812   7.410  18.092  0.00  0.00    +0.000 A 
ATOM      6  N   UNL     1       8.241   8.747  17.979  0.00  0.00    +0.000 N 
ATOM      7  N   UNL     1       8.366   6.599  19.041  0.00  0.00    +0.000 NA
ATOM      8  C   UNL     1       7.885   5.356  19.212  0.00  0.00    +0.000 A 
ATOM      9  N   UNL     1       6.865   4.770  18.572  0.00  0.00    +0.000 NA
ATOM     10  C   UNL     1       6.357   5.586  17.634  0.00  0.00    +0.000 A 
ATOM     11  H   UNL     1       8.880   8.823  17.186  0.00  0.00    +0.000 HD
ENDROOT
BRANCH   1  12
ATOM     12  C   UNL     1       4.295   4.313  16.933  0.00  0.00    +0.000 C 
BRANCH  12  16
ATOM     13  C   UNL     1       2.128   4.469  20.656  0.00  0.00    +0.000 A 
ATOM     14  C   UNL     1       2.865   3.338  20.324  0.00  0.00    +0.000 A 
ATOM     15  C   UNL     1       3.554   3.287  19.115  0.00  0.00    +0.000 A 
ATOM     16  C   UNL     1       3.515   4.368  18.219  0.00  0.00    +0.000 A 
ATOM     17  C   UNL     1       2.753   5.496  18.555  0.00  0.00    +0.000 A 
ATOM     18  C   UNL     1       2.071   5.547  19.771  0.00  0.00    +0.000 A 
ENDBRANCH  12  16
ENDBRANCH   1  12
BRANCH   6  19
ATOM     19  C   UNL     1       8.821   9.249  19.227  0.00  0.00    +0.000 C 
BRANCH  19  20
ATOM     20  C   UNL     1       9.393  10.625  18.995  0.00  0.00    +0.000 A 
ATOM     21  C   UNL     1       9.832  11.040  17.711  0.00  0.00    +0.000 A 
ATOM     22  C   UNL     1      10.114  12.386  17.452  0.00  0.00    +0.000 A 
ATOM     23  C   UNL     1       9.913  13.268  18.489  0.00  0.00    +0.000 A 
ATOM     24  C   UNL     1       9.627  12.843  19.770  0.00  0.00    +0.000 A 
ATOM     25  C   UNL     1       9.394  11.529  20.066  0.00  0.00    +0.000 A 
ATOM     26  O   UNL     1       9.384  13.883  20.616  0.00  0.00    +0.000 OA
ATOM     27  C   UNL     1       9.052  14.856  19.614  0.00  0.00    +0.000 C 
ATOM     28  O   UNL     1       9.783  14.625  18.387  0.00  0.00    +0.000 OA
ENDBRANCH  19  20
ENDBRANCH   6  19
TORSDOF 4
ENDMDL
MODEL 8
REMARK VINA RESULT:      -8.3      6.271      8.975
REMARK  Name = 
REMARK  4 active torsions:
REMARK  status: ('A' for Active; 'I' for Inactive)
REMARK    1  A    between atoms: C_4  and  C_5
REMARK    2  A    between atoms: C_5  and  N_6
REMARK    3  A    between atoms: N_11  and  C_12
REMARK    4  A    between atoms: C_12  and  C_13
REMARK                            x       y       z     vdW  Elec       q    Type
REMARK                         _______ _______ _______ _____ _____    ______ ____
ROOT
ATOM      1  N   UNL     1       3.052   6.189  18.424  0.00  0.00    +0.000 N 
ATOM      2  N   UNL     1       2.797   5.568  19.601  0.00  0.00    +0.000 NA
ATOM      3  N   UNL     1       2.071   6.400  20.346  0.00  0.00    +0.000 NA
ATOM      4  C   UNL     1       1.887   7.561  19.638  0.00  0.00    +0.000 A 
ATOM      5  C   UNL     1       1.313   8.810  19.943  0.00  0.00    +0.000 A 
ATOM      6  N   UNL     1       0.796   9.128  21.215  0.00  0.00    +0.000 N 
ATOM      7  N   UNL     1       1.345   9.765  18.967  0.00  0.00    +0.000 NA
ATOM      8  C   UNL     1       1.929   9.489  17.789  0.00  0.00    +0.000 A 
ATOM      9  N   UNL     1       2.547   8.360  17.419  0.00  0.00    +0.000 NA
ATOM     10  C   UNL     1       2.480   7.437  18.393  0.00  0.00    +0.000 A 
ATOM     11  H   UNL     1      -0.151   8.753  21.289  0.00  0.00    +0.000 HD
ENDROOT
BRANCH   1  12
ATOM     12  C   UNL     1       4.022   5.655  17.493  0.00  0.00    +0.000 C 
BRANCH  12  16
ATOM     13  C   UNL     1       8.052   6.721  18.590  0.00  0.00    +0.000 A 
ATOM     14  C   UNL     1       7.420   7.375  17.539  0.00  0.00    +0.000 A 
ATOM     15  C   UNL     1       6.122   7.019  17.180  0.00  0.00    +0.000 A 
ATOM     16  C   UNL     1       5.438   6.003  17.868  0.00  0.00    +0.000 A 
ATOM     17  C   UNL     1       6.093   5.337  18.914  0.00  0.00    +0.000 A 
ATOM     18  C   UNL     1       7.390   5.701  19.276  0.00  0.00    +0.000 A 
ENDBRANCH  12  16
ENDBRANCH   1  12
BRANCH   6  19
ATOM     19  C   UNL     1       0.863  10.564  21.496  0.00  0.00    +0.000 C 
BRANCH  19  20
ATOM     20  C   UNL     1      -0.528  11.089  21.753  0.00  0.00    +0.000 A 
ATOM     21  C   UNL     1      -1.126  11.007  23.037  0.00  0.00    +0.000 A 
ATOM     22  C   UNL     1      -2.295  11.720  23.328  0.00  0.00    +0.000 A 
ATOM     23  C   UNL     1      -2.800  12.512  22.323  0.00  0.00    +0.000 A 
ATOM     24  C   UNL     1      -2.299  12.476  21.037  0.00  0.00    +0.000 A 
ATOM     25  C   UNL     1      -1.187  11.751  20.709  0.00  0.00    +0.000 A 
ATOM     26  O   UNL     1      -2.889  13.400  20.228  0.00  0.00    +0.000 OA
ATOM     27  C   UNL     1      -3.361  14.272  21.266  0.00  0.00    +0.000 C 
ATOM     28  O   UNL     1      -3.693  13.537  22.467  0.00  0.00    +0.000 OA
ENDBRANCH  19  20
ENDBRANCH   6  19
TORSDOF 4
ENDMDL
MODEL 9
REMARK VINA RESULT:      -8.3      1.264      1.474
REMARK  Name = 
REMARK  4 active torsions:
REMARK  status: ('A' for Active; 'I' for Inactive)
REMARK    1  A    between atoms: C_4  and  C_5
REMARK    2  A    between atoms: C_5  and  N_6
REMARK    3  A    between atoms: N_11  and  C_12
REMARK    4  A    between atoms: C_12  and  C_13
REMARK                            x       y       z     vdW  Elec       q    Type
REMARK                         _______ _______ _______ _____ _____    ______ ____
ROOT
ATOM      1  N   UNL     1       4.540   5.330  17.070  0.00  0.00    +0.000 N 
ATOM      2  N   UNL     1       4.111   6.547  16.658  0.00  0.00    +0.000 NA
ATOM      3  N   UNL     1       5.119   7.403  16.819  0.00  0.00    +0.000 NA
ATOM      4  C   UNL     1       6.182   6.721  17.355  0.00  0.00    +0.000 A 
ATOM      5  C   UNL     1       7.448   7.107  17.836  0.00  0.00    +0.000 A 
ATOM      6  N   UNL     1       7.875   8.448  17.885  0.00  0.00    +0.000 N 
ATOM      7  N   UNL     1       8.247   6.124  18.346  0.00  0.00    +0.000 NA
ATOM      8  C   UNL     1       7.795   4.858  18.389  0.00  0.00    +0.000 A 
ATOM      9  N   UNL     1       6.595   4.398  18.010  0.00  0.00    +0.000 NA
ATOM     10  C   UNL     1       5.844   5.385  17.497  0.00  0.00    +0.000 A 
ATOM     11  H   UNL     1       8.219   8.719  16.962  0.00  0.00    +0.000 HD
ENDROOT
BRANCH   1  12
ATOM     12  C   UNL     1       3.611   4.235  17.257  0.00  0.00    +0.000 C 
BRANCH  12  16
ATOM     13  C   UNL     1       2.143   4.036  21.305  0.00  0.00    +0.000 A 
ATOM     14  C   UNL     1       2.883   2.983  20.779  0.00  0.00    +0.000 A 
ATOM     15  C   UNL     1       3.345   3.046  19.466  0.00  0.00    +0.000 A 
ATOM     16  C   UNL     1       3.074   4.165  18.661  0.00  0.00    +0.000 A 
ATOM     17  C   UNL     1       2.310   5.212  19.196  0.00  0.00    +0.000 A 
ATOM     18  C   UNL     1       1.855   5.149  20.514  0.00  0.00    +0.000 A 
ENDBRANCH  12  16
ENDBRANCH   1  12
BRANCH   6  19
ATOM     19  C   UNL     1       8.855   8.679  18.948  0.00  0.00    +0.000 C 
BRANCH  19  20
ATOM     20  C   UNL     1       9.044  10.163  19.141  0.00  0.00    +0.000 A 
ATOM     21  C   UNL     1       9.349  10.714  20.412  0.00  0.00    +0.000 A 
ATOM     22  C   UNL     1       9.775  12.041  20.533  0.00  0.00    +0.000 A 
ATOM     23  C   UNL     1       9.906  12.755  19.365  0.00  0.00    +0.000 A 
ATOM     24  C   UNL     1       9.471  12.264  18.151  0.00  0.00    +0.000 A 
ATOM     25  C   UNL     1       9.004  10.987  18.008  0.00  0.00    +0.000 A 
ATOM     26  O   UNL     1       9.777  13.098  17.118  0.00  0.00    +0.000 OA
ATOM     27  C   UNL     1      10.840  13.808  17.769  0.00  0.00    +0.000 C 
ATOM     28  O   UNL     1      10.615  13.912  19.195  0.00  0.00    +0.000 OA
ENDBRANCH  19  20
ENDBRANCH   6  19
TORSDOF 4
ENDMDL
