MODEL 1
REMARK VINA RESULT:      -6.8      0.000      0.000
REMARK  Name = 
REMARK  15 active torsions:
REMARK  status: ('A' for Active; 'I' for Inactive)
REMARK    1  A    between atoms: N_1  and  C_2
REMARK    2  A    between atoms: C_2  and  C_3
REMARK    3  A    between atoms: C_3  and  C_4
REMARK    4  A    between atoms: C_4  and  N_5
REMARK    5  A    between atoms: N_8  and  C_9
REMARK    6  A    between atoms: C_9  and  C_10
REMARK    7  A    between atoms: C_10  and  C_11
REMARK    8  A    between atoms: C_11  and  N_12
REMARK    9  A    between atoms: N_12  and  N_13
REMARK   10  A    between atoms: C_14  and  S_15
REMARK   11  A    between atoms: N_16  and  C_17
REMARK   12  A    between atoms: C_17  and  C_18
REMARK   13  A    between atoms: C_18  and  C_19
REMARK   14  A    between atoms: C_22  and  S_23
REMARK   15  A    between atoms: S_23  and  N_24
REMARK                            x       y       z     vdW  Elec       q    Type
REMARK                         _______ _______ _______ _____ _____    ______ ____
ROOT
ATOM      1  N   UNL     1       6.889   7.331  16.913  0.00  0.00    +0.000 NA
ATOM      2  C   UNL     1       7.600   7.031  17.967  0.00  0.00    +0.000 C 
ATOM      3  N   UNL     1       8.589   7.854  18.427  0.00  0.00    +0.000 N 
ATOM      4  H   UNL     1       9.110   7.503  19.222  0.00  0.00    +0.000 HD
ENDROOT
BRANCH   1   5
ATOM      5  N   UNL     1       5.928   6.468  16.539  0.00  0.00    +0.000 N 
ATOM      6  H   UNL     1       5.028   6.956  16.487  0.00  0.00    +0.000 HD
BRANCH   5   7
ATOM      7  C   UNL     1       6.151   5.790  15.263  0.00  0.00    +0.000 C 
BRANCH   7   8
ATOM      8  C   UNL     1       5.317   4.525  15.316  0.00  0.00    +0.000 C 
BRANCH   8   9
ATOM      9  C   UNL     1       5.243   3.940  16.724  0.00  0.00    +0.000 C 
BRANCH   9  13
ATOM     10  N   UNL     1       3.706   4.839  20.028  0.00  0.00    +0.000 NA
ATOM     11  C   UNL     1       4.318   3.538  19.671  0.00  0.00    +0.000 C 
ATOM     12  C   UNL     1       3.772   2.903  18.365  0.00  0.00    +0.000 C 
ATOM     13  N   UNL     1       3.849   3.784  17.177  0.00  0.00    +0.000 NA
ATOM     14  C   UNL     1       3.205   5.069  17.527  0.00  0.00    +0.000 C 
ATOM     15  C   UNL     1       3.747   5.711  18.833  0.00  0.00    +0.000 C 
BRANCH  10  16
ATOM     16  C   UNL     1       2.329   4.668  20.563  0.00  0.00    +0.000 C 
BRANCH  16  17
ATOM     17  C   UNL     1       2.225   3.647  21.722  0.00  0.00    +0.000 C 
BRANCH  17  18
ATOM     18  C   UNL     1       1.161   2.572  21.472  0.00  0.00    +0.000 C 
BRANCH  18  19
ATOM     19  N   UNL     1       0.605   2.756  20.132  0.00  0.00    +0.000 NA
ATOM     20  H   UNL     1      -0.028   3.553  20.124  0.00  0.00    +0.000 HD
ATOM     21  H   UNL     1       0.041   1.943  19.880  0.00  0.00    +0.000 HD
ENDBRANCH  18  19
ENDBRANCH  17  18
ENDBRANCH  16  17
ENDBRANCH  10  16
ENDBRANCH   9  13
ENDBRANCH   8   9
ENDBRANCH   7   8
ENDBRANCH   5   7
ENDBRANCH   1   5
BRANCH   2  22
ATOM     22  S   UNL     1       7.391   5.571  18.935  0.00  0.00    +0.000 S 
ATOM     23  H   UNL     1       8.053   6.005  20.018  0.00  0.00    +0.000 HD
ENDBRANCH   2  22
BRANCH   3  24
ATOM     24  C   UNL     1       8.535   9.295  18.238  0.00  0.00    +0.000 C 
BRANCH  24  25
ATOM     25  C   UNL     1       9.299  10.028  19.344  0.00  0.00    +0.000 C 
BRANCH  25  26
ATOM     26  C   UNL     1       9.717  11.418  18.928  0.00  0.00    +0.000 A 
ATOM     27  C   UNL     1       8.819  12.241  18.224  0.00  0.00    +0.000 A 
ATOM     28  C   UNL     1       9.202  13.519  17.823  0.00  0.00    +0.000 A 
ATOM     29  C   UNL     1      10.487  13.981  18.126  0.00  0.00    +0.000 A 
ATOM     30  C   UNL     1      11.393  13.177  18.816  0.00  0.00    +0.000 A 
ATOM     31  C   UNL     1      11.008  11.893  19.208  0.00  0.00    +0.000 A 
BRANCH  29  32
ATOM     32  S   UNL     1      10.959  15.594  17.587  0.00  0.00    +0.000 S 
ATOM     33  O   UNL     1      12.332  15.554  17.105  0.00  0.00    +0.000 OA
ATOM     34  O   UNL     1       9.889  16.174  16.821  0.00  0.00    +0.000 OA
BRANCH  32  35
ATOM     35  N   UNL     1      11.007  16.415  19.047  0.00  0.00    +0.000 NA
ATOM     36  H   UNL     1      10.219  16.143  19.634  0.00  0.00    +0.000 HD
ATOM     37  H   UNL     1      11.924  16.314  19.479  0.00  0.00    +0.000 HD
ENDBRANCH  32  35
ENDBRANCH  29  32
ENDBRANCH  25  26
ENDBRANCH  24  25
ENDBRANCH   3  24
TORSDOF 15
ENDMDL
MODEL 2
REMARK VINA RESULT:      -6.8      4.335     10.190
REMARK  Name = 
REMARK  15 active torsions:
REMARK  status: ('A' for Active; 'I' for Inactive)
REMARK    1  A    between atoms: N_1  and  C_2
REMARK    2  A    between atoms: C_2  and  C_3
REMARK    3  A    between atoms: C_3  and  C_4
REMARK    4  A    between atoms: C_4  and  N_5
REMARK    5  A    between atoms: N_8  and  C_9
REMARK    6  A    between atoms: C_9  and  C_10
REMARK    7  A    between atoms: C_10  and  C_11
REMARK    8  A    between atoms: C_11  and  N_12
REMARK    9  A    between atoms: N_12  and  N_13
REMARK   10  A    between atoms: C_14  and  S_15
REMARK   11  A    between atoms: N_16  and  C_17
REMARK   12  A    between atoms: C_17  and  C_18
REMARK   13  A    between atoms: C_18  and  C_19
REMARK   14  A    between atoms: C_22  and  S_23
REMARK   15  A    between atoms: S_23  and  N_24
REMARK                            x       y       z     vdW  Elec       q    Type
REMARK                         _______ _______ _______ _____ _____    ______ ____
ROOT
ATOM      1  N   UNL     1       6.781   6.766  18.114  0.00  0.00    +0.000 NA
ATOM      2  C   UNL     1       6.466   5.559  17.727  0.00  0.00    +0.000 C 
ATOM      3  N   UNL     1       5.558   4.798  18.408  0.00  0.00    +0.000 N 
ATOM      4  H   UNL     1       5.422   3.860  18.050  0.00  0.00    +0.000 HD
ENDROOT
BRANCH   1   5
ATOM      5  N   UNL     1       7.676   7.447  17.376  0.00  0.00    +0.000 N 
ATOM      6  H   UNL     1       7.474   7.313  16.380  0.00  0.00    +0.000 HD
BRANCH   5   7
ATOM      7  C   UNL     1       7.744   8.884  17.635  0.00  0.00    +0.000 C 
BRANCH   7   8
ATOM      8  C   UNL     1       8.854   9.068  18.653  0.00  0.00    +0.000 C 
BRANCH   8   9
ATOM      9  C   UNL     1       9.009  10.525  19.079  0.00  0.00    +0.000 C 
BRANCH   9  13
ATOM     10  N   UNL     1      10.423  13.957  19.634  0.00  0.00    +0.000 NA
ATOM     11  C   UNL     1       9.497  13.556  18.550  0.00  0.00    +0.000 C 
ATOM     12  C   UNL     1       9.956  12.320  17.732  0.00  0.00    +0.000 C 
ATOM     13  N   UNL     1      10.249  11.120  18.548  0.00  0.00    +0.000 NA
ATOM     14  C   UNL     1      11.201  11.517  19.608  0.00  0.00    +0.000 C 
ATOM     15  C   UNL     1      10.749  12.754  20.431  0.00  0.00    +0.000 C 
BRANCH  10  16
ATOM     16  C   UNL     1      11.635  14.632  19.097  0.00  0.00    +0.000 C 
BRANCH  16  17
ATOM     17  C   UNL     1      11.352  15.998  18.426  0.00  0.00    +0.000 C 
BRANCH  17  18
ATOM     18  C   UNL     1      11.824  16.051  16.968  0.00  0.00    +0.000 C 
BRANCH  18  19
ATOM     19  N   UNL     1      10.655  16.038  16.089  0.00  0.00    +0.000 NA
ATOM     20  H   UNL     1      10.286  15.092  16.016  0.00  0.00    +0.000 HD
ATOM     21  H   UNL     1      10.934  16.308  15.144  0.00  0.00    +0.000 HD
ENDBRANCH  18  19
ENDBRANCH  17  18
ENDBRANCH  16  17
ENDBRANCH  10  16
ENDBRANCH   9  13
ENDBRANCH   8   9
ENDBRANCH   7   8
ENDBRANCH   5   7
ENDBRANCH   1   5
BRANCH   2  22
ATOM     22  S   UNL     1       7.132   4.755  16.305  0.00  0.00    +0.000 S 
ATOM     23  H   UNL     1       6.217   5.199  15.431  0.00  0.00    +0.000 HD
ENDBRANCH   2  22
BRANCH   3  24
ATOM     24  C   UNL     1       4.465   5.399  19.157  0.00  0.00    +0.000 C 
BRANCH  24  25
ATOM     25  C   UNL     1       3.289   5.746  18.239  0.00  0.00    +0.000 C 
BRANCH  25  26
ATOM     26  C   UNL     1       2.606   7.031  18.643  0.00  0.00    +0.000 A 
ATOM     27  C   UNL     1       2.110   7.181  19.951  0.00  0.00    +0.000 A 
ATOM     28  C   UNL     1       1.464   8.357  20.327  0.00  0.00    +0.000 A 
ATOM     29  C   UNL     1       1.313   9.390  19.396  0.00  0.00    +0.000 A 
ATOM     30  C   UNL     1       1.792   9.255  18.094  0.00  0.00    +0.000 A 
ATOM     31  C   UNL     1       2.430   8.072  17.718  0.00  0.00    +0.000 A 
BRANCH  29  32
ATOM     32  S   UNL     1       0.470  10.860  19.888  0.00  0.00    +0.000 S 
ATOM     33  O   UNL     1      -0.966  10.636  19.813  0.00  0.00    +0.000 OA
ATOM     34  O   UNL     1       1.105  11.407  21.057  0.00  0.00    +0.000 OA
BRANCH  32  35
ATOM     35  N   UNL     1       0.844  11.882  18.614  0.00  0.00    +0.000 NA
ATOM     36  H   UNL     1       1.664  11.540  18.112  0.00  0.00    +0.000 HD
ATOM     37  H   UNL     1       0.020  12.043  18.038  0.00  0.00    +0.000 HD
ENDBRANCH  32  35
ENDBRANCH  29  32
ENDBRANCH  25  26
ENDBRANCH  24  25
ENDBRANCH   3  24
TORSDOF 15
ENDMDL
MODEL 3
REMARK VINA RESULT:      -6.6      1.661      2.187
REMARK  Name = 
REMARK  15 active torsions:
REMARK  status: ('A' for Active; 'I' for Inactive)
REMARK    1  A    between atoms: N_1  and  C_2
REMARK    2  A    between atoms: C_2  and  C_3
REMARK    3  A    between atoms: C_3  and  C_4
REMARK    4  A    between atoms: C_4  and  N_5
REMARK    5  A    between atoms: N_8  and  C_9
REMARK    6  A    between atoms: C_9  and  C_10
REMARK    7  A    between atoms: C_10  and  C_11
REMARK    8  A    between atoms: C_11  and  N_12
REMARK    9  A    between atoms: N_12  and  N_13
REMARK   10  A    between atoms: C_14  and  S_15
REMARK   11  A    between atoms: N_16  and  C_17
REMARK   12  A    between atoms: C_17  and  C_18
REMARK   13  A    between atoms: C_18  and  C_19
REMARK   14  A    between atoms: C_22  and  S_23
REMARK   15  A    between atoms: S_23  and  N_24
REMARK                            x       y       z     vdW  Elec       q    Type
REMARK                         _______ _______ _______ _____ _____    ______ ____
ROOT
ATOM      1  N   UNL     1       7.754   7.137  16.794  0.00  0.00    +0.000 NA
ATOM      2  C   UNL     1       8.026   7.191  18.071  0.00  0.00    +0.000 C 
ATOM      3  N   UNL     1       8.566   8.307  18.645  0.00  0.00    +0.000 N 
ATOM      4  H   UNL     1       8.782   8.226  19.632  0.00  0.00    +0.000 HD
ENDROOT
BRANCH   1   5
ATOM      5  N   UNL     1       7.213   6.003  16.317  0.00  0.00    +0.000 N 
ATOM      6  H   UNL     1       7.402   5.232  16.965  0.00  0.00    +0.000 HD
BRANCH   5   7
ATOM      7  C   UNL     1       5.773   6.045  16.070  0.00  0.00    +0.000 C 
BRANCH   7   8
ATOM      8  C   UNL     1       5.429   4.728  15.401  0.00  0.00    +0.000 C 
BRANCH   8   9
ATOM      9  C   UNL     1       4.974   3.673  16.404  0.00  0.00    +0.000 C 
BRANCH   9  13
ATOM     10  N   UNL     1       1.901   2.708  18.331  0.00  0.00    +0.000 NA
ATOM     11  C   UNL     1       1.965   3.672  17.209  0.00  0.00    +0.000 C 
ATOM     12  C   UNL     1       3.034   4.784  17.371  0.00  0.00    +0.000 C 
ATOM     13  N   UNL     1       4.405   4.284  17.619  0.00  0.00    +0.000 NA
ATOM     14  C   UNL     1       4.343   3.348  18.764  0.00  0.00    +0.000 C 
ATOM     15  C   UNL     1       3.275   2.232  18.608  0.00  0.00    +0.000 C 
BRANCH  10  16
ATOM     16  C   UNL     1       1.250   3.304  19.528  0.00  0.00    +0.000 C 
BRANCH  16  17
ATOM     17  C   UNL     1       1.526   2.536  20.843  0.00  0.00    +0.000 C 
BRANCH  17  18
ATOM     18  C   UNL     1       2.244   3.395  21.891  0.00  0.00    +0.000 C 
BRANCH  18  19
ATOM     19  N   UNL     1       2.334   4.769  21.400  0.00  0.00    +0.000 NA
ATOM     20  H   UNL     1       1.460   5.260  21.578  0.00  0.00    +0.000 HD
ATOM     21  H   UNL     1       2.456   4.763  20.386  0.00  0.00    +0.000 HD
ENDBRANCH  18  19
ENDBRANCH  17  18
ENDBRANCH  16  17
ENDBRANCH  10  16
ENDBRANCH   9  13
ENDBRANCH   8   9
ENDBRANCH   7   8
ENDBRANCH   5   7
ENDBRANCH   1   5
BRANCH   2  22
ATOM     22  S   UNL     1       7.738   5.880  19.214  0.00  0.00    +0.000 S 
ATOM     23  H   UNL     1       8.736   5.087  18.799  0.00  0.00    +0.000 HD
ENDBRANCH   2  22
BRANCH   3  24
ATOM     24  C   UNL     1       8.311   9.639  18.118  0.00  0.00    +0.000 C 
BRANCH  24  25
ATOM     25  C   UNL     1       9.567  10.511  18.184  0.00  0.00    +0.000 C 
BRANCH  25  26
ATOM     26  C   UNL     1       9.253  11.944  18.543  0.00  0.00    +0.000 A 
ATOM     27  C   UNL     1       8.486  12.735  17.669  0.00  0.00    +0.000 A 
ATOM     28  C   UNL     1       8.204  14.062  17.985  0.00  0.00    +0.000 A 
ATOM     29  C   UNL     1       8.688  14.605  19.180  0.00  0.00    +0.000 A 
ATOM     30  C   UNL     1       9.456  13.838  20.056  0.00  0.00    +0.000 A 
ATOM     31  C   UNL     1       9.743  12.510  19.730  0.00  0.00    +0.000 A 
BRANCH  29  32
ATOM     32  S   UNL     1       8.339  16.295  19.548  0.00  0.00    +0.000 S 
ATOM     33  O   UNL     1       7.805  16.943  18.359  0.00  0.00    +0.000 OA
ATOM     34  O   UNL     1       7.693  16.382  20.830  0.00  0.00    +0.000 OA
BRANCH  32  35
ATOM     35  N   UNL     1       9.888  16.903  19.747  0.00  0.00    +0.000 NA
ATOM     36  H   UNL     1      10.258  17.233  18.856  0.00  0.00    +0.000 HD
ATOM     37  H   UNL     1       9.904  17.586  20.502  0.00  0.00    +0.000 HD
ENDBRANCH  32  35
ENDBRANCH  29  32
ENDBRANCH  25  26
ENDBRANCH  24  25
ENDBRANCH   3  24
TORSDOF 15
ENDMDL
MODEL 4
REMARK VINA RESULT:      -6.5      4.099     10.148
REMARK  Name = 
REMARK  15 active torsions:
REMARK  status: ('A' for Active; 'I' for Inactive)
REMARK    1  A    between atoms: N_1  and  C_2
REMARK    2  A    between atoms: C_2  and  C_3
REMARK    3  A    between atoms: C_3  and  C_4
REMARK    4  A    between atoms: C_4  and  N_5
REMARK    5  A    between atoms: N_8  and  C_9
REMARK    6  A    between atoms: C_9  and  C_10
REMARK    7  A    between atoms: C_10  and  C_11
REMARK    8  A    between atoms: C_11  and  N_12
REMARK    9  A    between atoms: N_12  and  N_13
REMARK   10  A    between atoms: C_14  and  S_15
REMARK   11  A    between atoms: N_16  and  C_17
REMARK   12  A    between atoms: C_17  and  C_18
REMARK   13  A    between atoms: C_18  and  C_19
REMARK   14  A    between atoms: C_22  and  S_23
REMARK   15  A    between atoms: S_23  and  N_24
REMARK                            x       y       z     vdW  Elec       q    Type
REMARK                         _______ _______ _______ _____ _____    ______ ____
ROOT
ATOM      1  N   UNL     1       6.358   6.626  18.010  0.00  0.00    +0.000 NA
ATOM      2  C   UNL     1       5.768   5.655  17.365  0.00  0.00    +0.000 C 
ATOM      3  N   UNL     1       4.962   4.753  18.002  0.00  0.00    +0.000 N 
ATOM      4  H   UNL     1       4.592   4.014  17.417  0.00  0.00    +0.000 HD
ENDROOT
BRANCH   1   5
ATOM      5  N   UNL     1       7.124   7.474  17.301  0.00  0.00    +0.000 N 
ATOM      6  H   UNL     1       6.562   8.277  17.002  0.00  0.00    +0.000 HD
BRANCH   5   7
ATOM      7  C   UNL     1       8.309   7.981  17.991  0.00  0.00    +0.000 C 
BRANCH   7   8
ATOM      8  C   UNL     1       8.196   9.493  17.949  0.00  0.00    +0.000 C 
BRANCH   8   9
ATOM      9  C   UNL     1       9.215  10.173  18.859  0.00  0.00    +0.000 C 
BRANCH   9  13
ATOM     10  N   UNL     1      11.174  13.326  18.302  0.00  0.00    +0.000 NA
ATOM     11  C   UNL     1      11.186  12.491  19.526  0.00  0.00    +0.000 C 
ATOM     12  C   UNL     1       9.783  12.183  20.113  0.00  0.00    +0.000 C 
ATOM     13  N   UNL     1       8.840  11.568  19.152  0.00  0.00    +0.000 NA
ATOM     14  C   UNL     1       8.803  12.424  17.946  0.00  0.00    +0.000 C 
ATOM     15  C   UNL     1      10.204  12.736  17.352  0.00  0.00    +0.000 C 
BRANCH  10  16
ATOM     16  C   UNL     1      10.876  14.749  18.614  0.00  0.00    +0.000 C 
BRANCH  16  17
ATOM     17  C   UNL     1      12.063  15.711  18.363  0.00  0.00    +0.000 C 
BRANCH  17  18
ATOM     18  C   UNL     1      11.860  16.592  17.125  0.00  0.00    +0.000 C 
BRANCH  18  19
ATOM     19  N   UNL     1      10.928  15.927  16.215  0.00  0.00    +0.000 NA
ATOM     20  H   UNL     1      11.061  14.919  16.257  0.00  0.00    +0.000 HD
ATOM     21  H   UNL     1      11.133  16.202  15.253  0.00  0.00    +0.000 HD
ENDBRANCH  18  19
ENDBRANCH  17  18
ENDBRANCH  16  17
ENDBRANCH  10  16
ENDBRANCH   9  13
ENDBRANCH   8   9
ENDBRANCH   7   8
ENDBRANCH   5   7
ENDBRANCH   1   5
BRANCH   2  22
ATOM     22  S   UNL     1       5.905   5.375  15.629  0.00  0.00    +0.000 S 
ATOM     23  H   UNL     1       6.455   6.559  15.323  0.00  0.00    +0.000 HD
ENDBRANCH   2  22
BRANCH   3  24
ATOM     24  C   UNL     1       4.211   5.108  19.196  0.00  0.00    +0.000 C 
BRANCH  24  25
ATOM     25  C   UNL     1       2.718   5.249  18.891  0.00  0.00    +0.000 C 
BRANCH  25  26
ATOM     26  C   UNL     1       2.210   6.648  19.147  0.00  0.00    +0.000 A 
ATOM     27  C   UNL     1       2.217   7.599  18.111  0.00  0.00    +0.000 A 
ATOM     28  C   UNL     1       1.764   8.896  18.344  0.00  0.00    +0.000 A 
ATOM     29  C   UNL     1       1.300   9.248  19.615  0.00  0.00    +0.000 A 
ATOM     30  C   UNL     1       1.293   8.320  20.657  0.00  0.00    +0.000 A 
ATOM     31  C   UNL     1       1.756   7.024  20.421  0.00  0.00    +0.000 A 
BRANCH  29  32
ATOM     32  S   UNL     1       0.755  10.902  19.893  0.00  0.00    +0.000 S 
ATOM     33  O   UNL     1       1.644  11.822  19.199  0.00  0.00    +0.000 OA
ATOM     34  O   UNL     1      -0.676  10.964  19.758  0.00  0.00    +0.000 OA
BRANCH  32  35
ATOM     35  N   UNL     1       1.092  11.079  21.525  0.00  0.00    +0.000 NA
ATOM     36  H   UNL     1       0.232  11.228  22.053  0.00  0.00    +0.000 HD
ATOM     37  H   UNL     1       1.671  10.307  21.851  0.00  0.00    +0.000 HD
ENDBRANCH  32  35
ENDBRANCH  29  32
ENDBRANCH  25  26
ENDBRANCH  24  25
ENDBRANCH   3  24
TORSDOF 15
ENDMDL
MODEL 5
REMARK VINA RESULT:      -6.5      3.781      5.088
REMARK  Name = 
REMARK  15 active torsions:
REMARK  status: ('A' for Active; 'I' for Inactive)
REMARK    1  A    between atoms: N_1  and  C_2
REMARK    2  A    between atoms: C_2  and  C_3
REMARK    3  A    between atoms: C_3  and  C_4
REMARK    4  A    between atoms: C_4  and  N_5
REMARK    5  A    between atoms: N_8  and  C_9
REMARK    6  A    between atoms: C_9  and  C_10
REMARK    7  A    between atoms: C_10  and  C_11
REMARK    8  A    between atoms: C_11  and  N_12
REMARK    9  A    between atoms: N_12  and  N_13
REMARK   10  A    between atoms: C_14  and  S_15
REMARK   11  A    between atoms: N_16  and  C_17
REMARK   12  A    between atoms: C_17  and  C_18
REMARK   13  A    between atoms: C_18  and  C_19
REMARK   14  A    between atoms: C_22  and  S_23
REMARK   15  A    between atoms: S_23  and  N_24
REMARK                            x       y       z     vdW  Elec       q    Type
REMARK                         _______ _______ _______ _____ _____    ______ ____
ROOT
ATOM      1  N   UNL     1       9.201  10.820  18.284  0.00  0.00    +0.000 NA
ATOM      2  C   UNL     1       9.421  11.682  19.240  0.00  0.00    +0.000 C 
ATOM      3  N   UNL     1       9.769  12.977  18.976  0.00  0.00    +0.000 N 
ATOM      4  H   UNL     1       9.963  13.548  19.790  0.00  0.00    +0.000 HD
ENDROOT
BRANCH   1   5
ATOM      5  N   UNL     1       8.852   9.570  18.635  0.00  0.00    +0.000 N 
ATOM      6  H   UNL     1       8.471   9.573  19.586  0.00  0.00    +0.000 HD
BRANCH   5   7
ATOM      7  C   UNL     1       7.880   8.917  17.760  0.00  0.00    +0.000 C 
BRANCH   7   8
ATOM      8  C   UNL     1       7.931   7.443  18.113  0.00  0.00    +0.000 C 
BRANCH   8   9
ATOM      9  C   UNL     1       7.240   6.575  17.065  0.00  0.00    +0.000 C 
BRANCH   9  13
ATOM     10  N   UNL     1       4.172   4.455  17.491  0.00  0.00    +0.000 NA
ATOM     11  C   UNL     1       4.798   5.308  18.526  0.00  0.00    +0.000 C 
ATOM     12  C   UNL     1       6.316   5.063  18.737  0.00  0.00    +0.000 C 
ATOM     13  N   UNL     1       7.129   5.172  17.505  0.00  0.00    +0.000 NA
ATOM     14  C   UNL     1       6.521   4.291  16.484  0.00  0.00    +0.000 C 
ATOM     15  C   UNL     1       5.002   4.531  16.268  0.00  0.00    +0.000 C 
BRANCH  10  16
ATOM     16  C   UNL     1       3.986   3.060  17.970  0.00  0.00    +0.000 C 
BRANCH  16  17
ATOM     17  C   UNL     1       3.498   2.955  19.435  0.00  0.00    +0.000 C 
BRANCH  17  18
ATOM     18  C   UNL     1       1.976   2.798  19.543  0.00  0.00    +0.000 C 
BRANCH  18  19
ATOM     19  N   UNL     1       1.538   1.762  18.609  0.00  0.00    +0.000 NA
ATOM     20  H   UNL     1       0.806   2.127  18.003  0.00  0.00    +0.000 HD
ATOM     21  H   UNL     1       1.118   0.989  19.128  0.00  0.00    +0.000 HD
ENDBRANCH  18  19
ENDBRANCH  17  18
ENDBRANCH  16  17
ENDBRANCH  10  16
ENDBRANCH   9  13
ENDBRANCH   8   9
ENDBRANCH   7   8
ENDBRANCH   5   7
ENDBRANCH   1   5
BRANCH   2  22
ATOM     22  S   UNL     1       9.295  11.323  20.962  0.00  0.00    +0.000 S 
ATOM     23  H   UNL     1      10.437  11.921  21.331  0.00  0.00    +0.000 HD
ENDBRANCH   2  22
BRANCH   3  24
ATOM     24  C   UNL     1       9.335  13.654  17.765  0.00  0.00    +0.000 C 
BRANCH  24  25
ATOM     25  C   UNL     1       9.130  15.152  18.009  0.00  0.00    +0.000 C 
BRANCH  25  26
ATOM     26  C   UNL     1       7.675  15.510  18.191  0.00  0.00    +0.000 A 
ATOM     27  C   UNL     1       6.673  14.613  17.777  0.00  0.00    +0.000 A 
ATOM     28  C   UNL     1       5.328  14.943  17.927  0.00  0.00    +0.000 A 
ATOM     29  C   UNL     1       4.978  16.173  18.493  0.00  0.00    +0.000 A 
ATOM     30  C   UNL     1       5.957  17.077  18.902  0.00  0.00    +0.000 A 
ATOM     31  C   UNL     1       7.304  16.747  18.742  0.00  0.00    +0.000 A 
BRANCH  29  32
ATOM     32  S   UNL     1       3.268  16.579  18.650  0.00  0.00    +0.000 S 
ATOM     33  O   UNL     1       2.493  15.352  18.760  0.00  0.00    +0.000 OA
ATOM     34  O   UNL     1       3.118  17.670  19.575  0.00  0.00    +0.000 OA
BRANCH  32  35
ATOM     35  N   UNL     1       2.945  17.193  17.125  0.00  0.00    +0.000 NA
ATOM     36  H   UNL     1       1.956  17.425  17.036  0.00  0.00    +0.000 HD
ATOM     37  H   UNL     1       3.589  17.952  16.907  0.00  0.00    +0.000 HD
ENDBRANCH  32  35
ENDBRANCH  29  32
ENDBRANCH  25  26
ENDBRANCH  24  25
ENDBRANCH   3  24
TORSDOF 15
ENDMDL
MODEL 6
REMARK VINA RESULT:      -6.4      2.386      2.544
REMARK  Name = 
REMARK  15 active torsions:
REMARK  status: ('A' for Active; 'I' for Inactive)
REMARK    1  A    between atoms: N_1  and  C_2
REMARK    2  A    between atoms: C_2  and  C_3
REMARK    3  A    between atoms: C_3  and  C_4
REMARK    4  A    between atoms: C_4  and  N_5
REMARK    5  A    between atoms: N_8  and  C_9
REMARK    6  A    between atoms: C_9  and  C_10
REMARK    7  A    between atoms: C_10  and  C_11
REMARK    8  A    between atoms: C_11  and  N_12
REMARK    9  A    between atoms: N_12  and  N_13
REMARK   10  A    between atoms: C_14  and  S_15
REMARK   11  A    between atoms: N_16  and  C_17
REMARK   12  A    between atoms: C_17  and  C_18
REMARK   13  A    between atoms: C_18  and  C_19
REMARK   14  A    between atoms: C_22  and  S_23
REMARK   15  A    between atoms: S_23  and  N_24
REMARK                            x       y       z     vdW  Elec       q    Type
REMARK                         _______ _______ _______ _____ _____    ______ ____
ROOT
ATOM      1  N   UNL     1       7.067   7.651  16.987  0.00  0.00    +0.000 NA
ATOM      2  C   UNL     1       7.754   7.366  18.061  0.00  0.00    +0.000 C 
ATOM      3  N   UNL     1       8.689   8.225  18.567  0.00  0.00    +0.000 N 
ATOM      4  H   UNL     1       9.197   7.886  19.375  0.00  0.00    +0.000 HD
ENDROOT
BRANCH   1   5
ATOM      5  N   UNL     1       6.160   6.752  16.567  0.00  0.00    +0.000 N 
ATOM      6  H   UNL     1       5.451   7.221  15.994  0.00  0.00    +0.000 HD
BRANCH   5   7
ATOM      7  C   UNL     1       6.694   5.629  15.798  0.00  0.00    +0.000 C 
BRANCH   7   8
ATOM      8  C   UNL     1       5.514   4.716  15.527  0.00  0.00    +0.000 C 
BRANCH   8   9
ATOM      9  C   UNL     1       5.301   3.701  16.646  0.00  0.00    +0.000 C 
BRANCH   9  13
ATOM     10  N   UNL     1       3.816   4.723  19.938  0.00  0.00    +0.000 NA
ATOM     11  C   UNL     1       4.319   3.376  19.584  0.00  0.00    +0.000 C 
ATOM     12  C   UNL     1       3.733   2.790  18.272  0.00  0.00    +0.000 C 
ATOM     13  N   UNL     1       3.895   3.661  17.087  0.00  0.00    +0.000 NA
ATOM     14  C   UNL     1       3.359   4.996  17.432  0.00  0.00    +0.000 C 
ATOM     15  C   UNL     1       3.941   5.589  18.744  0.00  0.00    +0.000 C 
BRANCH  10  16
ATOM     16  C   UNL     1       2.425   4.668  20.460  0.00  0.00    +0.000 C 
BRANCH  16  17
ATOM     17  C   UNL     1       2.211   3.618  21.577  0.00  0.00    +0.000 C 
BRANCH  17  18
ATOM     18  C   UNL     1       1.237   2.506  21.166  0.00  0.00    +0.000 C 
BRANCH  18  19
ATOM     19  N   UNL     1       0.394   2.991  20.075  0.00  0.00    +0.000 NA
ATOM     20  H   UNL     1       0.858   2.838  19.182  0.00  0.00    +0.000 HD
ATOM     21  H   UNL     1       0.270   4.001  20.161  0.00  0.00    +0.000 HD
ENDBRANCH  18  19
ENDBRANCH  17  18
ENDBRANCH  16  17
ENDBRANCH  10  16
ENDBRANCH   9  13
ENDBRANCH   8   9
ENDBRANCH   7   8
ENDBRANCH   5   7
ENDBRANCH   1   5
BRANCH   2  22
ATOM     22  S   UNL     1       7.579   5.884  18.999  0.00  0.00    +0.000 S 
ATOM     23  H   UNL     1       6.554   5.375  18.299  0.00  0.00    +0.000 HD
ENDBRANCH   2  22
BRANCH   3  24
ATOM     24  C   UNL     1       8.576   9.666  18.397  0.00  0.00    +0.000 C 
BRANCH  24  25
ATOM     25  C   UNL     1       9.870  10.375  18.806  0.00  0.00    +0.000 C 
BRANCH  25  26
ATOM     26  C   UNL     1       9.623  11.502  19.780  0.00  0.00    +0.000 A 
ATOM     27  C   UNL     1       9.761  12.837  19.360  0.00  0.00    +0.000 A 
ATOM     28  C   UNL     1       9.550  13.882  20.256  0.00  0.00    +0.000 A 
ATOM     29  C   UNL     1       9.197  13.596  21.579  0.00  0.00    +0.000 A 
ATOM     30  C   UNL     1       9.063  12.279  22.016  0.00  0.00    +0.000 A 
ATOM     31  C   UNL     1       9.284  11.234  21.116  0.00  0.00    +0.000 A 
BRANCH  29  32
ATOM     32  S   UNL     1       8.959  14.935  22.703  0.00  0.00    +0.000 S 
ATOM     33  O   UNL     1       8.005  15.875  22.132  0.00  0.00    +0.000 OA
ATOM     34  O   UNL     1       8.828  14.421  24.040  0.00  0.00    +0.000 OA
BRANCH  32  35
ATOM     35  N   UNL     1      10.453  15.689  22.621  0.00  0.00    +0.000 NA
ATOM     36  H   UNL     1      10.338  16.695  22.500  0.00  0.00    +0.000 HD
ATOM     37  H   UNL     1      11.031  15.413  23.413  0.00  0.00    +0.000 HD
ENDBRANCH  32  35
ENDBRANCH  29  32
ENDBRANCH  25  26
ENDBRANCH  24  25
ENDBRANCH   3  24
TORSDOF 15
ENDMDL
MODEL 7
REMARK VINA RESULT:      -6.4      4.318     10.203
REMARK  Name = 
REMARK  15 active torsions:
REMARK  status: ('A' for Active; 'I' for Inactive)
REMARK    1  A    between atoms: N_1  and  C_2
REMARK    2  A    between atoms: C_2  and  C_3
REMARK    3  A    between atoms: C_3  and  C_4
REMARK    4  A    between atoms: C_4  and  N_5
REMARK    5  A    between atoms: N_8  and  C_9
REMARK    6  A    between atoms: C_9  and  C_10
REMARK    7  A    between atoms: C_10  and  C_11
REMARK    8  A    between atoms: C_11  and  N_12
REMARK    9  A    between atoms: N_12  and  N_13
REMARK   10  A    between atoms: C_14  and  S_15
REMARK   11  A    between atoms: N_16  and  C_17
REMARK   12  A    between atoms: C_17  and  C_18
REMARK   13  A    between atoms: C_18  and  C_19
REMARK   14  A    between atoms: C_22  and  S_23
REMARK   15  A    between atoms: S_23  and  N_24
REMARK                            x       y       z     vdW  Elec       q    Type
REMARK                         _______ _______ _______ _____ _____    ______ ____
ROOT
ATOM      1  N   UNL     1       6.821   7.024  17.839  0.00  0.00    +0.000 NA
ATOM      2  C   UNL     1       6.441   5.880  17.335  0.00  0.00    +0.000 C 
ATOM      3  N   UNL     1       5.525   5.085  17.964  0.00  0.00    +0.000 N 
ATOM      4  H   UNL     1       5.337   4.198  17.511  0.00  0.00    +0.000 HD
ENDROOT
BRANCH   1   5
ATOM      5  N   UNL     1       7.718   7.747  17.146  0.00  0.00    +0.000 N 
ATOM      6  H   UNL     1       7.464   7.750  16.153  0.00  0.00    +0.000 HD
BRANCH   5   7
ATOM      7  C   UNL     1       7.879   9.134  17.578  0.00  0.00    +0.000 C 
BRANCH   7   8
ATOM      8  C   UNL     1       8.820   9.091  18.767  0.00  0.00    +0.000 C 
BRANCH   8   9
ATOM      9  C   UNL     1       9.334  10.476  19.146  0.00  0.00    +0.000 C 
BRANCH   9  13
ATOM     10  N   UNL     1      10.294  14.099  18.941  0.00  0.00    +0.000 NA
ATOM     11  C   UNL     1       8.917  13.556  18.938  0.00  0.00    +0.000 C 
ATOM     12  C   UNL     1       8.660  12.447  17.884  0.00  0.00    +0.000 C 
ATOM     13  N   UNL     1       9.598  11.305  17.956  0.00  0.00    +0.000 NA
ATOM     14  C   UNL     1      10.974  11.849  17.923  0.00  0.00    +0.000 C 
ATOM     15  C   UNL     1      11.238  12.959  18.976  0.00  0.00    +0.000 C 
BRANCH  10  16
ATOM     16  C   UNL     1      10.530  15.001  17.782  0.00  0.00    +0.000 C 
BRANCH  16  17
ATOM     17  C   UNL     1       9.430  16.071  17.582  0.00  0.00    +0.000 C 
BRANCH  17  18
ATOM     18  C   UNL     1       9.577  17.258  18.542  0.00  0.00    +0.000 C 
BRANCH  18  19
ATOM     19  N   UNL     1       8.469  18.187  18.324  0.00  0.00    +0.000 NA
ATOM     20  H   UNL     1       7.609  17.668  18.154  0.00  0.00    +0.000 HD
ATOM     21  H   UNL     1       8.642  18.734  17.479  0.00  0.00    +0.000 HD
ENDBRANCH  18  19
ENDBRANCH  17  18
ENDBRANCH  16  17
ENDBRANCH  10  16
ENDBRANCH   9  13
ENDBRANCH   8   9
ENDBRANCH   7   8
ENDBRANCH   5   7
ENDBRANCH   1   5
BRANCH   2  22
ATOM     22  S   UNL     1       7.022   5.214  15.809  0.00  0.00    +0.000 S 
ATOM     23  H   UNL     1       5.845   5.244  15.166  0.00  0.00    +0.000 HD
ENDBRANCH   2  22
BRANCH   3  24
ATOM     24  C   UNL     1       4.486   5.641  18.817  0.00  0.00    +0.000 C 
BRANCH  24  25
ATOM     25  C   UNL     1       3.249   6.030  18.002  0.00  0.00    +0.000 C 
BRANCH  25  26
ATOM     26  C   UNL     1       2.483   7.169  18.631  0.00  0.00    +0.000 A 
ATOM     27  C   UNL     1       2.090   8.268  17.847  0.00  0.00    +0.000 A 
ATOM     28  C   UNL     1       1.395   9.330  18.422  0.00  0.00    +0.000 A 
ATOM     29  C   UNL     1       1.089   9.296  19.786  0.00  0.00    +0.000 A 
ATOM     30  C   UNL     1       1.477   8.218  20.581  0.00  0.00    +0.000 A 
ATOM     31  C   UNL     1       2.181   7.160  20.002  0.00  0.00    +0.000 A 
BRANCH  29  32
ATOM     32  S   UNL     1       0.231  10.663  20.498  0.00  0.00    +0.000 S 
ATOM     33  O   UNL     1      -0.377  10.245  21.753  0.00  0.00    +0.000 OA
ATOM     34  O   UNL     1       1.042  11.846  20.392  0.00  0.00    +0.000 OA
BRANCH  32  35
ATOM     35  N   UNL     1      -1.033  10.846  19.413  0.00  0.00    +0.000 NA
ATOM     36  H   UNL     1      -0.674  11.047  18.480  0.00  0.00    +0.000 HD
ATOM     37  H   UNL     1      -1.665  10.049  19.471  0.00  0.00    +0.000 HD
ENDBRANCH  32  35
ENDBRANCH  29  32
ENDBRANCH  25  26
ENDBRANCH  24  25
ENDBRANCH   3  24
TORSDOF 15
ENDMDL
MODEL 8
REMARK VINA RESULT:      -6.3      5.042      6.499
REMARK  Name = 
REMARK  15 active torsions:
REMARK  status: ('A' for Active; 'I' for Inactive)
REMARK    1  A    between atoms: N_1  and  C_2
REMARK    2  A    between atoms: C_2  and  C_3
REMARK    3  A    between atoms: C_3  and  C_4
REMARK    4  A    between atoms: C_4  and  N_5
REMARK    5  A    between atoms: N_8  and  C_9
REMARK    6  A    between atoms: C_9  and  C_10
REMARK    7  A    between atoms: C_10  and  C_11
REMARK    8  A    between atoms: C_11  and  N_12
REMARK    9  A    between atoms: N_12  and  N_13
REMARK   10  A    between atoms: C_14  and  S_15
REMARK   11  A    between atoms: N_16  and  C_17
REMARK   12  A    between atoms: C_17  and  C_18
REMARK   13  A    between atoms: C_18  and  C_19
REMARK   14  A    between atoms: C_22  and  S_23
REMARK   15  A    between atoms: S_23  and  N_24
REMARK                            x       y       z     vdW  Elec       q    Type
REMARK                         _______ _______ _______ _____ _____    ______ ____
ROOT
ATOM      1  N   UNL     1       9.000  11.435  19.277  0.00  0.00    +0.000 NA
ATOM      2  C   UNL     1       9.749  12.497  19.144  0.00  0.00    +0.000 C 
ATOM      3  N   UNL     1       9.869  13.423  20.142  0.00  0.00    +0.000 N 
ATOM      4  H   UNL     1      10.437  14.231  19.918  0.00  0.00    +0.000 HD
ENDROOT
BRANCH   1   5
ATOM      5  N   UNL     1       8.950  10.571  18.248  0.00  0.00    +0.000 N 
ATOM      6  H   UNL     1       9.781  10.688  17.660  0.00  0.00    +0.000 HD
BRANCH   5   7
ATOM      7  C   UNL     1       8.848   9.160  18.614  0.00  0.00    +0.000 C 
BRANCH   7   8
ATOM      8  C   UNL     1       7.813   8.563  17.679  0.00  0.00    +0.000 C 
BRANCH   8   9
ATOM      9  C   UNL     1       7.641   7.062  17.892  0.00  0.00    +0.000 C 
BRANCH   9  13
ATOM     10  N   UNL     1       4.734   4.688  17.935  0.00  0.00    +0.000 NA
ATOM     11  C   UNL     1       6.167   4.318  17.968  0.00  0.00    +0.000 C 
ATOM     12  C   UNL     1       7.025   4.952  16.842  0.00  0.00    +0.000 C 
ATOM     13  N   UNL     1       6.938   6.428  16.762  0.00  0.00    +0.000 NA
ATOM     14  C   UNL     1       5.505   6.791  16.694  0.00  0.00    +0.000 C 
ATOM     15  C   UNL     1       4.640   6.161  17.819  0.00  0.00    +0.000 C 
BRANCH  10  16
ATOM     16  C   UNL     1       4.011   3.981  16.845  0.00  0.00    +0.000 C 
BRANCH  16  17
ATOM     17  C   UNL     1       2.656   3.372  17.277  0.00  0.00    +0.000 C 
BRANCH  17  18
ATOM     18  C   UNL     1       2.781   2.461  18.505  0.00  0.00    +0.000 C 
BRANCH  18  19
ATOM     19  N   UNL     1       1.603   1.597  18.578  0.00  0.00    +0.000 NA
ATOM     20  H   UNL     1       1.818   0.761  19.118  0.00  0.00    +0.000 HD
ATOM     21  H   UNL     1       1.355   1.275  17.641  0.00  0.00    +0.000 HD
ENDBRANCH  18  19
ENDBRANCH  17  18
ENDBRANCH  16  17
ENDBRANCH  10  16
ENDBRANCH   9  13
ENDBRANCH   8   9
ENDBRANCH   7   8
ENDBRANCH   5   7
ENDBRANCH   1   5
BRANCH   2  22
ATOM     22  S   UNL     1      10.700  12.880  17.709  0.00  0.00    +0.000 S 
ATOM     23  H   UNL     1      11.691  12.008  17.940  0.00  0.00    +0.000 HD
ENDBRANCH   2  22
BRANCH   3  24
ATOM     24  C   UNL     1       9.739  13.058  21.544  0.00  0.00    +0.000 C 
BRANCH  24  25
ATOM     25  C   UNL     1       8.769  13.992  22.273  0.00  0.00    +0.000 C 
BRANCH  25  26
ATOM     26  C   UNL     1       7.909  13.259  23.274  0.00  0.00    +0.000 A 
ATOM     27  C   UNL     1       6.507  13.356  23.199  0.00  0.00    +0.000 A 
ATOM     28  C   UNL     1       5.706  12.695  24.128  0.00  0.00    +0.000 A 
ATOM     29  C   UNL     1       6.305  11.932  25.136  0.00  0.00    +0.000 A 
ATOM     30  C   UNL     1       7.692  11.831  25.230  0.00  0.00    +0.000 A 
ATOM     31  C   UNL     1       8.491  12.502  24.302  0.00  0.00    +0.000 A 
BRANCH  29  32
ATOM     32  S   UNL     1       5.271  11.124  26.316  0.00  0.00    +0.000 S 
ATOM     33  O   UNL     1       6.105  10.399  27.265  0.00  0.00    +0.000 OA
ATOM     34  O   UNL     1       4.230  12.022  26.735  0.00  0.00    +0.000 OA
BRANCH  32  35
ATOM     35  N   UNL     1       4.545   9.958  25.357  0.00  0.00    +0.000 NA
ATOM     36  H   UNL     1       4.158   9.212  25.935  0.00  0.00    +0.000 HD
ATOM     37  H   UNL     1       3.886  10.391  24.713  0.00  0.00    +0.000 HD
ENDBRANCH  32  35
ENDBRANCH  29  32
ENDBRANCH  25  26
ENDBRANCH  24  25
ENDBRANCH   3  24
TORSDOF 15
ENDMDL
MODEL 9
REMARK VINA RESULT:      -6.2      5.272      7.101
REMARK  Name = 
REMARK  15 active torsions:
REMARK  status: ('A' for Active; 'I' for Inactive)
REMARK    1  A    between atoms: N_1  and  C_2
REMARK    2  A    between atoms: C_2  and  C_3
REMARK    3  A    between atoms: C_3  and  C_4
REMARK    4  A    between atoms: C_4  and  N_5
REMARK    5  A    between atoms: N_8  and  C_9
REMARK    6  A    between atoms: C_9  and  C_10
REMARK    7  A    between atoms: C_10  and  C_11
REMARK    8  A    between atoms: C_11  and  N_12
REMARK    9  A    between atoms: N_12  and  N_13
REMARK   10  A    between atoms: C_14  and  S_15
REMARK   11  A    between atoms: N_16  and  C_17
REMARK   12  A    between atoms: C_17  and  C_18
REMARK   13  A    between atoms: C_18  and  C_19
REMARK   14  A    between atoms: C_22  and  S_23
REMARK   15  A    between atoms: S_23  and  N_24
REMARK                            x       y       z     vdW  Elec       q    Type
REMARK                         _______ _______ _______ _____ _____    ______ ____
ROOT
ATOM      1  N   UNL     1       1.540   8.167  20.718  0.00  0.00    +0.000 NA
ATOM      2  C   UNL     1       1.384   9.000  19.724  0.00  0.00    +0.000 C 
ATOM      3  N   UNL     1       0.748  10.199  19.882  0.00  0.00    +0.000 N 
ATOM      4  H   UNL     1       0.639  10.747  19.037  0.00  0.00    +0.000 HD
ENDROOT
BRANCH   1   5
ATOM      5  N   UNL     1       2.189   7.015  20.474  0.00  0.00    +0.000 N 
ATOM      6  H   UNL     1       3.011   6.947  21.082  0.00  0.00    +0.000 HD
BRANCH   5   7
ATOM      7  C   UNL     1       1.398   5.797  20.645  0.00  0.00    +0.000 C 
BRANCH   7   8
ATOM      8  C   UNL     1       2.382   4.719  21.055  0.00  0.00    +0.000 C 
BRANCH   8   9
ATOM      9  C   UNL     1       2.295   3.487  20.158  0.00  0.00    +0.000 C 
BRANCH   9  13
ATOM     10  N   UNL     1       3.883   4.187  16.830  0.00  0.00    +0.000 NA
ATOM     11  C   UNL     1       3.046   3.015  17.172  0.00  0.00    +0.000 C 
ATOM     12  C   UNL     1       3.497   2.245  18.441  0.00  0.00    +0.000 C 
ATOM     13  N   UNL     1       3.621   3.085  19.654  0.00  0.00    +0.000 NA
ATOM     14  C   UNL     1       4.487   4.236  19.318  0.00  0.00    +0.000 C 
ATOM     15  C   UNL     1       4.041   5.011  18.049  0.00  0.00    +0.000 C 
BRANCH  10  16
ATOM     16  C   UNL     1       5.187   3.777  16.244  0.00  0.00    +0.000 C 
BRANCH  16  17
ATOM     17  C   UNL     1       5.565   4.536  14.950  0.00  0.00    +0.000 C 
BRANCH  17  18
ATOM     18  C   UNL     1       7.058   4.881  14.880  0.00  0.00    +0.000 C 
BRANCH  18  19
ATOM     19  N   UNL     1       7.377   5.835  15.941  0.00  0.00    +0.000 NA
ATOM     20  H   UNL     1       7.450   5.351  16.833  0.00  0.00    +0.000 HD
ATOM     21  H   UNL     1       6.611   6.504  16.041  0.00  0.00    +0.000 HD
ENDBRANCH  18  19
ENDBRANCH  17  18
ENDBRANCH  16  17
ENDBRANCH  10  16
ENDBRANCH   9  13
ENDBRANCH   8   9
ENDBRANCH   7   8
ENDBRANCH   5   7
ENDBRANCH   1   5
BRANCH   2  22
ATOM     22  S   UNL     1       1.961   8.719  18.081  0.00  0.00    +0.000 S 
ATOM     23  H   UNL     1       1.852   7.383  18.102  0.00  0.00    +0.000 HD
ENDBRANCH   2  22
BRANCH   3  24
ATOM     24  C   UNL     1       0.761  10.911  21.150  0.00  0.00    +0.000 C 
BRANCH  24  25
ATOM     25  C   UNL     1      -0.006  12.232  21.053  0.00  0.00    +0.000 C 
BRANCH  25  26
ATOM     26  C   UNL     1       0.782  13.302  20.336  0.00  0.00    +0.000 A 
ATOM     27  C   UNL     1       0.126  14.199  19.474  0.00  0.00    +0.000 A 
ATOM     28  C   UNL     1       0.848  15.179  18.797  0.00  0.00    +0.000 A 
ATOM     29  C   UNL     1       2.231  15.268  18.982  0.00  0.00    +0.000 A 
ATOM     30  C   UNL     1       2.900  14.383  19.827  0.00  0.00    +0.000 A 
ATOM     31  C   UNL     1       2.173  13.396  20.496  0.00  0.00    +0.000 A 
BRANCH  29  32
ATOM     32  S   UNL     1       3.129  16.502  18.095  0.00  0.00    +0.000 S 
ATOM     33  O   UNL     1       4.073  17.147  18.997  0.00  0.00    +0.000 OA
ATOM     34  O   UNL     1       3.520  15.981  16.813  0.00  0.00    +0.000 OA
BRANCH  32  35
ATOM     35  N   UNL     1       1.922  17.629  17.810  0.00  0.00    +0.000 NA
ATOM     36  H   UNL     1       1.659  18.097  18.677  0.00  0.00    +0.000 HD
ATOM     37  H   UNL     1       2.193  18.250  17.049  0.00  0.00    +0.000 HD
ENDBRANCH  32  35
ENDBRANCH  29  32
ENDBRANCH  25  26
ENDBRANCH  24  25
ENDBRANCH   3  24
TORSDOF 15
ENDMDL
