MODEL 1
REMARK VINA RESULT:      -6.6      0.000      0.000
REMARK  Name = 
REMARK  2 active torsions:
REMARK  status: ('A' for Active; 'I' for Inactive)
REMARK    1  A    between atoms: C_2  and  C_3
REMARK    2  A    between atoms: C_6  and  N_7
REMARK                            x       y       z     vdW  Elec       q    Type
REMARK                         _______ _______ _______ _____ _____    ______ ____
ROOT
ATOM      1  N   UNL     1       5.742   4.855  17.809  0.00  0.00    +0.000 N 
ATOM      2  C   UNL     1       5.810   4.492  16.473  0.00  0.00    +0.000 C 
ATOM      3  O   UNL     1       5.053   3.686  15.934  0.00  0.00    +0.000 OA
ATOM      4  N   UNL     1       6.813   5.112  15.759  0.00  0.00    +0.000 N 
ATOM      5  C   UNL     1       7.045   4.898  14.425  0.00  0.00    +0.000 C 
ATOM      6  N   UNL     1       6.351   4.088  13.704  0.00  0.00    +0.000 NA
ATOM      7  N   UNL     1       8.042   5.556  13.816  0.00  0.00    +0.000 N 
ATOM      8  H   UNL     1       6.413   5.527  18.151  0.00  0.00    +0.000 HD
ATOM      9  H   UNL     1       7.414   5.766  16.224  0.00  0.00    +0.000 HD
ATOM     10  H   UNL     1       5.622   3.658  14.301  0.00  0.00    +0.000 HD
ATOM     11  H   UNL     1       8.683   6.201  14.241  0.00  0.00    +0.000 HD
ATOM     12  H   UNL     1       8.158   5.331  12.833  0.00  0.00    +0.000 HD
ENDROOT
BRANCH   1  16
ATOM     13  C   UNL     1       2.869   3.428  20.613  0.00  0.00    +0.000 A 
ATOM     14  C   UNL     1       3.867   2.577  20.140  0.00  0.00    +0.000 A 
ATOM     15  C   UNL     1       4.812   3.039  19.222  0.00  0.00    +0.000 A 
ATOM     16  C   UNL     1       4.795   4.354  18.745  0.00  0.00    +0.000 A 
ATOM     17  C   UNL     1       3.791   5.209  19.222  0.00  0.00    +0.000 A 
ATOM     18  C   UNL     1       2.836   4.747  20.149  0.00  0.00    +0.000 A 
ATOM     19 CL   UNL     1       1.629   5.861  20.691  0.00  0.00    +0.000 Cl
BRANCH  13  21
ATOM     20  N   UNL     1       1.153   2.530  22.340  0.00  0.00    +0.000 NA
ATOM     21  C   UNL     1       1.924   2.904  21.556  0.00  0.00    +0.000 C 
ENDBRANCH  13  21
ENDBRANCH   1  16
TORSDOF 2
ENDMDL
MODEL 2
REMARK VINA RESULT:      -6.5      2.417      6.763
REMARK  Name = 
REMARK  2 active torsions:
REMARK  status: ('A' for Active; 'I' for Inactive)
REMARK    1  A    between atoms: C_2  and  C_3
REMARK    2  A    between atoms: C_6  and  N_7
REMARK                            x       y       z     vdW  Elec       q    Type
REMARK                         _______ _______ _______ _____ _____    ______ ____
ROOT
ATOM      1  N   UNL     1       4.505   3.564  19.311  0.00  0.00    +0.000 N 
ATOM      2  C   UNL     1       3.128   3.518  19.462  0.00  0.00    +0.000 C 
ATOM      3  O   UNL     1       2.323   3.830  18.585  0.00  0.00    +0.000 OA
ATOM      4  N   UNL     1       2.698   3.084  20.697  0.00  0.00    +0.000 N 
ATOM      5  C   UNL     1       1.379   2.959  21.047  0.00  0.00    +0.000 C 
ATOM      6  N   UNL     1       0.404   3.242  20.255  0.00  0.00    +0.000 NA
ATOM      7  N   UNL     1       1.061   2.519  22.274  0.00  0.00    +0.000 N 
ATOM      8  H   UNL     1       5.075   3.286  20.095  0.00  0.00    +0.000 HD
ATOM      9  H   UNL     1       3.377   2.835  21.393  0.00  0.00    +0.000 HD
ATOM     10  H   UNL     1       0.796   3.563  19.351  0.00  0.00    +0.000 HD
ATOM     11  H   UNL     1       1.700   2.279  23.009  0.00  0.00    +0.000 HD
ATOM     12  H   UNL     1       0.064   2.469  22.459  0.00  0.00    +0.000 HD
ENDROOT
BRANCH   1  16
ATOM     13  C   UNL     1       6.576   4.861  15.821  0.00  0.00    +0.000 A 
ATOM     14  C   UNL     1       5.776   3.720  15.776  0.00  0.00    +0.000 A 
ATOM     15  C   UNL     1       5.095   3.290  16.916  0.00  0.00    +0.000 A 
ATOM     16  C   UNL     1       5.185   3.976  18.132  0.00  0.00    +0.000 A 
ATOM     17  C   UNL     1       5.989   5.124  18.175  0.00  0.00    +0.000 A 
ATOM     18  C   UNL     1       6.679   5.561  17.027  0.00  0.00    +0.000 A 
ATOM     19 CL   UNL     1       7.650   6.986  17.159  0.00  0.00    +0.000 Cl
BRANCH  13  21
ATOM     20  N   UNL     1       7.844   5.548  13.664  0.00  0.00    +0.000 NA
ATOM     21  C   UNL     1       7.254   5.259  14.622  0.00  0.00    +0.000 C 
ENDBRANCH  13  21
ENDBRANCH   1  16
TORSDOF 2
ENDMDL
MODEL 3
REMARK VINA RESULT:      -6.5      4.225      5.696
REMARK  Name = 
REMARK  2 active torsions:
REMARK  status: ('A' for Active; 'I' for Inactive)
REMARK    1  A    between atoms: C_2  and  C_3
REMARK    2  A    between atoms: C_6  and  N_7
REMARK                            x       y       z     vdW  Elec       q    Type
REMARK                         _______ _______ _______ _____ _____    ______ ____
ROOT
ATOM      1  N   UNL     1       3.357   5.586  18.944  0.00  0.00    +0.000 N 
ATOM      2  C   UNL     1       2.799   4.406  18.480  0.00  0.00    +0.000 C 
ATOM      3  O   UNL     1       1.670   4.313  17.999  0.00  0.00    +0.000 OA
ATOM      4  N   UNL     1       3.614   3.300  18.594  0.00  0.00    +0.000 N 
ATOM      5  C   UNL     1       3.255   2.041  18.187  0.00  0.00    +0.000 C 
ATOM      6  N   UNL     1       2.113   1.762  17.663  0.00  0.00    +0.000 NA
ATOM      7  N   UNL     1       4.124   1.029  18.333  0.00  0.00    +0.000 N 
ATOM      8  H   UNL     1       4.292   5.551  19.320  0.00  0.00    +0.000 HD
ATOM      9  H   UNL     1       4.530   3.405  18.989  0.00  0.00    +0.000 HD
ATOM     10  H   UNL     1       1.553   2.632  17.611  0.00  0.00    +0.000 HD
ATOM     11  H   UNL     1       5.039   1.079  18.741  0.00  0.00    +0.000 HD
ATOM     12  H   UNL     1       3.777   0.128  18.023  0.00  0.00    +0.000 HD
ENDROOT
BRANCH   1  16
ATOM     13  C   UNL     1       1.404   9.373  18.986  0.00  0.00    +0.000 A 
ATOM     14  C   UNL     1       2.096   8.956  17.850  0.00  0.00    +0.000 A 
ATOM     15  C   UNL     1       2.738   7.716  17.829  0.00  0.00    +0.000 A 
ATOM     16  C   UNL     1       2.713   6.855  18.932  0.00  0.00    +0.000 A 
ATOM     17  C   UNL     1       2.017   7.276  20.073  0.00  0.00    +0.000 A 
ATOM     18  C   UNL     1       1.368   8.527  20.098  0.00  0.00    +0.000 A 
ATOM     19 CL   UNL     1       0.530   8.975  21.543  0.00  0.00    +0.000 Cl
BRANCH  13  21
ATOM     20  N   UNL     1       0.210  11.675  18.890  0.00  0.00    +0.000 NA
ATOM     21  C   UNL     1       0.763  10.655  18.954  0.00  0.00    +0.000 C 
ENDBRANCH  13  21
ENDBRANCH   1  16
TORSDOF 2
ENDMDL
MODEL 4
REMARK VINA RESULT:      -6.4     10.002     10.685
REMARK  Name = 
REMARK  2 active torsions:
REMARK  status: ('A' for Active; 'I' for Inactive)
REMARK    1  A    between atoms: C_2  and  C_3
REMARK    2  A    between atoms: C_6  and  N_7
REMARK                            x       y       z     vdW  Elec       q    Type
REMARK                         _______ _______ _______ _____ _____    ______ ____
ROOT
ATOM      1  N   UNL     1      -4.193  10.344  15.430  0.00  0.00    +0.000 N 
ATOM      2  C   UNL     1      -3.777  10.116  14.127  0.00  0.00    +0.000 C 
ATOM      3  O   UNL     1      -2.600  10.037  13.778  0.00  0.00    +0.000 OA
ATOM      4  N   UNL     1      -4.799   9.976  13.214  0.00  0.00    +0.000 N 
ATOM      5  C   UNL     1      -4.603   9.737  11.878  0.00  0.00    +0.000 C 
ATOM      6  N   UNL     1      -3.438   9.627  11.340  0.00  0.00    +0.000 NA
ATOM      7  N   UNL     1      -5.665   9.608  11.068  0.00  0.00    +0.000 N 
ATOM      8  H   UNL     1      -5.185  10.390  15.608  0.00  0.00    +0.000 HD
ATOM      9  H   UNL     1      -5.750  10.043  13.526  0.00  0.00    +0.000 HD
ATOM     10  H   UNL     1      -2.722   9.745  12.079  0.00  0.00    +0.000 HD
ATOM     11  H   UNL     1      -6.630   9.689  11.329  0.00  0.00    +0.000 HD
ATOM     12  H   UNL     1      -5.435   9.448  10.093  0.00  0.00    +0.000 HD
ENDROOT
BRANCH   1  16
ATOM     13  C   UNL     1      -1.656  10.921  18.804  0.00  0.00    +0.000 A 
ATOM     14  C   UNL     1      -1.272  10.057  17.780  0.00  0.00    +0.000 A 
ATOM     15  C   UNL     1      -2.098   9.864  16.672  0.00  0.00    +0.000 A 
ATOM     16  C   UNL     1      -3.328  10.519  16.545  0.00  0.00    +0.000 A 
ATOM     17  C   UNL     1      -3.713  11.388  17.576  0.00  0.00    +0.000 A 
ATOM     18  C   UNL     1      -2.882  11.586  18.697  0.00  0.00    +0.000 A 
ATOM     19 CL   UNL     1      -3.426  12.674  19.926  0.00  0.00    +0.000 Cl
BRANCH  13  21
ATOM     20  N   UNL     1      -0.015  11.235  20.790  0.00  0.00    +0.000 NA
ATOM     21  C   UNL     1      -0.771  11.084  19.920  0.00  0.00    +0.000 C 
ENDBRANCH  13  21
ENDBRANCH   1  16
TORSDOF 2
ENDMDL
MODEL 5
REMARK VINA RESULT:      -6.4      1.355      1.480
REMARK  Name = 
REMARK  2 active torsions:
REMARK  status: ('A' for Active; 'I' for Inactive)
REMARK    1  A    between atoms: C_2  and  C_3
REMARK    2  A    between atoms: C_6  and  N_7
REMARK                            x       y       z     vdW  Elec       q    Type
REMARK                         _______ _______ _______ _____ _____    ______ ____
ROOT
ATOM      1  N   UNL     1       4.000   3.733  16.362  0.00  0.00    +0.000 N 
ATOM      2  C   UNL     1       5.258   4.287  16.186  0.00  0.00    +0.000 C 
ATOM      3  O   UNL     1       6.008   4.610  17.106  0.00  0.00    +0.000 OA
ATOM      4  N   UNL     1       5.633   4.459  14.871  0.00  0.00    +0.000 N 
ATOM      5  C   UNL     1       6.839   4.982  14.483  0.00  0.00    +0.000 C 
ATOM      6  N   UNL     1       7.744   5.374  15.311  0.00  0.00    +0.000 NA
ATOM      7  N   UNL     1       7.114   5.103  13.175  0.00  0.00    +0.000 N 
ATOM      8  H   UNL     1       3.465   3.504  15.537  0.00  0.00    +0.000 HD
ATOM      9  H   UNL     1       5.002   4.185  14.141  0.00  0.00    +0.000 HD
ATOM     10  H   UNL     1       7.396   5.219  16.275  0.00  0.00    +0.000 HD
ATOM     11  H   UNL     1       6.509   4.865  12.411  0.00  0.00    +0.000 HD
ATOM     12  H   UNL     1       8.020   5.512  12.971  0.00  0.00    +0.000 HD
ENDROOT
BRANCH   1  16
ATOM     13  C   UNL     1       2.175   2.993  20.140  0.00  0.00    +0.000 A 
ATOM     14  C   UNL     1       2.648   1.930  19.372  0.00  0.00    +0.000 A 
ATOM     15  C   UNL     1       3.247   2.166  18.133  0.00  0.00    +0.000 A 
ATOM     16  C   UNL     1       3.395   3.459  17.620  0.00  0.00    +0.000 A 
ATOM     17  C   UNL     1       2.919   4.526  18.393  0.00  0.00    +0.000 A 
ATOM     18  C   UNL     1       2.313   4.293  19.644  0.00  0.00    +0.000 A 
ATOM     19 CL   UNL     1       1.752   5.662  20.540  0.00  0.00    +0.000 Cl
BRANCH  13  21
ATOM     20  N   UNL     1       1.109   2.411  22.433  0.00  0.00    +0.000 NA
ATOM     21  C   UNL     1       1.568   2.696  21.405  0.00  0.00    +0.000 C 
ENDBRANCH  13  21
ENDBRANCH   1  16
TORSDOF 2
ENDMDL
MODEL 6
REMARK VINA RESULT:      -6.3      2.788      6.993
REMARK  Name = 
REMARK  2 active torsions:
REMARK  status: ('A' for Active; 'I' for Inactive)
REMARK    1  A    between atoms: C_2  and  C_3
REMARK    2  A    between atoms: C_6  and  N_7
REMARK                            x       y       z     vdW  Elec       q    Type
REMARK                         _______ _______ _______ _____ _____    ______ ____
ROOT
ATOM      1  N   UNL     1       4.736   3.363  18.298  0.00  0.00    +0.000 N 
ATOM      2  C   UNL     1       3.956   4.120  19.158  0.00  0.00    +0.000 C 
ATOM      3  O   UNL     1       3.824   5.341  19.082  0.00  0.00    +0.000 OA
ATOM      4  N   UNL     1       3.314   3.397  20.139  0.00  0.00    +0.000 N 
ATOM      5  C   UNL     1       2.490   3.953  21.084  0.00  0.00    +0.000 C 
ATOM      6  N   UNL     1       2.240   5.214  21.154  0.00  0.00    +0.000 NA
ATOM      7  N   UNL     1       1.903   3.162  21.994  0.00  0.00    +0.000 N 
ATOM      8  H   UNL     1       4.775   2.367  18.449  0.00  0.00    +0.000 HD
ATOM      9  H   UNL     1       3.438   2.402  20.176  0.00  0.00    +0.000 HD
ATOM     10  H   UNL     1       2.754   5.694  20.394  0.00  0.00    +0.000 HD
ATOM     11  H   UNL     1       2.013   2.169  22.085  0.00  0.00    +0.000 HD
ATOM     12  H   UNL     1       1.322   3.651  22.666  0.00  0.00    +0.000 HD
ENDROOT
BRANCH   1  16
ATOM     13  C   UNL     1       6.944   4.884  14.986  0.00  0.00    +0.000 A 
ATOM     14  C   UNL     1       7.389   5.113  16.288  0.00  0.00    +0.000 A 
ATOM     15  C   UNL     1       6.670   4.617  17.377  0.00  0.00    +0.000 A 
ATOM     16  C   UNL     1       5.492   3.881  17.210  0.00  0.00    +0.000 A 
ATOM     17  C   UNL     1       5.045   3.653  15.901  0.00  0.00    +0.000 A 
ATOM     18  C   UNL     1       5.768   4.152  14.798  0.00  0.00    +0.000 A 
ATOM     19 CL   UNL     1       5.154   3.828  13.214  0.00  0.00    +0.000 Cl
BRANCH  13  21
ATOM     20  N   UNL     1       8.385   5.808  13.036  0.00  0.00    +0.000 NA
ATOM     21  C   UNL     1       7.719   5.416  13.904  0.00  0.00    +0.000 C 
ENDBRANCH  13  21
ENDBRANCH   1  16
TORSDOF 2
ENDMDL
MODEL 7
REMARK VINA RESULT:      -6.3      1.618      2.036
REMARK  Name = 
REMARK  2 active torsions:
REMARK  status: ('A' for Active; 'I' for Inactive)
REMARK    1  A    between atoms: C_2  and  C_3
REMARK    2  A    between atoms: C_6  and  N_7
REMARK                            x       y       z     vdW  Elec       q    Type
REMARK                         _______ _______ _______ _____ _____    ______ ____
ROOT
ATOM      1  N   UNL     1       5.898   5.430  16.818  0.00  0.00    +0.000 N 
ATOM      2  C   UNL     1       6.137   4.947  15.541  0.00  0.00    +0.000 C 
ATOM      3  O   UNL     1       5.480   4.058  15.001  0.00  0.00    +0.000 OA
ATOM      4  N   UNL     1       7.192   5.545  14.888  0.00  0.00    +0.000 N 
ATOM      5  C   UNL     1       7.587   5.220  13.616  0.00  0.00    +0.000 C 
ATOM      6  N   UNL     1       7.015   4.312  12.904  0.00  0.00    +0.000 NA
ATOM      7  N   UNL     1       8.624   5.867  13.062  0.00  0.00    +0.000 N 
ATOM      8  H   UNL     1       6.498   6.162  17.166  0.00  0.00    +0.000 HD
ATOM      9  H   UNL     1       7.709   6.269  15.351  0.00  0.00    +0.000 HD
ATOM     10  H   UNL     1       6.238   3.904  13.455  0.00  0.00    +0.000 HD
ATOM     11  H   UNL     1       9.185   6.579  13.492  0.00  0.00    +0.000 HD
ATOM     12  H   UNL     1       8.863   5.557  12.126  0.00  0.00    +0.000 HD
ENDROOT
BRANCH   1  16
ATOM     13  C   UNL     1       2.864   4.002  19.447  0.00  0.00    +0.000 A 
ATOM     14  C   UNL     1       2.606   5.081  18.602  0.00  0.00    +0.000 A 
ATOM     15  C   UNL     1       3.596   5.553  17.738  0.00  0.00    +0.000 A 
ATOM     16  C   UNL     1       4.868   4.972  17.686  0.00  0.00    +0.000 A 
ATOM     17  C   UNL     1       5.125   3.887  18.536  0.00  0.00    +0.000 A 
ATOM     18  C   UNL     1       4.129   3.407  19.409  0.00  0.00    +0.000 A 
ATOM     19 CL   UNL     1       4.522   2.065  20.426  0.00  0.00    +0.000 Cl
BRANCH  13  21
ATOM     20  N   UNL     1       0.997   3.162  21.042  0.00  0.00    +0.000 NA
ATOM     21  C   UNL     1       1.813   3.557  20.314  0.00  0.00    +0.000 C 
ENDBRANCH  13  21
ENDBRANCH   1  16
TORSDOF 2
ENDMDL
MODEL 8
REMARK VINA RESULT:      -6.3      2.463      6.812
REMARK  Name = 
REMARK  2 active torsions:
REMARK  status: ('A' for Active; 'I' for Inactive)
REMARK    1  A    between atoms: C_2  and  C_3
REMARK    2  A    between atoms: C_6  and  N_7
REMARK                            x       y       z     vdW  Elec       q    Type
REMARK                         _______ _______ _______ _____ _____    ______ ____
ROOT
ATOM      1  N   UNL     1       3.288   4.385  18.387  0.00  0.00    +0.000 N 
ATOM      2  C   UNL     1       3.421   3.570  19.500  0.00  0.00    +0.000 C 
ATOM      3  O   UNL     1       4.443   2.949  19.787  0.00  0.00    +0.000 OA
ATOM      4  N   UNL     1       2.298   3.497  20.296  0.00  0.00    +0.000 N 
ATOM      5  C   UNL     1       2.224   2.754  21.446  0.00  0.00    +0.000 C 
ATOM      6  N   UNL     1       3.198   2.042  21.896  0.00  0.00    +0.000 NA
ATOM      7  N   UNL     1       1.087   2.753  22.158  0.00  0.00    +0.000 N 
ATOM      8  H   UNL     1       2.404   4.850  18.244  0.00  0.00    +0.000 HD
ATOM      9  H   UNL     1       1.479   4.015  20.039  0.00  0.00    +0.000 HD
ATOM     10  H   UNL     1       4.003   2.140  21.251  0.00  0.00    +0.000 HD
ATOM     11  H   UNL     1       0.237   3.236  21.931  0.00  0.00    +0.000 HD
ATOM     12  H   UNL     1       1.108   2.167  22.986  0.00  0.00    +0.000 HD
ENDROOT
BRANCH   1  16
ATOM     13  C   UNL     1       6.366   5.147  15.541  0.00  0.00    +0.000 A 
ATOM     14  C   UNL     1       5.404   4.171  15.285  0.00  0.00    +0.000 A 
ATOM     15  C   UNL     1       4.392   3.917  16.214  0.00  0.00    +0.000 A 
ATOM     16  C   UNL     1       4.305   4.620  17.420  0.00  0.00    +0.000 A 
ATOM     17  C   UNL     1       5.273   5.601  17.675  0.00  0.00    +0.000 A 
ATOM     18  C   UNL     1       6.296   5.861  16.741  0.00  0.00    +0.000 A 
ATOM     19 CL   UNL     1       7.453   7.087  17.128  0.00  0.00    +0.000 Cl
BRANCH  13  21
ATOM     20  N   UNL     1       8.200   5.602  13.762  0.00  0.00    +0.000 NA
ATOM     21  C   UNL     1       7.383   5.368  14.555  0.00  0.00    +0.000 C 
ENDBRANCH  13  21
ENDBRANCH   1  16
TORSDOF 2
ENDMDL
MODEL 9
REMARK VINA RESULT:      -6.2      4.522      6.124
REMARK  Name = 
REMARK  2 active torsions:
REMARK  status: ('A' for Active; 'I' for Inactive)
REMARK    1  A    between atoms: C_2  and  C_3
REMARK    2  A    between atoms: C_6  and  N_7
REMARK                            x       y       z     vdW  Elec       q    Type
REMARK                         _______ _______ _______ _____ _____    ______ ____
ROOT
ATOM      1  N   UNL     1       3.242   6.273  19.792  0.00  0.00    +0.000 N 
ATOM      2  C   UNL     1       2.917   4.958  19.500  0.00  0.00    +0.000 C 
ATOM      3  O   UNL     1       1.850   4.601  19.003  0.00  0.00    +0.000 OA
ATOM      4  N   UNL     1       3.898   4.041  19.810  0.00  0.00    +0.000 N 
ATOM      5  C   UNL     1       3.780   2.693  19.593  0.00  0.00    +0.000 C 
ATOM      6  N   UNL     1       2.732   2.144  19.082  0.00  0.00    +0.000 NA
ATOM      7  N   UNL     1       4.795   1.880  19.922  0.00  0.00    +0.000 N 
ATOM      8  H   UNL     1       4.147   6.457  20.200  0.00  0.00    +0.000 HD
ATOM      9  H   UNL     1       4.759   4.360  20.213  0.00  0.00    +0.000 HD
ATOM     10  H   UNL     1       2.039   2.887  18.877  0.00  0.00    +0.000 HD
ATOM     11  H   UNL     1       5.664   2.149  20.346  0.00  0.00    +0.000 HD
ATOM     12  H   UNL     1       4.623   0.896  19.744  0.00  0.00    +0.000 HD
ENDROOT
BRANCH   1  16
ATOM     13  C   UNL     1       0.689   9.630  19.185  0.00  0.00    +0.000 A 
ATOM     14  C   UNL     1       1.442   9.124  18.126  0.00  0.00    +0.000 A 
ATOM     15  C   UNL     1       2.280   8.024  18.319  0.00  0.00    +0.000 A 
ATOM     16  C   UNL     1       2.397   7.395  19.563  0.00  0.00    +0.000 A 
ATOM     17  C   UNL     1       1.639   7.905  20.626  0.00  0.00    +0.000 A 
ATOM     18  C   UNL     1       0.792   9.015  20.436  0.00  0.00    +0.000 A 
ATOM     19 CL   UNL     1      -0.111   9.586  21.796  0.00  0.00    +0.000 Cl
BRANCH  13  21
ATOM     20  N   UNL     1      -0.813  11.685  18.682  0.00  0.00    +0.000 NA
ATOM     21  C   UNL     1      -0.156  10.761  18.933  0.00  0.00    +0.000 C 
ENDBRANCH  13  21
ENDBRANCH   1  16
TORSDOF 2
ENDMDL
