MODEL 1
REMARK VINA RESULT:      -7.3      0.000      0.000
REMARK  Name = 
REMARK  6 active torsions:
REMARK  status: ('A' for Active; 'I' for Inactive)
REMARK    1  A    between atoms: C_2  and  C_3
REMARK    2  A    between atoms: C_3  and  C_4
REMARK    3  A    between atoms: C_8  and  N_9
REMARK    4  A    between atoms: N_11  and  O_12
REMARK    5  A    between atoms: O_12  and  C_13
REMARK    6  A    between atoms: C_16  and  C_17
REMARK                            x       y       z     vdW  Elec       q    Type
REMARK                         _______ _______ _______ _____ _____    ______ ____
ROOT
ATOM      1  N   UNL     1       1.813   7.761  21.146  0.00  0.00    +0.000 N 
ATOM      2  C   UNL     1       1.215   8.964  20.847  0.00  0.00    +0.000 C 
ATOM      3  N   UNL     1       0.668   9.347  19.740  0.00  0.00    +0.000 NA
ATOM      4  H   UNL     1       2.201   7.664  22.076  0.00  0.00    +0.000 HD
ENDROOT
BRANCH   1   9
ATOM      5  C   UNL     1       2.417   4.486  18.460  0.00  0.00    +0.000 A 
ATOM      6  C   UNL     1       1.565   4.368  19.565  0.00  0.00    +0.000 A 
ATOM      7 CL   UNL     1       0.704   2.910  19.928  0.00  0.00    +0.000 Cl
ATOM      8  C   UNL     1       1.367   5.440  20.444  0.00  0.00    +0.000 A 
ATOM      9  C   UNL     1       2.018   6.664  20.286  0.00  0.00    +0.000 A 
ATOM     10  C   UNL     1       2.913   6.769  19.216  0.00  0.00    +0.000 A 
ATOM     11  C   UNL     1       3.108   5.702  18.317  0.00  0.00    +0.000 A 
ATOM     12 CL   UNL     1       4.236   5.962  17.029  0.00  0.00    +0.000 Cl
BRANCH   5  13
ATOM     13  C   UNL     1       2.484   3.390  17.415  0.00  0.00    +0.000 C 
BRANCH  13  15
ATOM     14  C   UNL     1       3.799   1.254  18.354  0.00  0.00    +0.000 C 
ATOM     15  C   UNL     1       3.221   2.218  17.923  0.00  0.00    +0.000 C 
ENDBRANCH  13  15
ENDBRANCH   5  13
ENDBRANCH   1   9
BRANCH   3  16
ATOM     16  O   UNL     1       0.194  10.656  19.862  0.00  0.00    +0.000 OA
BRANCH  16  17
ATOM     17  C   UNL     1      -0.962  10.814  19.127  0.00  0.00    +0.000 A 
ATOM     18  C   UNL     1      -2.003  11.680  19.467  0.00  0.00    +0.000 A 
ATOM     19  C   UNL     1      -3.113  11.812  18.623  0.00  0.00    +0.000 A 
ATOM     20  C   UNL     1      -3.192  11.080  17.433  0.00  0.00    +0.000 A 
ATOM     21  C   UNL     1      -4.371  11.216  16.515  0.00  0.00    +0.000 C 
ATOM     22  C   UNL     1      -2.145  10.211  17.100  0.00  0.00    +0.000 A 
ATOM     23  C   UNL     1      -1.036  10.083  17.940  0.00  0.00    +0.000 A 
ENDBRANCH  16  17
ENDBRANCH   3  16
TORSDOF 5
ENDMDL
MODEL 2
REMARK VINA RESULT:      -7.0      5.605      8.348
REMARK  Name = 
REMARK  6 active torsions:
REMARK  status: ('A' for Active; 'I' for Inactive)
REMARK    1  A    between atoms: C_2  and  C_3
REMARK    2  A    between atoms: C_3  and  C_4
REMARK    3  A    between atoms: C_8  and  N_9
REMARK    4  A    between atoms: N_11  and  O_12
REMARK    5  A    between atoms: O_12  and  C_13
REMARK    6  A    between atoms: C_16  and  C_17
REMARK                            x       y       z     vdW  Elec       q    Type
REMARK                         _______ _______ _______ _____ _____    ______ ____
ROOT
ATOM      1  N   UNL     1       6.339   5.974  18.506  0.00  0.00    +0.000 N 
ATOM      2  C   UNL     1       6.885   6.014  17.243  0.00  0.00    +0.000 C 
ATOM      3  N   UNL     1       6.405   5.554  16.135  0.00  0.00    +0.000 NA
ATOM      4  H   UNL     1       6.887   6.380  19.253  0.00  0.00    +0.000 HD
ENDROOT
BRANCH   1   9
ATOM      5  C   UNL     1       2.662   4.093  19.622  0.00  0.00    +0.000 A 
ATOM      6  C   UNL     1       2.857   5.468  19.807  0.00  0.00    +0.000 A 
ATOM      7 CL   UNL     1       1.645   6.497  20.494  0.00  0.00    +0.000 Cl
ATOM      8  C   UNL     1       4.059   6.083  19.441  0.00  0.00    +0.000 A 
ATOM      9  C   UNL     1       5.129   5.368  18.902  0.00  0.00    +0.000 A 
ATOM     10  C   UNL     1       4.961   3.986  18.767  0.00  0.00    +0.000 A 
ATOM     11  C   UNL     1       3.749   3.359  19.117  0.00  0.00    +0.000 A 
ATOM     12 CL   UNL     1       3.663   1.644  18.894  0.00  0.00    +0.000 Cl
BRANCH   5  13
ATOM     13  C   UNL     1       1.299   3.469  19.847  0.00  0.00    +0.000 C 
BRANCH  13  15
ATOM     14  C   UNL     1       1.143   2.272  22.238  0.00  0.00    +0.000 C 
ATOM     15  C   UNL     1       1.230   2.808  21.164  0.00  0.00    +0.000 C 
ENDBRANCH  13  15
ENDBRANCH   5  13
ENDBRANCH   1   9
BRANCH   3  16
ATOM     16  O   UNL     1       7.297   5.792  15.086  0.00  0.00    +0.000 OA
BRANCH  16  17
ATOM     17  C   UNL     1       7.028   4.947  14.030  0.00  0.00    +0.000 A 
ATOM     18  C   UNL     1       7.669   5.000  12.791  0.00  0.00    +0.000 A 
ATOM     19  C   UNL     1       7.365   4.059  11.800  0.00  0.00    +0.000 A 
ATOM     20  C   UNL     1       6.419   3.055  12.040  0.00  0.00    +0.000 A 
ATOM     21  C   UNL     1       6.088   2.035  10.990  0.00  0.00    +0.000 C 
ATOM     22  C   UNL     1       5.778   3.010  13.284  0.00  0.00    +0.000 A 
ATOM     23  C   UNL     1       6.085   3.947  14.274  0.00  0.00    +0.000 A 
ENDBRANCH  16  17
ENDBRANCH   3  16
TORSDOF 5
ENDMDL
MODEL 3
REMARK VINA RESULT:      -7.0      5.689      8.242
REMARK  Name = 
REMARK  6 active torsions:
REMARK  status: ('A' for Active; 'I' for Inactive)
REMARK    1  A    between atoms: C_2  and  C_3
REMARK    2  A    between atoms: C_3  and  C_4
REMARK    3  A    between atoms: C_8  and  N_9
REMARK    4  A    between atoms: N_11  and  O_12
REMARK    5  A    between atoms: O_12  and  C_13
REMARK    6  A    between atoms: C_16  and  C_17
REMARK                            x       y       z     vdW  Elec       q    Type
REMARK                         _______ _______ _______ _____ _____    ______ ____
ROOT
ATOM      1  N   UNL     1       6.903   5.165  18.727  0.00  0.00    +0.000 N 
ATOM      2  C   UNL     1       7.318   5.368  17.431  0.00  0.00    +0.000 C 
ATOM      3  N   UNL     1       6.604   5.509  16.362  0.00  0.00    +0.000 NA
ATOM      4  H   UNL     1       7.627   5.061  19.427  0.00  0.00    +0.000 HD
ENDROOT
BRANCH   1   9
ATOM      5  C   UNL     1       2.886   4.624  20.096  0.00  0.00    +0.000 A 
ATOM      6  C   UNL     1       3.316   5.854  19.584  0.00  0.00    +0.000 A 
ATOM      7 CL   UNL     1       2.273   7.232  19.468  0.00  0.00    +0.000 Cl
ATOM      8  C   UNL     1       4.630   6.031  19.135  0.00  0.00    +0.000 A 
ATOM      9  C   UNL     1       5.582   5.013  19.196  0.00  0.00    +0.000 A 
ATOM     10  C   UNL     1       5.174   3.799  19.759  0.00  0.00    +0.000 A 
ATOM     11  C   UNL     1       3.849   3.605  20.199  0.00  0.00    +0.000 A 
ATOM     12 CL   UNL     1       3.467   2.055  20.867  0.00  0.00    +0.000 Cl
BRANCH   5  13
ATOM     13  C   UNL     1       1.421   4.386  20.407  0.00  0.00    +0.000 C 
BRANCH  13  15
ATOM     14  C   UNL     1       0.387   2.446  18.877  0.00  0.00    +0.000 C 
ATOM     15  C   UNL     1       0.866   3.317  19.557  0.00  0.00    +0.000 C 
ENDBRANCH  13  15
ENDBRANCH   5  13
ENDBRANCH   1   9
BRANCH   3  16
ATOM     16  O   UNL     1       7.430   5.677  15.248  0.00  0.00    +0.000 OA
BRANCH  16  17
ATOM     17  C   UNL     1       6.953   4.939  14.185  0.00  0.00    +0.000 A 
ATOM     18  C   UNL     1       7.636   4.752  12.982  0.00  0.00    +0.000 A 
ATOM     19  C   UNL     1       7.091   3.937  11.983  0.00  0.00    +0.000 A 
ATOM     20  C   UNL     1       5.859   3.301  12.178  0.00  0.00    +0.000 A 
ATOM     21  C   UNL     1       5.266   2.418  11.119  0.00  0.00    +0.000 C 
ATOM     22  C   UNL     1       5.179   3.495  13.387  0.00  0.00    +0.000 A 
ATOM     23  C   UNL     1       5.725   4.306  14.385  0.00  0.00    +0.000 A 
ENDBRANCH  16  17
ENDBRANCH   3  16
TORSDOF 5
ENDMDL
MODEL 4
REMARK VINA RESULT:      -7.0      5.287      8.346
REMARK  Name = 
REMARK  6 active torsions:
REMARK  status: ('A' for Active; 'I' for Inactive)
REMARK    1  A    between atoms: C_2  and  C_3
REMARK    2  A    between atoms: C_3  and  C_4
REMARK    3  A    between atoms: C_8  and  N_9
REMARK    4  A    between atoms: N_11  and  O_12
REMARK    5  A    between atoms: O_12  and  C_13
REMARK    6  A    between atoms: C_16  and  C_17
REMARK                            x       y       z     vdW  Elec       q    Type
REMARK                         _______ _______ _______ _____ _____    ______ ____
ROOT
ATOM      1  N   UNL     1       5.779   6.260  17.986  0.00  0.00    +0.000 N 
ATOM      2  C   UNL     1       6.397   6.211  16.757  0.00  0.00    +0.000 C 
ATOM      3  N   UNL     1       5.989   5.655  15.663  0.00  0.00    +0.000 NA
ATOM      4  H   UNL     1       6.277   6.735  18.728  0.00  0.00    +0.000 HD
ENDROOT
BRANCH   1   9
ATOM      5  C   UNL     1       2.092   4.470  19.214  0.00  0.00    +0.000 A 
ATOM      6  C   UNL     1       2.947   3.822  18.312  0.00  0.00    +0.000 A 
ATOM      7 CL   UNL     1       2.582   2.271  17.633  0.00  0.00    +0.000 Cl
ATOM      8  C   UNL     1       4.153   4.407  17.911  0.00  0.00    +0.000 A 
ATOM      9  C   UNL     1       4.557   5.665  18.360  0.00  0.00    +0.000 A 
ATOM     10  C   UNL     1       3.682   6.342  19.216  0.00  0.00    +0.000 A 
ATOM     11  C   UNL     1       2.473   5.755  19.639  0.00  0.00    +0.000 A 
ATOM     12 CL   UNL     1       1.481   6.691  20.706  0.00  0.00    +0.000 Cl
BRANCH   5  13
ATOM     13  C   UNL     1       0.884   3.755  19.783  0.00  0.00    +0.000 C 
BRANCH  13  15
ATOM     14  C   UNL     1       1.503   2.386  22.000  0.00  0.00    +0.000 C 
ATOM     15  C   UNL     1       1.235   3.013  21.008  0.00  0.00    +0.000 C 
ENDBRANCH  13  15
ENDBRANCH   5  13
ENDBRANCH   1   9
BRANCH   3  16
ATOM     16  O   UNL     1       6.936   5.827  14.650  0.00  0.00    +0.000 OA
BRANCH  16  17
ATOM     17  C   UNL     1       6.774   4.862  13.679  0.00  0.00    +0.000 A 
ATOM     18  C   UNL     1       7.601   4.717  12.563  0.00  0.00    +0.000 A 
ATOM     19  C   UNL     1       7.388   3.668  11.660  0.00  0.00    +0.000 A 
ATOM     20  C   UNL     1       6.348   2.755  11.866  0.00  0.00    +0.000 A 
ATOM     21  C   UNL     1       6.112   1.621  10.911  0.00  0.00    +0.000 C 
ATOM     22  C   UNL     1       5.521   2.908  12.986  0.00  0.00    +0.000 A 
ATOM     23  C   UNL     1       5.737   3.953  13.888  0.00  0.00    +0.000 A 
ENDBRANCH  16  17
ENDBRANCH   3  16
TORSDOF 5
ENDMDL
MODEL 5
REMARK VINA RESULT:      -7.0      5.738      8.305
REMARK  Name = 
REMARK  6 active torsions:
REMARK  status: ('A' for Active; 'I' for Inactive)
REMARK    1  A    between atoms: C_2  and  C_3
REMARK    2  A    between atoms: C_3  and  C_4
REMARK    3  A    between atoms: C_8  and  N_9
REMARK    4  A    between atoms: N_11  and  O_12
REMARK    5  A    between atoms: O_12  and  C_13
REMARK    6  A    between atoms: C_16  and  C_17
REMARK                            x       y       z     vdW  Elec       q    Type
REMARK                         _______ _______ _______ _____ _____    ______ ____
ROOT
ATOM      1  N   UNL     1       6.757   5.980  18.486  0.00  0.00    +0.000 N 
ATOM      2  C   UNL     1       7.213   6.014  17.188  0.00  0.00    +0.000 C 
ATOM      3  N   UNL     1       6.640   5.578  16.114  0.00  0.00    +0.000 NA
ATOM      4  H   UNL     1       7.370   6.362  19.195  0.00  0.00    +0.000 HD
ENDROOT
BRANCH   1   9
ATOM      5  C   UNL     1       3.123   4.312  20.008  0.00  0.00    +0.000 A 
ATOM      6  C   UNL     1       4.215   3.496  19.688  0.00  0.00    +0.000 A 
ATOM      7 CL   UNL     1       4.180   1.775  19.877  0.00  0.00    +0.000 Cl
ATOM      8  C   UNL     1       5.405   4.042  19.190  0.00  0.00    +0.000 A 
ATOM      9  C   UNL     1       5.560   5.410  18.964  0.00  0.00    +0.000 A 
ATOM     10  C   UNL     1       4.453   6.224  19.229  0.00  0.00    +0.000 A 
ATOM     11  C   UNL     1       3.257   5.687  19.745  0.00  0.00    +0.000 A 
ATOM     12 CL   UNL     1       1.964   6.800  20.040  0.00  0.00    +0.000 Cl
BRANCH   5  13
ATOM     13  C   UNL     1       1.911   3.739  20.716  0.00  0.00    +0.000 C 
BRANCH  13  15
ATOM     14  C   UNL     1       0.345   2.372  19.027  0.00  0.00    +0.000 C 
ATOM     15  C   UNL     1       1.062   2.978  19.780  0.00  0.00    +0.000 C 
ENDBRANCH  13  15
ENDBRANCH   5  13
ENDBRANCH   1   9
BRANCH   3  16
ATOM     16  O   UNL     1       7.462   5.798  15.005  0.00  0.00    +0.000 OA
BRANCH  16  17
ATOM     17  C   UNL     1       7.088   4.974  13.965  0.00  0.00    +0.000 A 
ATOM     18  C   UNL     1       7.747   4.903  12.736  0.00  0.00    +0.000 A 
ATOM     19  C   UNL     1       7.324   3.991  11.761  0.00  0.00    +0.000 A 
ATOM     20  C   UNL     1       6.238   3.141  12.007  0.00  0.00    +0.000 A 
ATOM     21  C   UNL     1       5.778   2.153  10.976  0.00  0.00    +0.000 C 
ATOM     22  C   UNL     1       5.581   3.220  13.242  0.00  0.00    +0.000 A 
ATOM     23  C   UNL     1       6.007   4.127  14.214  0.00  0.00    +0.000 A 
ENDBRANCH  16  17
ENDBRANCH   3  16
TORSDOF 5
ENDMDL
MODEL 6
REMARK VINA RESULT:      -7.0      4.926      8.156
REMARK  Name = 
REMARK  6 active torsions:
REMARK  status: ('A' for Active; 'I' for Inactive)
REMARK    1  A    between atoms: C_2  and  C_3
REMARK    2  A    between atoms: C_3  and  C_4
REMARK    3  A    between atoms: C_8  and  N_9
REMARK    4  A    between atoms: N_11  and  O_12
REMARK    5  A    between atoms: O_12  and  C_13
REMARK    6  A    between atoms: C_16  and  C_17
REMARK                            x       y       z     vdW  Elec       q    Type
REMARK                         _______ _______ _______ _____ _____    ______ ____
ROOT
ATOM      1  N   UNL     1       4.405   7.236  17.116  0.00  0.00    +0.000 N 
ATOM      2  C   UNL     1       5.501   6.855  16.376  0.00  0.00    +0.000 C 
ATOM      3  N   UNL     1       5.986   5.670  16.195  0.00  0.00    +0.000 NA
ATOM      4  H   UNL     1       4.197   8.227  17.146  0.00  0.00    +0.000 HD
ENDROOT
BRANCH   1   9
ATOM      5  C   UNL     1       1.821   4.725  19.424  0.00  0.00    +0.000 A 
ATOM      6  C   UNL     1       2.046   6.060  19.786  0.00  0.00    +0.000 A 
ATOM      7 CL   UNL     1       1.311   6.785  21.176  0.00  0.00    +0.000 Cl
ATOM      8  C   UNL     1       2.891   6.881  19.031  0.00  0.00    +0.000 A 
ATOM      9  C   UNL     1       3.569   6.418  17.903  0.00  0.00    +0.000 A 
ATOM     10  C   UNL     1       3.392   5.071  17.568  0.00  0.00    +0.000 A 
ATOM     11  C   UNL     1       2.531   4.239  18.312  0.00  0.00    +0.000 A 
ATOM     12 CL   UNL     1       2.391   2.594  17.791  0.00  0.00    +0.000 Cl
BRANCH   5  13
ATOM     13  C   UNL     1       0.768   3.899  20.135  0.00  0.00    +0.000 C 
BRANCH  13  15
ATOM     14  C   UNL     1       1.896   2.353  22.008  0.00  0.00    +0.000 C 
ATOM     15  C   UNL     1       1.375   3.048  21.175  0.00  0.00    +0.000 C 
ENDBRANCH  13  15
ENDBRANCH   5  13
ENDBRANCH   1   9
BRANCH   3  16
ATOM     16  O   UNL     1       7.122   5.732  15.383  0.00  0.00    +0.000 OA
BRANCH  16  17
ATOM     17  C   UNL     1       6.944   4.961  14.254  0.00  0.00    +0.000 A 
ATOM     18  C   UNL     1       7.706   5.077  13.090  0.00  0.00    +0.000 A 
ATOM     19  C   UNL     1       7.484   4.207  12.015  0.00  0.00    +0.000 A 
ATOM     20  C   UNL     1       6.501   3.214  12.095  0.00  0.00    +0.000 A 
ATOM     21  C   UNL     1       6.258   2.270  10.955  0.00  0.00    +0.000 C 
ATOM     22  C   UNL     1       5.740   3.106  13.266  0.00  0.00    +0.000 A 
ATOM     23  C   UNL     1       5.964   3.972  14.339  0.00  0.00    +0.000 A 
ENDBRANCH  16  17
ENDBRANCH   3  16
TORSDOF 5
ENDMDL
MODEL 7
REMARK VINA RESULT:      -6.9      3.625      8.153
REMARK  Name = 
REMARK  6 active torsions:
REMARK  status: ('A' for Active; 'I' for Inactive)
REMARK    1  A    between atoms: C_2  and  C_3
REMARK    2  A    between atoms: C_3  and  C_4
REMARK    3  A    between atoms: C_8  and  N_9
REMARK    4  A    between atoms: N_11  and  O_12
REMARK    5  A    between atoms: O_12  and  C_13
REMARK    6  A    between atoms: C_16  and  C_17
REMARK                            x       y       z     vdW  Elec       q    Type
REMARK                         _______ _______ _______ _____ _____    ______ ____
ROOT
ATOM      1  N   UNL     1       2.442   5.386  20.388  0.00  0.00    +0.000 N 
ATOM      2  C   UNL     1       3.664   4.903  19.983  0.00  0.00    +0.000 C 
ATOM      3  N   UNL     1       4.652   5.539  19.442  0.00  0.00    +0.000 NA
ATOM      4  H   UNL     1       1.792   4.715  20.778  0.00  0.00    +0.000 HD
ENDROOT
BRANCH   1   9
ATOM      5  C   UNL     1       0.865   9.347  20.029  0.00  0.00    +0.000 A 
ATOM      6  C   UNL     1       1.672   8.796  19.026  0.00  0.00    +0.000 A 
ATOM      7 CL   UNL     1       2.092   9.662  17.586  0.00  0.00    +0.000 Cl
ATOM      8  C   UNL     1       2.188   7.500  19.143  0.00  0.00    +0.000 A 
ATOM      9  C   UNL     1       1.951   6.702  20.263  0.00  0.00    +0.000 A 
ATOM     10  C   UNL     1       1.192   7.268  21.293  0.00  0.00    +0.000 A 
ATOM     11  C   UNL     1       0.655   8.566  21.178  0.00  0.00    +0.000 A 
ATOM     12 CL   UNL     1      -0.274   9.148  22.518  0.00  0.00    +0.000 Cl
BRANCH   5  13
ATOM     13  C   UNL     1       0.163  10.674  19.814  0.00  0.00    +0.000 C 
BRANCH  13  15
ATOM     14  C   UNL     1      -1.815  10.447  18.023  0.00  0.00    +0.000 C 
ATOM     15  C   UNL     1      -0.935  10.540  18.839  0.00  0.00    +0.000 C 
ENDBRANCH  13  15
ENDBRANCH   5  13
ENDBRANCH   1   9
BRANCH   3  16
ATOM     16  O   UNL     1       5.703   4.660  19.171  0.00  0.00    +0.000 OA
BRANCH  16  17
ATOM     17  C   UNL     1       5.833   4.479  17.810  0.00  0.00    +0.000 A 
ATOM     18  C   UNL     1       4.801   4.065  16.965  0.00  0.00    +0.000 A 
ATOM     19  C   UNL     1       5.019   3.966  15.585  0.00  0.00    +0.000 A 
ATOM     20  C   UNL     1       6.269   4.279  15.039  0.00  0.00    +0.000 A 
ATOM     21  C   UNL     1       6.515   4.184  13.561  0.00  0.00    +0.000 C 
ATOM     22  C   UNL     1       7.300   4.690  15.893  0.00  0.00    +0.000 A 
ATOM     23  C   UNL     1       7.080   4.793  17.269  0.00  0.00    +0.000 A 
ENDBRANCH  16  17
ENDBRANCH   3  16
TORSDOF 5
ENDMDL
MODEL 8
REMARK VINA RESULT:      -6.9      3.595      8.154
REMARK  Name = 
REMARK  6 active torsions:
REMARK  status: ('A' for Active; 'I' for Inactive)
REMARK    1  A    between atoms: C_2  and  C_3
REMARK    2  A    between atoms: C_3  and  C_4
REMARK    3  A    between atoms: C_8  and  N_9
REMARK    4  A    between atoms: N_11  and  O_12
REMARK    5  A    between atoms: O_12  and  C_13
REMARK    6  A    between atoms: C_16  and  C_17
REMARK                            x       y       z     vdW  Elec       q    Type
REMARK                         _______ _______ _______ _____ _____    ______ ____
ROOT
ATOM      1  N   UNL     1       2.008   5.633  20.797  0.00  0.00    +0.000 N 
ATOM      2  C   UNL     1       3.099   4.936  20.330  0.00  0.00    +0.000 C 
ATOM      3  N   UNL     1       4.072   5.354  19.588  0.00  0.00    +0.000 NA
ATOM      4  H   UNL     1       1.342   5.114  21.356  0.00  0.00    +0.000 HD
ENDROOT
BRANCH   1   9
ATOM      5  C   UNL     1       0.873   9.684  20.020  0.00  0.00    +0.000 A 
ATOM      6  C   UNL     1       1.612   8.947  19.086  0.00  0.00    +0.000 A 
ATOM      7 CL   UNL     1       2.119   9.609  17.568  0.00  0.00    +0.000 Cl
ATOM      8  C   UNL     1       1.983   7.622  19.340  0.00  0.00    +0.000 A 
ATOM      9  C   UNL     1       1.664   6.974  20.533  0.00  0.00    +0.000 A 
ATOM     10  C   UNL     1       0.974   7.722  21.494  0.00  0.00    +0.000 A 
ATOM     11  C   UNL     1       0.583   9.052  21.242  0.00  0.00    +0.000 A 
ATOM     12 CL   UNL     1      -0.273   9.867  22.507  0.00  0.00    +0.000 Cl
BRANCH   5  13
ATOM     13  C   UNL     1       0.320  11.050  19.665  0.00  0.00    +0.000 C 
BRANCH  13  15
ATOM     14  C   UNL     1      -1.930  10.817  18.231  0.00  0.00    +0.000 C 
ATOM     15  C   UNL     1      -0.912  10.930  18.863  0.00  0.00    +0.000 C 
ENDBRANCH  13  15
ENDBRANCH   5  13
ENDBRANCH   1   9
BRANCH   3  16
ATOM     16  O   UNL     1       4.966   4.311  19.331  0.00  0.00    +0.000 OA
BRANCH  16  17
ATOM     17  C   UNL     1       5.491   4.435  18.062  0.00  0.00    +0.000 A 
ATOM     18  C   UNL     1       6.838   4.676  17.784  0.00  0.00    +0.000 A 
ATOM     19  C   UNL     1       7.284   4.730  16.458  0.00  0.00    +0.000 A 
ATOM     20  C   UNL     1       6.388   4.542  15.399  0.00  0.00    +0.000 A 
ATOM     21  C   UNL     1       6.853   4.589  13.972  0.00  0.00    +0.000 C 
ATOM     22  C   UNL     1       5.038   4.303  15.686  0.00  0.00    +0.000 A 
ATOM     23  C   UNL     1       4.595   4.246  17.009  0.00  0.00    +0.000 A 
ENDBRANCH  16  17
ENDBRANCH   3  16
TORSDOF 5
ENDMDL
MODEL 9
REMARK VINA RESULT:      -6.8      0.857      2.347
REMARK  Name = 
REMARK  6 active torsions:
REMARK  status: ('A' for Active; 'I' for Inactive)
REMARK    1  A    between atoms: C_2  and  C_3
REMARK    2  A    between atoms: C_3  and  C_4
REMARK    3  A    between atoms: C_8  and  N_9
REMARK    4  A    between atoms: N_11  and  O_12
REMARK    5  A    between atoms: O_12  and  C_13
REMARK    6  A    between atoms: C_16  and  C_17
REMARK                            x       y       z     vdW  Elec       q    Type
REMARK                         _______ _______ _______ _____ _____    ______ ____
ROOT
ATOM      1  N   UNL     1       1.645   8.125  20.800  0.00  0.00    +0.000 N 
ATOM      2  C   UNL     1       1.171   9.279  20.218  0.00  0.00    +0.000 C 
ATOM      3  N   UNL     1       0.869   9.501  18.981  0.00  0.00    +0.000 NA
ATOM      4  H   UNL     1       1.837   8.161  21.793  0.00  0.00    +0.000 HD
ENDROOT
BRANCH   1   9
ATOM      5  C   UNL     1       2.639   4.396  18.954  0.00  0.00    +0.000 A 
ATOM      6  C   UNL     1       3.144   5.605  18.460  0.00  0.00    +0.000 A 
ATOM      7 CL   UNL     1       4.192   5.685  17.083  0.00  0.00    +0.000 Cl
ATOM      8  C   UNL     1       2.819   6.826  19.064  0.00  0.00    +0.000 A 
ATOM      9  C   UNL     1       1.965   6.909  20.163  0.00  0.00    +0.000 A 
ATOM     10  C   UNL     1       1.412   5.710  20.627  0.00  0.00    +0.000 A 
ATOM     11  C   UNL     1       1.745   4.475  20.036  0.00  0.00    +0.000 A 
ATOM     12 CL   UNL     1       1.002   3.062  20.707  0.00  0.00    +0.000 Cl
BRANCH   5  13
ATOM     13  C   UNL     1       3.138   3.071  18.412  0.00  0.00    +0.000 C 
BRANCH  13  15
ATOM     14  C   UNL     1       4.699   1.835  20.204  0.00  0.00    +0.000 C 
ATOM     15  C   UNL     1       4.011   2.394  19.389  0.00  0.00    +0.000 C 
ENDBRANCH  13  15
ENDBRANCH   5  13
ENDBRANCH   1   9
BRANCH   3  16
ATOM     16  O   UNL     1       0.440  10.821  18.817  0.00  0.00    +0.000 OA
BRANCH  16  17
ATOM     17  C   UNL     1      -0.889  10.847  18.448  0.00  0.00    +0.000 A 
ATOM     18  C   UNL     1      -1.461  10.004  17.493  0.00  0.00    +0.000 A 
ATOM     19  C   UNL     1      -2.835  10.070  17.229  0.00  0.00    +0.000 A 
ATOM     20  C   UNL     1      -3.648  10.978  17.918  0.00  0.00    +0.000 A 
ATOM     21  C   UNL     1      -5.123  11.054  17.651  0.00  0.00    +0.000 C 
ATOM     22  C   UNL     1      -3.066  11.821  18.873  0.00  0.00    +0.000 A 
ATOM     23  C   UNL     1      -1.696  11.752  19.138  0.00  0.00    +0.000 A 
ENDBRANCH  16  17
ENDBRANCH   3  16
TORSDOF 5
ENDMDL
