MODEL 1
REMARK VINA RESULT:      -6.5      0.000      0.000
REMARK  Name = 
REMARK  19 active torsions:
REMARK  status: ('A' for Active; 'I' for Inactive)
REMARK    1  A    between atoms: C_1  and  O_2
REMARK    2  A    between atoms: O_2  and  C_3
REMARK    3  A    between atoms: C_5  and  C_6
REMARK    4  A    between atoms: C_6  and  O_7
REMARK    5  A    between atoms: C_6  and  C_9
REMARK    6  A    between atoms: O_7  and  C_8
REMARK    7  A    between atoms: C_12  and  C_13
REMARK    8  A    between atoms: C_15  and  O_16
REMARK    9  A    between atoms: O_16  and  C_17
REMARK   10  A    between atoms: C_18  and  O_19
REMARK   11  A    between atoms: C_20  and  O_21
REMARK   12  A    between atoms: O_21  and  C_22
REMARK   13  A    between atoms: C_24  and  C_25
REMARK   14  A    between atoms: C_25  and  O_26
REMARK   15  A    between atoms: O_26  and  C_27
REMARK   16  A    between atoms: C_27  and  C_28
REMARK   17  A    between atoms: C_31  and  O_32
REMARK   18  A    between atoms: O_32  and  C_33
REMARK   19  A    between atoms: C_34  and  O_35
REMARK                            x       y       z     vdW  Elec       q    Type
REMARK                         _______ _______ _______ _____ _____    ______ ____
ROOT
ATOM      1  C   UNL     1      -0.772  12.074  20.722  0.00  0.00    +0.000 C 
ATOM      2  C   UNL     1      -1.964  12.235  19.800  0.00  0.00    +0.000 C 
ATOM      3  O   UNL     1      -1.408  12.603  18.518  0.00  0.00    +0.000 OA
ATOM      4  C   UNL     1       0.026  12.387  18.547  0.00  0.00    +0.000 C 
ATOM      5  C   UNL     1       0.268  11.480  19.771  0.00  0.00    +0.000 C 
ENDROOT
BRANCH   4   6
ATOM      6  C   UNL     1       0.793  13.706  18.656  0.00  0.00    +0.000 A 
ATOM      7  C   UNL     1       2.193  13.771  18.525  0.00  0.00    +0.000 A 
ATOM      8  C   UNL     1       2.849  15.002  18.502  0.00  0.00    +0.000 A 
ATOM      9  C   UNL     1       2.098  16.177  18.652  0.00  0.00    +0.000 A 
ATOM     10  C   UNL     1       0.711  16.145  18.826  0.00  0.00    +0.000 A 
ATOM     11  C   UNL     1       0.069  14.905  18.826  0.00  0.00    +0.000 A 
BRANCH   8  12
ATOM     12  O   UNL     1       4.196  15.196  18.327  0.00  0.00    +0.000 OA
ATOM     13  C   UNL     1       5.027  14.977  19.460  0.00  0.00    +0.000 C 
ENDBRANCH   8  12
BRANCH   9  14
ATOM     14  O   UNL     1       2.751  17.387  18.612  0.00  0.00    +0.000 OA
ATOM     15  H   UNL     1       2.566  17.806  19.472  0.00  0.00    +0.000 HD
ENDBRANCH   9  14
BRANCH  10  16
ATOM     16  O   UNL     1       0.085  17.354  18.967  0.00  0.00    +0.000 OA
ATOM     17  C   UNL     1      -1.052  17.601  18.151  0.00  0.00    +0.000 C 
ENDBRANCH  10  16
ENDBRANCH   4   6
BRANCH   1  18
ATOM     18  C   UNL     1      -1.041  11.410  22.076  0.00  0.00    +0.000 C 
BRANCH  18  21
ATOM     19  C   UNL     1      -3.854  12.870  24.262  0.00  0.00    +0.000 A 
ATOM     20  C   UNL     1      -3.076  11.980  23.498  0.00  0.00    +0.000 A 
ATOM     21  C   UNL     1      -1.805  12.337  23.023  0.00  0.00    +0.000 A 
ATOM     22  C   UNL     1      -1.314  13.607  23.363  0.00  0.00    +0.000 A 
ATOM     23  C   UNL     1      -2.063  14.507  24.125  0.00  0.00    +0.000 A 
ATOM     24  C   UNL     1      -3.341  14.140  24.563  0.00  0.00    +0.000 A 
BRANCH  19  26
ATOM     25  C   UNL     1      -6.207  12.817  23.788  0.00  0.00    +0.000 C 
ATOM     26  O   UNL     1      -5.098  12.371  24.556  0.00  0.00    +0.000 OA
ENDBRANCH  19  26
BRANCH  23  27
ATOM     27  O   UNL     1      -1.501  15.754  24.227  0.00  0.00    +0.000 OA
ATOM     28  C   UNL     1      -0.841  16.061  25.449  0.00  0.00    +0.000 C 
ENDBRANCH  23  27
BRANCH  24  29
ATOM     29  O   UNL     1      -4.118  15.069  25.198  0.00  0.00    +0.000 OA
ATOM     30  H   UNL     1      -4.651  14.568  25.835  0.00  0.00    +0.000 HD
ENDBRANCH  24  29
ENDBRANCH  18  21
BRANCH  18  31
ATOM     31  O   UNL     1       0.153  10.874  22.668  0.00  0.00    +0.000 OA
ATOM     32  C   UNL     1       0.087   9.553  23.196  0.00  0.00    +0.000 C 
ENDBRANCH  18  31
ENDBRANCH   1  18
BRANCH   5  33
ATOM     33  C   UNL     1       0.062  10.014  19.357  0.00  0.00    +0.000 C 
BRANCH  33  34
ATOM     34  O   UNL     1       1.239   9.218  19.543  0.00  0.00    +0.000 OA
BRANCH  34  35
ATOM     35  C   UNL     1       1.886   8.849  18.405  0.00  0.00    +0.000 C 
ATOM     36  C   UNL     1       2.451   7.469  18.535  0.00  0.00    +0.000 C 
ATOM     37  O   UNL     1       1.953   9.523  17.384  0.00  0.00    +0.000 OA
ENDBRANCH  34  35
ENDBRANCH  33  34
ENDBRANCH   5  33
TORSDOF 13
ENDMDL
MODEL 2
REMARK VINA RESULT:      -6.4      0.601      2.125
REMARK  Name = 
REMARK  19 active torsions:
REMARK  status: ('A' for Active; 'I' for Inactive)
REMARK    1  A    between atoms: C_1  and  O_2
REMARK    2  A    between atoms: O_2  and  C_3
REMARK    3  A    between atoms: C_5  and  C_6
REMARK    4  A    between atoms: C_6  and  O_7
REMARK    5  A    between atoms: C_6  and  C_9
REMARK    6  A    between atoms: O_7  and  C_8
REMARK    7  A    between atoms: C_12  and  C_13
REMARK    8  A    between atoms: C_15  and  O_16
REMARK    9  A    between atoms: O_16  and  C_17
REMARK   10  A    between atoms: C_18  and  O_19
REMARK   11  A    between atoms: C_20  and  O_21
REMARK   12  A    between atoms: O_21  and  C_22
REMARK   13  A    between atoms: C_24  and  C_25
REMARK   14  A    between atoms: C_25  and  O_26
REMARK   15  A    between atoms: O_26  and  C_27
REMARK   16  A    between atoms: C_27  and  C_28
REMARK   17  A    between atoms: C_31  and  O_32
REMARK   18  A    between atoms: O_32  and  C_33
REMARK   19  A    between atoms: C_34  and  O_35
REMARK                            x       y       z     vdW  Elec       q    Type
REMARK                         _______ _______ _______ _____ _____    ______ ____
ROOT
ATOM      1  C   UNL     1      -0.770  12.131  20.705  0.00  0.00    +0.000 C 
ATOM      2  C   UNL     1      -1.951  12.282  19.766  0.00  0.00    +0.000 C 
ATOM      3  O   UNL     1      -1.382  12.665  18.494  0.00  0.00    +0.000 OA
ATOM      4  C   UNL     1       0.054  12.467  18.543  0.00  0.00    +0.000 C 
ATOM      5  C   UNL     1       0.291  11.556  19.765  0.00  0.00    +0.000 C 
ENDROOT
BRANCH   4   6
ATOM      6  C   UNL     1       0.803  13.795  18.670  0.00  0.00    +0.000 A 
ATOM      7  C   UNL     1       0.130  15.028  18.758  0.00  0.00    +0.000 A 
ATOM      8  C   UNL     1       0.835  16.208  18.999  0.00  0.00    +0.000 A 
ATOM      9  C   UNL     1       2.232  16.155  19.114  0.00  0.00    +0.000 A 
ATOM     10  C   UNL     1       2.934  14.952  18.989  0.00  0.00    +0.000 A 
ATOM     11  C   UNL     1       2.210  13.779  18.768  0.00  0.00    +0.000 A 
BRANCH   8  12
ATOM     12  O   UNL     1       0.289  17.456  19.159  0.00  0.00    +0.000 OA
ATOM     13  C   UNL     1      -0.593  17.632  20.262  0.00  0.00    +0.000 C 
ENDBRANCH   8  12
BRANCH   9  14
ATOM     14  O   UNL     1       2.917  17.319  19.369  0.00  0.00    +0.000 OA
ATOM     15  H   UNL     1       2.856  17.837  18.545  0.00  0.00    +0.000 HD
ENDBRANCH   9  14
BRANCH  10  16
ATOM     16  O   UNL     1       4.295  15.024  19.115  0.00  0.00    +0.000 OA
ATOM     17  C   UNL     1       5.076  14.677  17.979  0.00  0.00    +0.000 C 
ENDBRANCH  10  16
ENDBRANCH   4   6
BRANCH   1  18
ATOM     18  C   UNL     1      -1.050  11.457  22.050  0.00  0.00    +0.000 C 
BRANCH  18  21
ATOM     19  C   UNL     1      -3.834  12.869  24.305  0.00  0.00    +0.000 A 
ATOM     20  C   UNL     1      -3.051  11.988  23.535  0.00  0.00    +0.000 A 
ATOM     21  C   UNL     1      -1.814  12.380  23.002  0.00  0.00    +0.000 A 
ATOM     22  C   UNL     1      -1.360  13.676  23.291  0.00  0.00    +0.000 A 
ATOM     23  C   UNL     1      -2.113  14.567  24.057  0.00  0.00    +0.000 A 
ATOM     24  C   UNL     1      -3.359  14.164  24.554  0.00  0.00    +0.000 A 
BRANCH  19  26
ATOM     25  C   UNL     1      -6.203  12.733  23.941  0.00  0.00    +0.000 C 
ATOM     26  O   UNL     1      -5.045  12.330  24.660  0.00  0.00    +0.000 OA
ENDBRANCH  19  26
BRANCH  23  27
ATOM     27  O   UNL     1      -1.597  15.836  24.106  0.00  0.00    +0.000 OA
ATOM     28  C   UNL     1      -0.254  16.000  23.666  0.00  0.00    +0.000 C 
ENDBRANCH  23  27
BRANCH  24  29
ATOM     29  O   UNL     1      -4.147  15.080  25.195  0.00  0.00    +0.000 OA
ATOM     30  H   UNL     1      -4.112  14.839  26.134  0.00  0.00    +0.000 HD
ENDBRANCH  24  29
ENDBRANCH  18  21
BRANCH  18  31
ATOM     31  O   UNL     1       0.138  10.908  22.644  0.00  0.00    +0.000 OA
ATOM     32  C   UNL     1       0.047   9.602  23.204  0.00  0.00    +0.000 C 
ENDBRANCH  18  31
ENDBRANCH   1  18
BRANCH   5  33
ATOM     33  C   UNL     1       0.110  10.090  19.340  0.00  0.00    +0.000 C 
BRANCH  33  34
ATOM     34  O   UNL     1       1.291   9.306  19.549  0.00  0.00    +0.000 OA
BRANCH  34  35
ATOM     35  C   UNL     1       1.916   8.873  18.422  0.00  0.00    +0.000 C 
ATOM     36  C   UNL     1       2.440   7.482  18.602  0.00  0.00    +0.000 C 
ATOM     37  O   UNL     1       1.996   9.504  17.375  0.00  0.00    +0.000 OA
ENDBRANCH  34  35
ENDBRANCH  33  34
ENDBRANCH   5  33
TORSDOF 13
ENDMDL
MODEL 3
REMARK VINA RESULT:      -6.0      3.147      7.223
REMARK  Name = 
REMARK  19 active torsions:
REMARK  status: ('A' for Active; 'I' for Inactive)
REMARK    1  A    between atoms: C_1  and  O_2
REMARK    2  A    between atoms: O_2  and  C_3
REMARK    3  A    between atoms: C_5  and  C_6
REMARK    4  A    between atoms: C_6  and  O_7
REMARK    5  A    between atoms: C_6  and  C_9
REMARK    6  A    between atoms: O_7  and  C_8
REMARK    7  A    between atoms: C_12  and  C_13
REMARK    8  A    between atoms: C_15  and  O_16
REMARK    9  A    between atoms: O_16  and  C_17
REMARK   10  A    between atoms: C_18  and  O_19
REMARK   11  A    between atoms: C_20  and  O_21
REMARK   12  A    between atoms: O_21  and  C_22
REMARK   13  A    between atoms: C_24  and  C_25
REMARK   14  A    between atoms: C_25  and  O_26
REMARK   15  A    between atoms: O_26  and  C_27
REMARK   16  A    between atoms: C_27  and  C_28
REMARK   17  A    between atoms: C_31  and  O_32
REMARK   18  A    between atoms: O_32  and  C_33
REMARK   19  A    between atoms: C_34  and  O_35
REMARK                            x       y       z     vdW  Elec       q    Type
REMARK                         _______ _______ _______ _____ _____    ______ ____
ROOT
ATOM      1  C   UNL     1       1.162  10.815  19.648  0.00  0.00    +0.000 C 
ATOM      2  C   UNL     1       1.829  11.531  18.489  0.00  0.00    +0.000 C 
ATOM      3  O   UNL     1       1.991  10.527  17.463  0.00  0.00    +0.000 OA
ATOM      4  C   UNL     1       1.211   9.358  17.821  0.00  0.00    +0.000 C 
ATOM      5  C   UNL     1       0.236   9.846  18.911  0.00  0.00    +0.000 C 
ENDROOT
BRANCH   4   6
ATOM      6  C   UNL     1       2.100   8.219  18.322  0.00  0.00    +0.000 A 
ATOM      7  C   UNL     1       1.736   7.408  19.414  0.00  0.00    +0.000 A 
ATOM      8  C   UNL     1       2.506   6.300  19.766  0.00  0.00    +0.000 A 
ATOM      9  C   UNL     1       3.675   6.024  19.040  0.00  0.00    +0.000 A 
ATOM     10  C   UNL     1       4.087   6.834  17.978  0.00  0.00    +0.000 A 
ATOM     11  C   UNL     1       3.293   7.927  17.627  0.00  0.00    +0.000 A 
BRANCH   8  12
ATOM     12  O   UNL     1       2.226   5.408  20.771  0.00  0.00    +0.000 OA
ATOM     13  C   UNL     1       1.194   4.463  20.517  0.00  0.00    +0.000 C 
ENDBRANCH   8  12
BRANCH   9  14
ATOM     14  O   UNL     1       4.419   4.920  19.384  0.00  0.00    +0.000 OA
ATOM     15  H   UNL     1       4.554   4.433  18.550  0.00  0.00    +0.000 HD
ENDBRANCH   9  14
BRANCH  10  16
ATOM     16  O   UNL     1       5.247   6.470  17.347  0.00  0.00    +0.000 OA
ATOM     17  C   UNL     1       5.169   6.161  15.962  0.00  0.00    +0.000 C 
ENDBRANCH  10  16
ENDBRANCH   4   6
BRANCH   1  18
ATOM     18  C   UNL     1       0.611  11.700  20.770  0.00  0.00    +0.000 C 
BRANCH  18  21
ATOM     19  C   UNL     1       0.975  15.498  20.255  0.00  0.00    +0.000 A 
ATOM     20  C   UNL     1       0.419  14.216  20.422  0.00  0.00    +0.000 A 
ATOM     21  C   UNL     1       1.216  13.105  20.736  0.00  0.00    +0.000 A 
ATOM     22  C   UNL     1       2.591  13.318  20.915  0.00  0.00    +0.000 A 
ATOM     23  C   UNL     1       3.168  14.580  20.762  0.00  0.00    +0.000 A 
ATOM     24  C   UNL     1       2.358  15.669  20.419  0.00  0.00    +0.000 A 
BRANCH  19  26
ATOM     25  C   UNL     1      -0.357  16.458  18.503  0.00  0.00    +0.000 C 
ATOM     26  O   UNL     1       0.049  16.433  19.865  0.00  0.00    +0.000 OA
ENDBRANCH  19  26
BRANCH  23  27
ATOM     27  O   UNL     1       4.538  14.578  20.814  0.00  0.00    +0.000 OA
ATOM     28  C   UNL     1       5.130  14.498  22.105  0.00  0.00    +0.000 C 
ENDBRANCH  23  27
BRANCH  24  29
ATOM     29  O   UNL     1       2.944  16.874  20.147  0.00  0.00    +0.000 OA
ATOM     30  H   UNL     1       3.220  16.824  19.218  0.00  0.00    +0.000 HD
ENDBRANCH  24  29
ENDBRANCH  18  21
BRANCH  18  31
ATOM     31  O   UNL     1       0.724  11.078  22.060  0.00  0.00    +0.000 OA
ATOM     32  C   UNL     1      -0.463  10.541  22.635  0.00  0.00    +0.000 C 
ENDBRANCH  18  31
ENDBRANCH   1  18
BRANCH   5  33
ATOM     33  C   UNL     1      -1.003  10.459  18.238  0.00  0.00    +0.000 C 
BRANCH  33  34
ATOM     34  O   UNL     1      -1.412   9.732  17.073  0.00  0.00    +0.000 OA
BRANCH  34  35
ATOM     35  C   UNL     1      -2.737   9.798  16.773  0.00  0.00    +0.000 C 
ATOM     36  C   UNL     1      -2.944   9.977  15.301  0.00  0.00    +0.000 C 
ATOM     37  O   UNL     1      -3.649   9.671  17.582  0.00  0.00    +0.000 OA
ENDBRANCH  34  35
ENDBRANCH  33  34
ENDBRANCH   5  33
TORSDOF 13
ENDMDL
MODEL 4
REMARK VINA RESULT:      -5.9      3.205      8.260
REMARK  Name = 
REMARK  19 active torsions:
REMARK  status: ('A' for Active; 'I' for Inactive)
REMARK    1  A    between atoms: C_1  and  O_2
REMARK    2  A    between atoms: O_2  and  C_3
REMARK    3  A    between atoms: C_5  and  C_6
REMARK    4  A    between atoms: C_6  and  O_7
REMARK    5  A    between atoms: C_6  and  C_9
REMARK    6  A    between atoms: O_7  and  C_8
REMARK    7  A    between atoms: C_12  and  C_13
REMARK    8  A    between atoms: C_15  and  O_16
REMARK    9  A    between atoms: O_16  and  C_17
REMARK   10  A    between atoms: C_18  and  O_19
REMARK   11  A    between atoms: C_20  and  O_21
REMARK   12  A    between atoms: O_21  and  C_22
REMARK   13  A    between atoms: C_24  and  C_25
REMARK   14  A    between atoms: C_25  and  O_26
REMARK   15  A    between atoms: O_26  and  C_27
REMARK   16  A    between atoms: C_27  and  C_28
REMARK   17  A    between atoms: C_31  and  O_32
REMARK   18  A    between atoms: O_32  and  C_33
REMARK   19  A    between atoms: C_34  and  O_35
REMARK                            x       y       z     vdW  Elec       q    Type
REMARK                         _______ _______ _______ _____ _____    ______ ____
ROOT
ATOM      1  C   UNL     1       0.507   9.731  19.923  0.00  0.00    +0.000 C 
ATOM      2  C   UNL     1       1.353   9.874  18.673  0.00  0.00    +0.000 C 
ATOM      3  O   UNL     1       0.792  10.999  17.960  0.00  0.00    +0.000 OA
ATOM      4  C   UNL     1      -0.127  11.700  18.836  0.00  0.00    +0.000 C 
ATOM      5  C   UNL     1       0.206  11.193  20.254  0.00  0.00    +0.000 C 
ENDROOT
BRANCH   4   6
ATOM      6  C   UNL     1      -1.584  11.424  18.460  0.00  0.00    +0.000 A 
ATOM      7  C   UNL     1      -2.661  11.987  19.172  0.00  0.00    +0.000 A 
ATOM      8  C   UNL     1      -3.973  11.818  18.729  0.00  0.00    +0.000 A 
ATOM      9  C   UNL     1      -4.211  11.046  17.582  0.00  0.00    +0.000 A 
ATOM     10  C   UNL     1      -3.167  10.439  16.877  0.00  0.00    +0.000 A 
ATOM     11  C   UNL     1      -1.859  10.635  17.324  0.00  0.00    +0.000 A 
BRANCH   8  12
ATOM     12  O   UNL     1      -5.094  12.360  19.304  0.00  0.00    +0.000 OA
ATOM     13  C   UNL     1      -4.993  12.739  20.671  0.00  0.00    +0.000 C 
ENDBRANCH   8  12
BRANCH   9  14
ATOM     14  O   UNL     1      -5.505  10.899  17.143  0.00  0.00    +0.000 OA
ATOM     15  H   UNL     1      -5.533  10.023  16.717  0.00  0.00    +0.000 HD
ENDBRANCH   9  14
BRANCH  10  16
ATOM     16  O   UNL     1      -3.520   9.704  15.777  0.00  0.00    +0.000 OA
ATOM     17  C   UNL     1      -3.234  10.260  14.500  0.00  0.00    +0.000 C 
ENDBRANCH  10  16
ENDBRANCH   4   6
BRANCH   1  18
ATOM     18  C   UNL     1       1.047   8.795  21.008  0.00  0.00    +0.000 C 
BRANCH  18  21
ATOM     19  C   UNL     1       2.863   6.375  18.626  0.00  0.00    +0.000 A 
ATOM     20  C   UNL     1       2.429   7.551  19.266  0.00  0.00    +0.000 A 
ATOM     21  C   UNL     1       1.625   7.508  20.415  0.00  0.00    +0.000 A 
ATOM     22  C   UNL     1       1.291   6.246  20.931  0.00  0.00    +0.000 A 
ATOM     23  C   UNL     1       1.714   5.064  20.319  0.00  0.00    +0.000 A 
ATOM     24  C   UNL     1       2.491   5.132  19.157  0.00  0.00    +0.000 A 
BRANCH  19  26
ATOM     25  C   UNL     1       4.980   6.511  17.501  0.00  0.00    +0.000 C 
ATOM     26  O   UNL     1       3.564   6.626  17.473  0.00  0.00    +0.000 OA
ENDBRANCH  19  26
BRANCH  23  27
ATOM     27  O   UNL     1       1.167   3.929  20.860  0.00  0.00    +0.000 OA
ATOM     28  C   UNL     1       2.002   3.161  21.718  0.00  0.00    +0.000 C 
ENDBRANCH  23  27
BRANCH  24  29
ATOM     29  O   UNL     1       2.795   3.976  18.492  0.00  0.00    +0.000 OA
ATOM     30  H   UNL     1       3.702   4.093  18.170  0.00  0.00    +0.000 HD
ENDBRANCH  24  29
ENDBRANCH  18  21
BRANCH  18  31
ATOM     31  O   UNL     1       0.082   8.544  22.043  0.00  0.00    +0.000 OA
ATOM     32  C   UNL     1       0.135   9.368  23.203  0.00  0.00    +0.000 C 
ENDBRANCH  18  31
ENDBRANCH   1  18
BRANCH   5  33
ATOM     33  C   UNL     1       1.369  12.022  20.822  0.00  0.00    +0.000 C 
BRANCH  33  34
ATOM     34  O   UNL     1       1.171  13.432  20.660  0.00  0.00    +0.000 OA
BRANCH  34  35
ATOM     35  C   UNL     1       2.183  14.102  20.048  0.00  0.00    +0.000 C 
ATOM     36  C   UNL     1       1.650  15.059  19.027  0.00  0.00    +0.000 C 
ATOM     37  O   UNL     1       3.371  13.990  20.326  0.00  0.00    +0.000 OA
ENDBRANCH  34  35
ENDBRANCH  33  34
ENDBRANCH   5  33
TORSDOF 13
ENDMDL
MODEL 5
REMARK VINA RESULT:      -5.8      2.750      6.471
REMARK  Name = 
REMARK  19 active torsions:
REMARK  status: ('A' for Active; 'I' for Inactive)
REMARK    1  A    between atoms: C_1  and  O_2
REMARK    2  A    between atoms: O_2  and  C_3
REMARK    3  A    between atoms: C_5  and  C_6
REMARK    4  A    between atoms: C_6  and  O_7
REMARK    5  A    between atoms: C_6  and  C_9
REMARK    6  A    between atoms: O_7  and  C_8
REMARK    7  A    between atoms: C_12  and  C_13
REMARK    8  A    between atoms: C_15  and  O_16
REMARK    9  A    between atoms: O_16  and  C_17
REMARK   10  A    between atoms: C_18  and  O_19
REMARK   11  A    between atoms: C_20  and  O_21
REMARK   12  A    between atoms: O_21  and  C_22
REMARK   13  A    between atoms: C_24  and  C_25
REMARK   14  A    between atoms: C_25  and  O_26
REMARK   15  A    between atoms: O_26  and  C_27
REMARK   16  A    between atoms: C_27  and  C_28
REMARK   17  A    between atoms: C_31  and  O_32
REMARK   18  A    between atoms: O_32  and  C_33
REMARK   19  A    between atoms: C_34  and  O_35
REMARK                            x       y       z     vdW  Elec       q    Type
REMARK                         _______ _______ _______ _____ _____    ______ ____
ROOT
ATOM      1  C   UNL     1       0.620  10.314  20.199  0.00  0.00    +0.000 C 
ATOM      2  C   UNL     1       1.424  11.387  19.492  0.00  0.00    +0.000 C 
ATOM      3  O   UNL     1       1.894  10.771  18.273  0.00  0.00    +0.000 OA
ATOM      4  C   UNL     1       1.188   9.519  18.075  0.00  0.00    +0.000 C 
ATOM      5  C   UNL     1      -0.032   9.596  19.016  0.00  0.00    +0.000 C 
ENDROOT
BRANCH   4   6
ATOM      6  C   UNL     1       2.076   8.315  18.392  0.00  0.00    +0.000 A 
ATOM      7  C   UNL     1       1.821   7.462  19.482  0.00  0.00    +0.000 A 
ATOM      8  C   UNL     1       2.573   6.302  19.670  0.00  0.00    +0.000 A 
ATOM      9  C   UNL     1       3.616   6.014  18.777  0.00  0.00    +0.000 A 
ATOM     10  C   UNL     1       3.922   6.863  17.709  0.00  0.00    +0.000 A 
ATOM     11  C   UNL     1       3.146   8.009  17.525  0.00  0.00    +0.000 A 
BRANCH   8  12
ATOM     12  O   UNL     1       2.385   5.369  20.658  0.00  0.00    +0.000 OA
ATOM     13  C   UNL     1       1.259   4.511  20.522  0.00  0.00    +0.000 C 
ENDBRANCH   8  12
BRANCH   9  14
ATOM     14  O   UNL     1       4.341   4.861  18.959  0.00  0.00    +0.000 OA
ATOM     15  H   UNL     1       5.079   4.920  18.326  0.00  0.00    +0.000 HD
ENDBRANCH   9  14
BRANCH  10  16
ATOM     16  O   UNL     1       4.964   6.483  16.906  0.00  0.00    +0.000 OA
ATOM     17  C   UNL     1       6.239   7.050  17.176  0.00  0.00    +0.000 C 
ENDBRANCH  10  16
ENDBRANCH   4   6
BRANCH   1  18
ATOM     18  C   UNL     1      -0.235  10.771  21.384  0.00  0.00    +0.000 C 
BRANCH  18  21
ATOM     19  C   UNL     1      -2.641  13.687  20.648  0.00  0.00    +0.000 A 
ATOM     20  C   UNL     1      -2.141  12.409  20.965  0.00  0.00    +0.000 A 
ATOM     21  C   UNL     1      -0.773  12.190  21.185  0.00  0.00    +0.000 A 
ATOM     22  C   UNL     1       0.086  13.297  21.113  0.00  0.00    +0.000 A 
ATOM     23  C   UNL     1      -0.385  14.576  20.807  0.00  0.00    +0.000 A 
ATOM     24  C   UNL     1      -1.750  14.766  20.562  0.00  0.00    +0.000 A 
BRANCH  19  26
ATOM     25  C   UNL     1      -4.800  12.708  21.029  0.00  0.00    +0.000 C 
ATOM     26  O   UNL     1      -3.987  13.679  20.384  0.00  0.00    +0.000 OA
ENDBRANCH  19  26
BRANCH  23  27
ATOM     27  O   UNL     1       0.606  15.506  20.621  0.00  0.00    +0.000 OA
ATOM     28  C   UNL     1       1.683  15.134  19.770  0.00  0.00    +0.000 C 
ENDBRANCH  23  27
BRANCH  24  29
ATOM     29  O   UNL     1      -2.186  15.992  20.140  0.00  0.00    +0.000 OA
ATOM     30  H   UNL     1      -2.420  16.475  20.948  0.00  0.00    +0.000 HD
ENDBRANCH  24  29
ENDBRANCH  18  21
BRANCH  18  31
ATOM     31  O   UNL     1       0.440  10.605  22.641  0.00  0.00    +0.000 OA
ATOM     32  C   UNL     1       0.011   9.538  23.480  0.00  0.00    +0.000 C 
ENDBRANCH  18  31
ENDBRANCH   1  18
BRANCH   5  33
ATOM     33  C   UNL     1      -1.169  10.344  18.302  0.00  0.00    +0.000 C 
BRANCH  33  34
ATOM     34  O   UNL     1      -1.484   9.776  17.024  0.00  0.00    +0.000 OA
BRANCH  34  35
ATOM     35  C   UNL     1      -2.677  10.153  16.491  0.00  0.00    +0.000 C 
ATOM     36  C   UNL     1      -3.298  11.253  17.295  0.00  0.00    +0.000 C 
ATOM     37  O   UNL     1      -3.160   9.702  15.459  0.00  0.00    +0.000 OA
ENDBRANCH  34  35
ENDBRANCH  33  34
ENDBRANCH   5  33
TORSDOF 13
ENDMDL
MODEL 6
REMARK VINA RESULT:      -5.8      3.294      8.208
REMARK  Name = 
REMARK  19 active torsions:
REMARK  status: ('A' for Active; 'I' for Inactive)
REMARK    1  A    between atoms: C_1  and  O_2
REMARK    2  A    between atoms: O_2  and  C_3
REMARK    3  A    between atoms: C_5  and  C_6
REMARK    4  A    between atoms: C_6  and  O_7
REMARK    5  A    between atoms: C_6  and  C_9
REMARK    6  A    between atoms: O_7  and  C_8
REMARK    7  A    between atoms: C_12  and  C_13
REMARK    8  A    between atoms: C_15  and  O_16
REMARK    9  A    between atoms: O_16  and  C_17
REMARK   10  A    between atoms: C_18  and  O_19
REMARK   11  A    between atoms: C_20  and  O_21
REMARK   12  A    between atoms: O_21  and  C_22
REMARK   13  A    between atoms: C_24  and  C_25
REMARK   14  A    between atoms: C_25  and  O_26
REMARK   15  A    between atoms: O_26  and  C_27
REMARK   16  A    between atoms: C_27  and  C_28
REMARK   17  A    between atoms: C_31  and  O_32
REMARK   18  A    between atoms: O_32  and  C_33
REMARK   19  A    between atoms: C_34  and  O_35
REMARK                            x       y       z     vdW  Elec       q    Type
REMARK                         _______ _______ _______ _____ _____    ______ ____
ROOT
ATOM      1  C   UNL     1       0.595   9.516  19.832  0.00  0.00    +0.000 C 
ATOM      2  C   UNL     1       1.441   9.627  18.578  0.00  0.00    +0.000 C 
ATOM      3  O   UNL     1       0.936  10.786  17.878  0.00  0.00    +0.000 OA
ATOM      4  C   UNL     1       0.057  11.525  18.764  0.00  0.00    +0.000 C 
ATOM      5  C   UNL     1       0.371  10.989  20.176  0.00  0.00    +0.000 C 
ENDROOT
BRANCH   4   6
ATOM      6  C   UNL     1      -1.414  11.327  18.394  0.00  0.00    +0.000 A 
ATOM      7  C   UNL     1      -2.453  11.994  19.071  0.00  0.00    +0.000 A 
ATOM      8  C   UNL     1      -3.772  11.890  18.629  0.00  0.00    +0.000 A 
ATOM      9  C   UNL     1      -4.057  11.079  17.520  0.00  0.00    +0.000 A 
ATOM     10  C   UNL     1      -3.054  10.370  16.852  0.00  0.00    +0.000 A 
ATOM     11  C   UNL     1      -1.736  10.502  17.296  0.00  0.00    +0.000 A 
BRANCH   8  12
ATOM     12  O   UNL     1      -4.857  12.532  19.170  0.00  0.00    +0.000 OA
ATOM     13  C   UNL     1      -5.312  12.064  20.434  0.00  0.00    +0.000 C 
ENDBRANCH   8  12
BRANCH   9  14
ATOM     14  O   UNL     1      -5.357  10.996  17.081  0.00  0.00    +0.000 OA
ATOM     15  H   UNL     1      -5.650  10.097  17.318  0.00  0.00    +0.000 HD
ENDBRANCH   9  14
BRANCH  10  16
ATOM     16  O   UNL     1      -3.451   9.607  15.787  0.00  0.00    +0.000 OA
ATOM     17  C   UNL     1      -3.173  10.105  14.485  0.00  0.00    +0.000 C 
ENDBRANCH  10  16
ENDBRANCH   4   6
BRANCH   1  18
ATOM     18  C   UNL     1       1.092   8.544  20.906  0.00  0.00    +0.000 C 
BRANCH  18  21
ATOM     19  C   UNL     1       1.610   4.792  20.213  0.00  0.00    +0.000 A 
ATOM     20  C   UNL     1       1.058   6.009  20.656  0.00  0.00    +0.000 A 
ATOM     21  C   UNL     1       1.619   7.243  20.297  0.00  0.00    +0.000 A 
ATOM     22  C   UNL     1       2.736   7.230  19.447  0.00  0.00    +0.000 A 
ATOM     23  C   UNL     1       3.299   6.037  18.988  0.00  0.00    +0.000 A 
ATOM     24  C   UNL     1       2.740   4.816  19.384  0.00  0.00    +0.000 A 
BRANCH  19  26
ATOM     25  C   UNL     1       1.655   2.924  21.721  0.00  0.00    +0.000 C 
ATOM     26  O   UNL     1       0.974   3.697  20.743  0.00  0.00    +0.000 OA
ENDBRANCH  19  26
BRANCH  23  27
ATOM     27  O   UNL     1       4.474   6.202  18.301  0.00  0.00    +0.000 OA
ATOM     28  C   UNL     1       4.392   6.840  17.032  0.00  0.00    +0.000 C 
ENDBRANCH  23  27
BRANCH  24  29
ATOM     29  O   UNL     1       3.369   3.653  19.036  0.00  0.00    +0.000 OA
ATOM     30  H   UNL     1       3.241   3.566  18.078  0.00  0.00    +0.000 HD
ENDBRANCH  24  29
ENDBRANCH  18  21
BRANCH  18  31
ATOM     31  O   UNL     1       0.113   8.319  21.933  0.00  0.00    +0.000 OA
ATOM     32  C   UNL     1       0.086   9.233  23.024  0.00  0.00    +0.000 C 
ENDBRANCH  18  31
ENDBRANCH   1  18
BRANCH   5  33
ATOM     33  C   UNL     1       1.578  11.753  20.745  0.00  0.00    +0.000 C 
BRANCH  33  34
ATOM     34  O   UNL     1       1.602  13.126  20.338  0.00  0.00    +0.000 OA
BRANCH  34  35
ATOM     35  C   UNL     1       0.843  13.974  21.083  0.00  0.00    +0.000 C 
ATOM     36  C   UNL     1       0.085  14.922  20.207  0.00  0.00    +0.000 C 
ATOM     37  O   UNL     1       0.740  13.938  22.304  0.00  0.00    +0.000 OA
ENDBRANCH  34  35
ENDBRANCH  33  34
ENDBRANCH   5  33
TORSDOF 13
ENDMDL
MODEL 7
REMARK VINA RESULT:      -5.8      3.167      7.292
REMARK  Name = 
REMARK  19 active torsions:
REMARK  status: ('A' for Active; 'I' for Inactive)
REMARK    1  A    between atoms: C_1  and  O_2
REMARK    2  A    between atoms: O_2  and  C_3
REMARK    3  A    between atoms: C_5  and  C_6
REMARK    4  A    between atoms: C_6  and  O_7
REMARK    5  A    between atoms: C_6  and  C_9
REMARK    6  A    between atoms: O_7  and  C_8
REMARK    7  A    between atoms: C_12  and  C_13
REMARK    8  A    between atoms: C_15  and  O_16
REMARK    9  A    between atoms: O_16  and  C_17
REMARK   10  A    between atoms: C_18  and  O_19
REMARK   11  A    between atoms: C_20  and  O_21
REMARK   12  A    between atoms: O_21  and  C_22
REMARK   13  A    between atoms: C_24  and  C_25
REMARK   14  A    between atoms: C_25  and  O_26
REMARK   15  A    between atoms: O_26  and  C_27
REMARK   16  A    between atoms: C_27  and  C_28
REMARK   17  A    between atoms: C_31  and  O_32
REMARK   18  A    between atoms: O_32  and  C_33
REMARK   19  A    between atoms: C_34  and  O_35
REMARK                            x       y       z     vdW  Elec       q    Type
REMARK                         _______ _______ _______ _____ _____    ______ ____
ROOT
ATOM      1  C   UNL     1       1.105  10.706  19.645  0.00  0.00    +0.000 C 
ATOM      2  C   UNL     1       1.896  11.473  18.603  0.00  0.00    +0.000 C 
ATOM      3  O   UNL     1       2.161  10.521  17.549  0.00  0.00    +0.000 OA
ATOM      4  C   UNL     1       1.341   9.343  17.761  0.00  0.00    +0.000 C 
ATOM      5  C   UNL     1       0.258   9.786  18.765  0.00  0.00    +0.000 C 
ENDROOT
BRANCH   4   6
ATOM      6  C   UNL     1       2.166   8.171  18.294  0.00  0.00    +0.000 A 
ATOM      7  C   UNL     1       1.744   7.394  19.389  0.00  0.00    +0.000 A 
ATOM      8  C   UNL     1       2.454   6.255  19.771  0.00  0.00    +0.000 A 
ATOM      9  C   UNL     1       3.621   5.914  19.071  0.00  0.00    +0.000 A 
ATOM     10  C   UNL     1       4.091   6.689  18.006  0.00  0.00    +0.000 A 
ATOM     11  C   UNL     1       3.356   7.813  17.625  0.00  0.00    +0.000 A 
BRANCH   8  12
ATOM     12  O   UNL     1       2.113   5.393  20.782  0.00  0.00    +0.000 OA
ATOM     13  C   UNL     1       1.099   4.438  20.493  0.00  0.00    +0.000 C 
ENDBRANCH   8  12
BRANCH   9  14
ATOM     14  O   UNL     1       4.306   4.782  19.443  0.00  0.00    +0.000 OA
ATOM     15  H   UNL     1       4.288   4.203  18.659  0.00  0.00    +0.000 HD
ENDBRANCH   9  14
BRANCH  10  16
ATOM     16  O   UNL     1       5.243   6.261  17.402  0.00  0.00    +0.000 OA
ATOM     17  C   UNL     1       5.116   5.566  16.169  0.00  0.00    +0.000 C 
ENDBRANCH  10  16
ENDBRANCH   4   6
BRANCH   1  18
ATOM     18  C   UNL     1       0.443  11.538  20.747  0.00  0.00    +0.000 C 
BRANCH  18  21
ATOM     19  C   UNL     1       2.373  14.828  21.278  0.00  0.00    +0.000 A 
ATOM     20  C   UNL     1       2.046  13.460  21.225  0.00  0.00    +0.000 A 
ATOM     21  C   UNL     1       0.841  13.013  20.664  0.00  0.00    +0.000 A 
ATOM     22  C   UNL     1      -0.023  13.977  20.121  0.00  0.00    +0.000 A 
ATOM     23  C   UNL     1       0.279  15.340  20.155  0.00  0.00    +0.000 A 
ATOM     24  C   UNL     1       1.475  15.765  20.747  0.00  0.00    +0.000 A 
BRANCH  19  26
ATOM     25  C   UNL     1       4.740  15.218  21.179  0.00  0.00    +0.000 C 
ATOM     26  O   UNL     1       3.550  15.068  21.941  0.00  0.00    +0.000 OA
ENDBRANCH  19  26
BRANCH  23  27
ATOM     27  O   UNL     1      -0.742  16.150  19.728  0.00  0.00    +0.000 OA
ATOM     28  C   UNL     1      -0.571  16.787  18.467  0.00  0.00    +0.000 C 
ENDBRANCH  23  27
BRANCH  24  29
ATOM     29  O   UNL     1       1.707  17.105  20.890  0.00  0.00    +0.000 OA
ATOM     30  H   UNL     1       2.166  17.377  20.080  0.00  0.00    +0.000 HD
ENDBRANCH  24  29
ENDBRANCH  18  21
BRANCH  18  31
ATOM     31  O   UNL     1       0.653  10.980  22.054  0.00  0.00    +0.000 OA
ATOM     32  C   UNL     1      -0.491  10.497  22.752  0.00  0.00    +0.000 C 
ENDBRANCH  18  31
ENDBRANCH   1  18
BRANCH   5  33
ATOM     33  C   UNL     1      -0.899  10.446  17.997  0.00  0.00    +0.000 C 
BRANCH  33  34
ATOM     34  O   UNL     1      -1.545   9.541  17.092  0.00  0.00    +0.000 OA
BRANCH  34  35
ATOM     35  C   UNL     1      -2.574  10.064  16.373  0.00  0.00    +0.000 C 
ATOM     36  C   UNL     1      -3.522  10.808  17.260  0.00  0.00    +0.000 C 
ATOM     37  O   UNL     1      -2.688   9.993  15.155  0.00  0.00    +0.000 OA
ENDBRANCH  34  35
ENDBRANCH  33  34
ENDBRANCH   5  33
TORSDOF 13
ENDMDL
MODEL 8
REMARK VINA RESULT:      -5.7      2.665      6.436
REMARK  Name = 
REMARK  19 active torsions:
REMARK  status: ('A' for Active; 'I' for Inactive)
REMARK    1  A    between atoms: C_1  and  O_2
REMARK    2  A    between atoms: O_2  and  C_3
REMARK    3  A    between atoms: C_5  and  C_6
REMARK    4  A    between atoms: C_6  and  O_7
REMARK    5  A    between atoms: C_6  and  C_9
REMARK    6  A    between atoms: O_7  and  C_8
REMARK    7  A    between atoms: C_12  and  C_13
REMARK    8  A    between atoms: C_15  and  O_16
REMARK    9  A    between atoms: O_16  and  C_17
REMARK   10  A    between atoms: C_18  and  O_19
REMARK   11  A    between atoms: C_20  and  O_21
REMARK   12  A    between atoms: O_21  and  C_22
REMARK   13  A    between atoms: C_24  and  C_25
REMARK   14  A    between atoms: C_25  and  O_26
REMARK   15  A    between atoms: O_26  and  C_27
REMARK   16  A    between atoms: C_27  and  C_28
REMARK   17  A    between atoms: C_31  and  O_32
REMARK   18  A    between atoms: O_32  and  C_33
REMARK   19  A    between atoms: C_34  and  O_35
REMARK                            x       y       z     vdW  Elec       q    Type
REMARK                         _______ _______ _______ _____ _____    ______ ____
ROOT
ATOM      1  C   UNL     1       0.742  10.199  19.994  0.00  0.00    +0.000 C 
ATOM      2  C   UNL     1       1.578  11.265  19.313  0.00  0.00    +0.000 C 
ATOM      3  O   UNL     1       2.033  10.663  18.081  0.00  0.00    +0.000 OA
ATOM      4  C   UNL     1       1.292   9.437  17.854  0.00  0.00    +0.000 C 
ATOM      5  C   UNL     1       0.073   9.527  18.794  0.00  0.00    +0.000 C 
ENDROOT
BRANCH   4   6
ATOM      6  C   UNL     1       2.145   8.201  18.144  0.00  0.00    +0.000 A 
ATOM      7  C   UNL     1       3.315   7.910  17.417  0.00  0.00    +0.000 A 
ATOM      8  C   UNL     1       4.138   6.847  17.787  0.00  0.00    +0.000 A 
ATOM      9  C   UNL     1       3.763   6.043  18.875  0.00  0.00    +0.000 A 
ATOM     10  C   UNL     1       2.586   6.279  19.591  0.00  0.00    +0.000 A 
ATOM     11  C   UNL     1       1.785   7.360  19.218  0.00  0.00    +0.000 A 
BRANCH   8  12
ATOM     12  O   UNL     1       5.325   6.499  17.194  0.00  0.00    +0.000 OA
ATOM     13  C   UNL     1       5.253   6.007  15.861  0.00  0.00    +0.000 C 
ENDBRANCH   8  12
BRANCH   9  14
ATOM     14  O   UNL     1       4.589   5.007  19.244  0.00  0.00    +0.000 OA
ATOM     15  H   UNL     1       5.393   5.432  19.593  0.00  0.00    +0.000 HD
ENDBRANCH   9  14
BRANCH  10  16
ATOM     16  O   UNL     1       2.322   5.426  20.629  0.00  0.00    +0.000 OA
ATOM     17  C   UNL     1       1.273   4.484  20.451  0.00  0.00    +0.000 C 
ENDBRANCH  10  16
ENDBRANCH   4   6
BRANCH   1  18
ATOM     18  C   UNL     1      -0.102  10.653  21.188  0.00  0.00    +0.000 C 
BRANCH  18  21
ATOM     19  C   UNL     1      -2.481  13.629  20.629  0.00  0.00    +0.000 A 
ATOM     20  C   UNL     1      -1.990  12.343  20.923  0.00  0.00    +0.000 A 
ATOM     21  C   UNL     1      -0.614  12.084  21.012  0.00  0.00    +0.000 A 
ATOM     22  C   UNL     1       0.265  13.162  20.832  0.00  0.00    +0.000 A 
ATOM     23  C   UNL     1      -0.195  14.450  20.547  0.00  0.00    +0.000 A 
ATOM     24  C   UNL     1      -1.571  14.678  20.433  0.00  0.00    +0.000 A 
BRANCH  19  26
ATOM     25  C   UNL     1      -4.637  13.805  21.671  0.00  0.00    +0.000 C 
ATOM     26  O   UNL     1      -3.846  13.659  20.499  0.00  0.00    +0.000 OA
ENDBRANCH  19  26
BRANCH  23  27
ATOM     27  O   UNL     1       0.800  15.344  20.245  0.00  0.00    +0.000 OA
ATOM     28  C   UNL     1       1.453  15.177  18.992  0.00  0.00    +0.000 C 
ENDBRANCH  23  27
BRANCH  24  29
ATOM     29  O   UNL     1      -2.010  15.909  20.029  0.00  0.00    +0.000 OA
ATOM     30  H   UNL     1      -1.739  15.989  19.101  0.00  0.00    +0.000 HD
ENDBRANCH  24  29
ENDBRANCH  18  21
BRANCH  18  31
ATOM     31  O   UNL     1       0.573  10.455  22.441  0.00  0.00    +0.000 OA
ATOM     32  C   UNL     1      -0.014   9.545  23.365  0.00  0.00    +0.000 C 
ENDBRANCH  18  31
ENDBRANCH   1  18
BRANCH   5  33
ATOM     33  C   UNL     1      -1.042  10.323  18.095  0.00  0.00    +0.000 C 
BRANCH  33  34
ATOM     34  O   UNL     1      -1.584   9.632  16.963  0.00  0.00    +0.000 OA
BRANCH  34  35
ATOM     35  C   UNL     1      -2.812  10.049  16.553  0.00  0.00    +0.000 C 
ATOM     36  C   UNL     1      -2.862  10.178  15.062  0.00  0.00    +0.000 C 
ATOM     37  O   UNL     1      -3.773  10.240  17.289  0.00  0.00    +0.000 OA
ENDBRANCH  34  35
ENDBRANCH  33  34
ENDBRANCH   5  33
TORSDOF 13
ENDMDL
MODEL 9
REMARK VINA RESULT:      -5.7      2.355      5.222
REMARK  Name = 
REMARK  19 active torsions:
REMARK  status: ('A' for Active; 'I' for Inactive)
REMARK    1  A    between atoms: C_1  and  O_2
REMARK    2  A    between atoms: O_2  and  C_3
REMARK    3  A    between atoms: C_5  and  C_6
REMARK    4  A    between atoms: C_6  and  O_7
REMARK    5  A    between atoms: C_6  and  C_9
REMARK    6  A    between atoms: O_7  and  C_8
REMARK    7  A    between atoms: C_12  and  C_13
REMARK    8  A    between atoms: C_15  and  O_16
REMARK    9  A    between atoms: O_16  and  C_17
REMARK   10  A    between atoms: C_18  and  O_19
REMARK   11  A    between atoms: C_20  and  O_21
REMARK   12  A    between atoms: O_21  and  C_22
REMARK   13  A    between atoms: C_24  and  C_25
REMARK   14  A    between atoms: C_25  and  O_26
REMARK   15  A    between atoms: O_26  and  C_27
REMARK   16  A    between atoms: C_27  and  C_28
REMARK   17  A    between atoms: C_31  and  O_32
REMARK   18  A    between atoms: O_32  and  C_33
REMARK   19  A    between atoms: C_34  and  O_35
REMARK                            x       y       z     vdW  Elec       q    Type
REMARK                         _______ _______ _______ _____ _____    ______ ____
ROOT
ATOM      1  C   UNL     1      -1.093  10.835  20.996  0.00  0.00    +0.000 C 
ATOM      2  C   UNL     1      -0.310   9.727  20.318  0.00  0.00    +0.000 C 
ATOM      3  O   UNL     1      -0.252  10.099  18.923  0.00  0.00    +0.000 OA
ATOM      4  C   UNL     1      -0.688  11.476  18.785  0.00  0.00    +0.000 C 
ATOM      5  C   UNL     1      -0.624  12.061  20.211  0.00  0.00    +0.000 C 
ENDROOT
BRANCH   4   6
ATOM      6  C   UNL     1      -2.096  11.566  18.196  0.00  0.00    +0.000 A 
ATOM      7  C   UNL     1      -2.379  11.186  16.870  0.00  0.00    +0.000 A 
ATOM      8  C   UNL     1      -3.693  11.160  16.402  0.00  0.00    +0.000 A 
ATOM      9  C   UNL     1      -4.730  11.556  17.261  0.00  0.00    +0.000 A 
ATOM     10  C   UNL     1      -4.478  11.978  18.570  0.00  0.00    +0.000 A 
ATOM     11  C   UNL     1      -3.158  11.979  19.027  0.00  0.00    +0.000 A 
BRANCH   8  12
ATOM     12  O   UNL     1      -4.098  10.759  15.154  0.00  0.00    +0.000 OA
ATOM     13  C   UNL     1      -3.137  10.073  14.360  0.00  0.00    +0.000 C 
ENDBRANCH   8  12
BRANCH   9  14
ATOM     14  O   UNL     1      -6.023  11.511  16.797  0.00  0.00    +0.000 OA
ATOM     15  H   UNL     1      -6.286  10.575  16.863  0.00  0.00    +0.000 HD
ENDBRANCH   9  14
BRANCH  10  16
ATOM     16  O   UNL     1      -5.568  12.345  19.313  0.00  0.00    +0.000 OA
ATOM     17  C   UNL     1      -5.686  13.716  19.668  0.00  0.00    +0.000 C 
ENDBRANCH  10  16
ENDBRANCH   4   6
BRANCH   1  18
ATOM     18  C   UNL     1      -1.068  10.849  22.527  0.00  0.00    +0.000 C 
BRANCH  18  21
ATOM     19  C   UNL     1      -1.745  14.321  24.049  0.00  0.00    +0.000 A 
ATOM     20  C   UNL     1      -1.115  13.241  23.402  0.00  0.00    +0.000 A 
ATOM     21  C   UNL     1      -1.808  12.061  23.097  0.00  0.00    +0.000 A 
ATOM     22  C   UNL     1      -3.171  12.001  23.428  0.00  0.00    +0.000 A 
ATOM     23  C   UNL     1      -3.823  13.060  24.063  0.00  0.00    +0.000 A 
ATOM     24  C   UNL     1      -3.103  14.216  24.385  0.00  0.00    +0.000 A 
BRANCH  19  26
ATOM     25  C   UNL     1      -0.722  15.738  25.694  0.00  0.00    +0.000 C 
ATOM     26  O   UNL     1      -0.880  15.346  24.338  0.00  0.00    +0.000 OA
ENDBRANCH  19  26
BRANCH  23  27
ATOM     27  O   UNL     1      -5.105  12.772  24.455  0.00  0.00    +0.000 OA
ATOM     28  C   UNL     1      -6.149  13.169  23.574  0.00  0.00    +0.000 C 
ENDBRANCH  23  27
BRANCH  24  29
ATOM     29  O   UNL     1      -3.712  15.197  25.118  0.00  0.00    +0.000 OA
ATOM     30  H   UNL     1      -3.845  14.816  26.000  0.00  0.00    +0.000 HD
ENDBRANCH  24  29
ENDBRANCH  18  21
BRANCH  18  31
ATOM     31  O   UNL     1       0.261  10.712  23.054  0.00  0.00    +0.000 OA
ATOM     32  C   UNL     1       0.666   9.417  23.483  0.00  0.00    +0.000 C 
ENDBRANCH  18  31
ENDBRANCH   1  18
BRANCH   5  33
ATOM     33  C   UNL     1       0.808  12.547  20.490  0.00  0.00    +0.000 C 
BRANCH  33  34
ATOM     34  O   UNL     1       1.149  13.716  19.733  0.00  0.00    +0.000 OA
BRANCH  34  35
ATOM     35  C   UNL     1       2.411  13.741  19.227  0.00  0.00    +0.000 C 
ATOM     36  C   UNL     1       2.585  12.694  18.172  0.00  0.00    +0.000 C 
ATOM     37  O   UNL     1       3.280  14.546  19.543  0.00  0.00    +0.000 OA
ENDBRANCH  34  35
ENDBRANCH  33  34
ENDBRANCH   5  33
TORSDOF 13
ENDMDL
