MODEL 1
REMARK VINA RESULT:      -4.4      0.000      0.000
REMARK  Name = 
REMARK  4 active torsions:
REMARK  status: ('A' for Active; 'I' for Inactive)
REMARK    1  A    between atoms: C_1  and  C_2
REMARK    2  A    between atoms: C_2  and  N_3
REMARK    3  A    between atoms: C_2  and  C_4
REMARK    4  A    between atoms: N_8  and  C_9
REMARK                            x       y       z     vdW  Elec       q    Type
REMARK                         _______ _______ _______ _____ _____    ______ ____
ROOT
ATOM      1  C   UNL     1       5.984   4.490  18.161  0.00  0.00    +0.000 A 
ATOM      2  N   UNL     1       5.513   4.139  19.345  0.00  0.00    +0.000 NA
ATOM      3  N   UNL     1       4.282   3.556  19.163  0.00  0.00    +0.000 NA
ATOM      4  C   UNL     1       4.034   3.547  17.876  0.00  0.00    +0.000 A 
ATOM      5  N   UNL     1       5.069   4.125  17.208  0.00  0.00    +0.000 N 
ATOM      6  C   UNL     1       5.168   4.297  15.784  0.00  0.00    +0.000 C 
ENDROOT
BRANCH   1   8
ATOM      7  C   UNL     1       7.737   6.061  19.005  0.00  0.00    +0.000 C 
ATOM      8  C   UNL     1       7.311   5.125  17.877  0.00  0.00    +0.000 C 
BRANCH   8   9
ATOM      9  N   UNL     1       8.319   4.077  17.671  0.00  0.00    +0.000 NA
ATOM     10  H   UNL     1       7.943   3.418  16.984  0.00  0.00    +0.000 HD
ATOM     11  H   UNL     1       8.422   3.537  18.528  0.00  0.00    +0.000 HD
ENDBRANCH   8   9
ENDBRANCH   1   8
TORSDOF 2
ENDMDL
MODEL 2
REMARK VINA RESULT:      -4.4      1.409      1.458
REMARK  Name = 
REMARK  4 active torsions:
REMARK  status: ('A' for Active; 'I' for Inactive)
REMARK    1  A    between atoms: C_1  and  C_2
REMARK    2  A    between atoms: C_2  and  N_3
REMARK    3  A    between atoms: C_2  and  C_4
REMARK    4  A    between atoms: N_8  and  C_9
REMARK                            x       y       z     vdW  Elec       q    Type
REMARK                         _______ _______ _______ _____ _____    ______ ____
ROOT
ATOM      1  C   UNL     1       6.384   5.071  18.482  0.00  0.00    +0.000 A 
ATOM      2  N   UNL     1       5.343   4.994  19.292  0.00  0.00    +0.000 NA
ATOM      3  N   UNL     1       4.305   4.410  18.605  0.00  0.00    +0.000 NA
ATOM      4  C   UNL     1       4.737   4.127  17.400  0.00  0.00    +0.000 A 
ATOM      5  N   UNL     1       6.032   4.526  17.275  0.00  0.00    +0.000 N 
ATOM      6  C   UNL     1       6.852   4.383  16.103  0.00  0.00    +0.000 C 
ENDROOT
BRANCH   1   8
ATOM      7  C   UNL     1       7.912   7.046  18.351  0.00  0.00    +0.000 C 
ATOM      8  C   UNL     1       7.744   5.602  18.819  0.00  0.00    +0.000 C 
BRANCH   8   9
ATOM      9  N   UNL     1       7.962   5.502  20.267  0.00  0.00    +0.000 NA
ATOM     10  H   UNL     1       7.347   4.766  20.622  0.00  0.00    +0.000 HD
ATOM     11  H   UNL     1       7.638   6.358  20.715  0.00  0.00    +0.000 HD
ENDBRANCH   8   9
ENDBRANCH   1   8
TORSDOF 2
ENDMDL
MODEL 3
REMARK VINA RESULT:      -4.4      3.381      4.597
REMARK  Name = 
REMARK  4 active torsions:
REMARK  status: ('A' for Active; 'I' for Inactive)
REMARK    1  A    between atoms: C_1  and  C_2
REMARK    2  A    between atoms: C_2  and  N_3
REMARK    3  A    between atoms: C_2  and  C_4
REMARK    4  A    between atoms: N_8  and  C_9
REMARK                            x       y       z     vdW  Elec       q    Type
REMARK                         _______ _______ _______ _____ _____    ______ ____
ROOT
ATOM      1  C   UNL     1       2.835   2.375  19.678  0.00  0.00    +0.000 A 
ATOM      2  N   UNL     1       3.543   2.371  20.793  0.00  0.00    +0.000 NA
ATOM      3  N   UNL     1       2.702   2.672  21.838  0.00  0.00    +0.000 NA
ATOM      4  C   UNL     1       1.500   2.837  21.344  0.00  0.00    +0.000 A 
ATOM      5  N   UNL     1       1.534   2.664  19.995  0.00  0.00    +0.000 N 
ATOM      6  C   UNL     1       0.412   2.759  19.100  0.00  0.00    +0.000 C 
ENDROOT
BRANCH   1   8
ATOM      7  C   UNL     1       4.173   3.205  17.735  0.00  0.00    +0.000 C 
ATOM      8  C   UNL     1       3.332   2.061  18.300  0.00  0.00    +0.000 C 
BRANCH   8   9
ATOM      9  N   UNL     1       4.112   0.818  18.333  0.00  0.00    +0.000 NA
ATOM     10  H   UNL     1       4.528   0.739  19.265  0.00  0.00    +0.000 HD
ATOM     11  H   UNL     1       4.903   0.901  17.696  0.00  0.00    +0.000 HD
ENDBRANCH   8   9
ENDBRANCH   1   8
TORSDOF 2
ENDMDL
MODEL 4
REMARK VINA RESULT:      -4.4      2.222      3.182
REMARK  Name = 
REMARK  4 active torsions:
REMARK  status: ('A' for Active; 'I' for Inactive)
REMARK    1  A    between atoms: C_1  and  C_2
REMARK    2  A    between atoms: C_2  and  N_3
REMARK    3  A    between atoms: C_2  and  C_4
REMARK    4  A    between atoms: N_8  and  C_9
REMARK                            x       y       z     vdW  Elec       q    Type
REMARK                         _______ _______ _______ _____ _____    ______ ____
ROOT
ATOM      1  C   UNL     1       6.741   5.597  16.342  0.00  0.00    +0.000 A 
ATOM      2  N   UNL     1       7.510   5.529  15.270  0.00  0.00    +0.000 NA
ATOM      3  N   UNL     1       6.974   4.599  14.412  0.00  0.00    +0.000 NA
ATOM      4  C   UNL     1       5.883   4.131  14.968  0.00  0.00    +0.000 A 
ATOM      5  N   UNL     1       5.698   4.723  16.179  0.00  0.00    +0.000 N 
ATOM      6  C   UNL     1       4.610   4.475  17.086  0.00  0.00    +0.000 C 
ENDROOT
BRANCH   1   8
ATOM      7  C   UNL     1       7.688   5.816  18.646  0.00  0.00    +0.000 C 
ATOM      8  C   UNL     1       6.921   6.506  17.519  0.00  0.00    +0.000 C 
BRANCH   8   9
ATOM      9  N   UNL     1       7.621   7.725  17.092  0.00  0.00    +0.000 NA
ATOM     10  H   UNL     1       8.097   8.110  17.912  0.00  0.00    +0.000 HD
ATOM     11  H   UNL     1       6.935   8.430  16.827  0.00  0.00    +0.000 HD
ENDBRANCH   8   9
ENDBRANCH   1   8
TORSDOF 2
ENDMDL
MODEL 5
REMARK VINA RESULT:      -4.4      1.102      1.102
REMARK  Name = 
REMARK  4 active torsions:
REMARK  status: ('A' for Active; 'I' for Inactive)
REMARK    1  A    between atoms: C_1  and  C_2
REMARK    2  A    between atoms: C_2  and  N_3
REMARK    3  A    between atoms: C_2  and  C_4
REMARK    4  A    between atoms: N_8  and  C_9
REMARK                            x       y       z     vdW  Elec       q    Type
REMARK                         _______ _______ _______ _____ _____    ______ ____
ROOT
ATOM      1  C   UNL     1       5.924   4.913  18.315  0.00  0.00    +0.000 A 
ATOM      2  N   UNL     1       5.571   3.950  19.148  0.00  0.00    +0.000 NA
ATOM      3  N   UNL     1       4.199   3.884  19.176  0.00  0.00    +0.000 NA
ATOM      4  C   UNL     1       3.742   4.793  18.350  0.00  0.00    +0.000 A 
ATOM      5  N   UNL     1       4.785   5.465  17.790  0.00  0.00    +0.000 N 
ATOM      6  C   UNL     1       4.687   6.531  16.830  0.00  0.00    +0.000 C 
ENDROOT
BRANCH   1   8
ATOM      7  C   UNL     1       7.975   6.140  19.048  0.00  0.00    +0.000 C 
ATOM      8  C   UNL     1       7.319   5.312  17.945  0.00  0.00    +0.000 C 
BRANCH   8   9
ATOM      9  N   UNL     1       8.113   4.110  17.663  0.00  0.00    +0.000 NA
ATOM     10  H   UNL     1       8.773   3.988  18.436  0.00  0.00    +0.000 HD
ATOM     11  H   UNL     1       8.694   4.275  16.843  0.00  0.00    +0.000 HD
ENDBRANCH   8   9
ENDBRANCH   1   8
TORSDOF 2
ENDMDL
MODEL 6
REMARK VINA RESULT:      -4.4      2.435      3.920
REMARK  Name = 
REMARK  4 active torsions:
REMARK  status: ('A' for Active; 'I' for Inactive)
REMARK    1  A    between atoms: C_1  and  C_2
REMARK    2  A    between atoms: C_2  and  N_3
REMARK    3  A    between atoms: C_2  and  C_4
REMARK    4  A    between atoms: N_8  and  C_9
REMARK                            x       y       z     vdW  Elec       q    Type
REMARK                         _______ _______ _______ _____ _____    ______ ____
ROOT
ATOM      1  C   UNL     1       6.170   5.540  16.086  0.00  0.00    +0.000 A 
ATOM      2  N   UNL     1       7.435   5.891  15.933  0.00  0.00    +0.000 NA
ATOM      3  N   UNL     1       7.670   7.003  16.706  0.00  0.00    +0.000 NA
ATOM      4  C   UNL     1       6.554   7.298  17.326  0.00  0.00    +0.000 A 
ATOM      5  N   UNL     1       5.585   6.412  16.966  0.00  0.00    +0.000 N 
ATOM      6  C   UNL     1       4.228   6.405  17.439  0.00  0.00    +0.000 C 
ENDROOT
BRANCH   1   8
ATOM      7  C   UNL     1       6.043   4.062  14.074  0.00  0.00    +0.000 C 
ATOM      8  C   UNL     1       5.485   4.362  15.463  0.00  0.00    +0.000 C 
BRANCH   8   9
ATOM      9  N   UNL     1       5.631   3.193  16.340  0.00  0.00    +0.000 NA
ATOM     10  H   UNL     1       6.626   3.091  16.555  0.00  0.00    +0.000 HD
ATOM     11  H   UNL     1       5.384   2.352  15.820  0.00  0.00    +0.000 HD
ENDBRANCH   8   9
ENDBRANCH   1   8
TORSDOF 2
ENDMDL
MODEL 7
REMARK VINA RESULT:      -4.4      2.875      3.861
REMARK  Name = 
REMARK  4 active torsions:
REMARK  status: ('A' for Active; 'I' for Inactive)
REMARK    1  A    between atoms: C_1  and  C_2
REMARK    2  A    between atoms: C_2  and  N_3
REMARK    3  A    between atoms: C_2  and  C_4
REMARK    4  A    between atoms: N_8  and  C_9
REMARK                            x       y       z     vdW  Elec       q    Type
REMARK                         _______ _______ _______ _____ _____    ______ ____
ROOT
ATOM      1  C   UNL     1       2.969   3.152  19.899  0.00  0.00    +0.000 A 
ATOM      2  N   UNL     1       2.682   2.834  21.149  0.00  0.00    +0.000 NA
ATOM      3  N   UNL     1       1.351   3.099  21.368  0.00  0.00    +0.000 NA
ATOM      4  C   UNL     1       0.850   3.556  20.246  0.00  0.00    +0.000 A 
ATOM      5  N   UNL     1       1.825   3.611  19.299  0.00  0.00    +0.000 N 
ATOM      6  C   UNL     1       1.663   4.054  17.942  0.00  0.00    +0.000 C 
ENDROOT
BRANCH   1   8
ATOM      7  C   UNL     1       5.070   4.305  19.190  0.00  0.00    +0.000 C 
ATOM      8  C   UNL     1       4.291   2.992  19.214  0.00  0.00    +0.000 C 
BRANCH   8   9
ATOM      9  N   UNL     1       5.068   1.946  19.891  0.00  0.00    +0.000 NA
ATOM     10  H   UNL     1       4.569   1.696  20.748  0.00  0.00    +0.000 HD
ATOM     11  H   UNL     1       5.955   2.337  20.204  0.00  0.00    +0.000 HD
ENDBRANCH   8   9
ENDBRANCH   1   8
TORSDOF 2
ENDMDL
MODEL 8
REMARK VINA RESULT:      -4.3      1.920      2.041
REMARK  Name = 
REMARK  4 active torsions:
REMARK  status: ('A' for Active; 'I' for Inactive)
REMARK    1  A    between atoms: C_1  and  C_2
REMARK    2  A    between atoms: C_2  and  N_3
REMARK    3  A    between atoms: C_2  and  C_4
REMARK    4  A    between atoms: N_8  and  C_9
REMARK                            x       y       z     vdW  Elec       q    Type
REMARK                         _______ _______ _______ _____ _____    ______ ____
ROOT
ATOM      1  C   UNL     1       6.055   5.654  17.993  0.00  0.00    +0.000 A 
ATOM      2  N   UNL     1       6.617   4.625  18.603  0.00  0.00    +0.000 NA
ATOM      3  N   UNL     1       5.650   3.972  19.329  0.00  0.00    +0.000 NA
ATOM      4  C   UNL     1       4.517   4.602  19.135  0.00  0.00    +0.000 A 
ATOM      5  N   UNL     1       4.721   5.664  18.309  0.00  0.00    +0.000 N 
ATOM      6  C   UNL     1       3.720   6.592  17.860  0.00  0.00    +0.000 C 
ENDROOT
BRANCH   1   8
ATOM      7  C   UNL     1       7.730   7.501  17.804  0.00  0.00    +0.000 C 
ATOM      8  C   UNL     1       6.723   6.620  17.065  0.00  0.00    +0.000 C 
BRANCH   8   9
ATOM      9  N   UNL     1       7.385   5.881  15.983  0.00  0.00    +0.000 NA
ATOM     10  H   UNL     1       8.070   5.254  16.412  0.00  0.00    +0.000 HD
ATOM     11  H   UNL     1       7.934   6.529  15.420  0.00  0.00    +0.000 HD
ENDBRANCH   8   9
ENDBRANCH   1   8
TORSDOF 2
ENDMDL
MODEL 9
REMARK VINA RESULT:      -4.3      2.410      3.811
REMARK  Name = 
REMARK  4 active torsions:
REMARK  status: ('A' for Active; 'I' for Inactive)
REMARK    1  A    between atoms: C_1  and  C_2
REMARK    2  A    between atoms: C_2  and  N_3
REMARK    3  A    between atoms: C_2  and  C_4
REMARK    4  A    between atoms: N_8  and  C_9
REMARK                            x       y       z     vdW  Elec       q    Type
REMARK                         _______ _______ _______ _____ _____    ______ ____
ROOT
ATOM      1  C   UNL     1       6.280   5.421  15.686  0.00  0.00    +0.000 A 
ATOM      2  N   UNL     1       5.293   6.275  15.480  0.00  0.00    +0.000 NA
ATOM      3  N   UNL     1       4.930   6.815  16.691  0.00  0.00    +0.000 NA
ATOM      4  C   UNL     1       5.711   6.295  17.606  0.00  0.00    +0.000 A 
ATOM      5  N   UNL     1       6.570   5.413  17.026  0.00  0.00    +0.000 N 
ATOM      6  C   UNL     1       7.581   4.647  17.702  0.00  0.00    +0.000 C 
ENDROOT
BRANCH   1   8
ATOM      7  C   UNL     1       6.046   3.902  13.714  0.00  0.00    +0.000 C 
ATOM      8  C   UNL     1       7.013   4.630  14.647  0.00  0.00    +0.000 C 
BRANCH   8   9
ATOM      9  N   UNL     1       7.891   5.524  13.881  0.00  0.00    +0.000 NA
ATOM     10  H   UNL     1       7.912   6.424  14.367  0.00  0.00    +0.000 HD
ATOM     11  H   UNL     1       7.464   5.719  12.977  0.00  0.00    +0.000 HD
ENDBRANCH   8   9
ENDBRANCH   1   8
TORSDOF 2
ENDMDL
