MODEL 1
REMARK VINA RESULT:      -8.6      0.000      0.000
REMARK  Name = 
REMARK  2 active torsions:
REMARK  status: ('A' for Active; 'I' for Inactive)
REMARK    1  A    between atoms: C_2  and  C_4
REMARK    2  A    between atoms: N_6  and  C_7
REMARK                            x       y       z     vdW  Elec       q    Type
REMARK                         _______ _______ _______ _____ _____    ______ ____
ROOT
ATOM      1  C   UNL     1       5.636   5.915  16.979  0.00  0.00    +0.000 A 
ATOM      2  C   UNL     1       4.676   6.710  17.477  0.00  0.00    +0.000 A 
ATOM      3  N   UNL     1       3.419   6.344  17.971  0.00  0.00    +0.000 N 
ATOM      4  C   UNL     1       3.103   4.933  17.953  0.00  0.00    +0.000 A 
ATOM      5  C   UNL     1       1.926   4.391  18.495  0.00  0.00    +0.000 A 
ATOM      6  C   UNL     1       1.657   3.018  18.440  0.00  0.00    +0.000 A 
ATOM      7 CL   UNL     1       0.169   2.417  19.067  0.00  0.00    +0.000 Cl
ATOM      8  C   UNL     1       2.574   2.133  17.891  0.00  0.00    +0.000 A 
ATOM      9  C   UNL     1       3.769   2.629  17.384  0.00  0.00    +0.000 A 
ATOM     10  C   UNL     1       4.029   4.012  17.411  0.00  0.00    +0.000 A 
ATOM     11  C   UNL     1       5.334   4.473  16.891  0.00  0.00    +0.000 A 
ATOM     12  O   UNL     1       6.132   3.673  16.409  0.00  0.00    +0.000 OA
ENDROOT
BRANCH   3  13
ATOM     13  C   UNL     1       2.572   7.378  18.523  0.00  0.00    +0.000 A 
ATOM     14  C   UNL     1       2.164   7.376  19.868  0.00  0.00    +0.000 A 
ATOM     15  C   UNL     1       1.426   8.437  20.408  0.00  0.00    +0.000 A 
ATOM     16  C   UNL     1       1.019   9.478  19.587  0.00  0.00    +0.000 A 
ATOM     17  F   UNL     1       0.310  10.491  20.102  0.00  0.00    +0.000 F 
ATOM     18  C   UNL     1       1.333   9.478  18.238  0.00  0.00    +0.000 A 
ATOM     19  C   UNL     1       2.113   8.442  17.712  0.00  0.00    +0.000 A 
ENDBRANCH   3  13
BRANCH   1  21
ATOM     20  N   UNL     1       7.599   5.886  15.568  0.00  0.00    +0.000 N 
ATOM     21  C   UNL     1       6.928   6.524  16.563  0.00  0.00    +0.000 C 
ATOM     22  O   UNL     1       7.390   7.531  17.089  0.00  0.00    +0.000 OA
ATOM     23  H   UNL     1       8.495   6.244  15.265  0.00  0.00    +0.000 HD
ATOM     24  H   UNL     1       7.237   5.035  15.140  0.00  0.00    +0.000 HD
ENDBRANCH   1  21
TORSDOF 2
ENDMDL
MODEL 2
REMARK VINA RESULT:      -8.6      0.091      1.030
REMARK  Name = 
REMARK  2 active torsions:
REMARK  status: ('A' for Active; 'I' for Inactive)
REMARK    1  A    between atoms: C_2  and  C_4
REMARK    2  A    between atoms: N_6  and  C_7
REMARK                            x       y       z     vdW  Elec       q    Type
REMARK                         _______ _______ _______ _____ _____    ______ ____
ROOT
ATOM      1  C   UNL     1       5.651   5.915  16.952  0.00  0.00    +0.000 A 
ATOM      2  C   UNL     1       4.705   6.725  17.451  0.00  0.00    +0.000 A 
ATOM      3  N   UNL     1       3.446   6.379  17.954  0.00  0.00    +0.000 N 
ATOM      4  C   UNL     1       3.111   4.972  17.945  0.00  0.00    +0.000 A 
ATOM      5  C   UNL     1       1.930   4.448  18.498  0.00  0.00    +0.000 A 
ATOM      6  C   UNL     1       1.643   3.079  18.452  0.00  0.00    +0.000 A 
ATOM      7 CL   UNL     1       0.151   2.501  19.090  0.00  0.00    +0.000 Cl
ATOM      8  C   UNL     1       2.545   2.179  17.902  0.00  0.00    +0.000 A 
ATOM      9  C   UNL     1       3.743   2.656  17.386  0.00  0.00    +0.000 A 
ATOM     10  C   UNL     1       4.022   4.035  17.404  0.00  0.00    +0.000 A 
ATOM     11  C   UNL     1       5.330   4.476  16.874  0.00  0.00    +0.000 A 
ATOM     12  O   UNL     1       6.114   3.663  16.392  0.00  0.00    +0.000 OA
ENDROOT
BRANCH   3  13
ATOM     13  C   UNL     1       2.616   7.427  18.506  0.00  0.00    +0.000 A 
ATOM     14  C   UNL     1       2.160   8.508  17.732  0.00  0.00    +0.000 A 
ATOM     15  C   UNL     1       1.278   9.460  18.258  0.00  0.00    +0.000 A 
ATOM     16  C   UNL     1       0.902   9.386  19.591  0.00  0.00    +0.000 A 
ATOM     17  F   UNL     1       0.061  10.298  20.095  0.00  0.00    +0.000 F 
ATOM     18  C   UNL     1       1.393   8.381  20.408  0.00  0.00    +0.000 A 
ATOM     19  C   UNL     1       2.234   7.402  19.867  0.00  0.00    +0.000 A 
ENDBRANCH   3  13
BRANCH   1  21
ATOM     20  N   UNL     1       7.601   5.858  15.523  0.00  0.00    +0.000 N 
ATOM     21  C   UNL     1       6.949   6.504  16.525  0.00  0.00    +0.000 C 
ATOM     22  O   UNL     1       7.432   7.503  17.049  0.00  0.00    +0.000 OA
ATOM     23  H   UNL     1       8.499   6.203  15.213  0.00  0.00    +0.000 HD
ATOM     24  H   UNL     1       7.222   5.014  15.097  0.00  0.00    +0.000 HD
ENDBRANCH   1  21
TORSDOF 2
ENDMDL
MODEL 3
REMARK VINA RESULT:      -8.3      1.366      1.366
REMARK  Name = 
REMARK  2 active torsions:
REMARK  status: ('A' for Active; 'I' for Inactive)
REMARK    1  A    between atoms: C_2  and  C_4
REMARK    2  A    between atoms: N_6  and  C_7
REMARK                            x       y       z     vdW  Elec       q    Type
REMARK                         _______ _______ _______ _____ _____    ______ ____
ROOT
ATOM      1  C   UNL     1       5.728   6.170  17.696  0.00  0.00    +0.000 A 
ATOM      2  C   UNL     1       4.648   6.922  17.957  0.00  0.00    +0.000 A 
ATOM      3  N   UNL     1       3.504   6.573  18.684  0.00  0.00    +0.000 N 
ATOM      4  C   UNL     1       3.472   5.235  19.234  0.00  0.00    +0.000 A 
ATOM      5  C   UNL     1       2.444   4.759  20.064  0.00  0.00    +0.000 A 
ATOM      6  C   UNL     1       2.449   3.450  20.561  0.00  0.00    +0.000 A 
ATOM      7 CL   UNL     1       1.131   2.901  21.524  0.00  0.00    +0.000 Cl
ATOM      8  C   UNL     1       3.504   2.589  20.291  0.00  0.00    +0.000 A 
ATOM      9  C   UNL     1       4.560   3.040  19.510  0.00  0.00    +0.000 A 
ATOM     10  C   UNL     1       4.543   4.346  18.984  0.00  0.00    +0.000 A 
ATOM     11  C   UNL     1       5.714   4.780  18.191  0.00  0.00    +0.000 A 
ATOM     12  O   UNL     1       6.636   4.002  17.965  0.00  0.00    +0.000 OA
ENDROOT
BRANCH   3  13
ATOM     13  C   UNL     1       2.490   7.582  18.892  0.00  0.00    +0.000 A 
ATOM     14  C   UNL     1       1.909   7.814  20.151  0.00  0.00    +0.000 A 
ATOM     15  C   UNL     1       1.000   8.860  20.353  0.00  0.00    +0.000 A 
ATOM     16  C   UNL     1       0.600   9.640  19.279  0.00  0.00    +0.000 A 
ATOM     17  F   UNL     1      -0.271  10.638  19.471  0.00  0.00    +0.000 F 
ATOM     18  C   UNL     1       1.090   9.392  18.006  0.00  0.00    +0.000 A 
ATOM     19  C   UNL     1       2.036   8.379  17.816  0.00  0.00    +0.000 A 
ENDBRANCH   3  13
BRANCH   1  21
ATOM     20  N   UNL     1       7.411   6.009  15.966  0.00  0.00    +0.000 N 
ATOM     21  C   UNL     1       6.860   6.776  16.944  0.00  0.00    +0.000 C 
ATOM     22  O   UNL     1       7.302   7.893  17.191  0.00  0.00    +0.000 OA
ATOM     23  H   UNL     1       8.199   6.363  15.443  0.00  0.00    +0.000 HD
ATOM     24  H   UNL     1       7.069   5.070  15.768  0.00  0.00    +0.000 HD
ENDBRANCH   1  21
TORSDOF 2
ENDMDL
MODEL 4
REMARK VINA RESULT:      -8.1      1.352      1.690
REMARK  Name = 
REMARK  2 active torsions:
REMARK  status: ('A' for Active; 'I' for Inactive)
REMARK    1  A    between atoms: C_2  and  C_4
REMARK    2  A    between atoms: N_6  and  C_7
REMARK                            x       y       z     vdW  Elec       q    Type
REMARK                         _______ _______ _______ _____ _____    ______ ____
ROOT
ATOM      1  C   UNL     1       5.745   6.192  17.664  0.00  0.00    +0.000 A 
ATOM      2  C   UNL     1       4.672   6.955  17.922  0.00  0.00    +0.000 A 
ATOM      3  N   UNL     1       3.523   6.617  18.646  0.00  0.00    +0.000 N 
ATOM      4  C   UNL     1       3.475   5.279  19.194  0.00  0.00    +0.000 A 
ATOM      5  C   UNL     1       2.440   4.813  20.021  0.00  0.00    +0.000 A 
ATOM      6  C   UNL     1       2.429   3.503  20.516  0.00  0.00    +0.000 A 
ATOM      7 CL   UNL     1       1.103   2.967  21.475  0.00  0.00    +0.000 Cl
ATOM      8  C   UNL     1       3.476   2.631  20.249  0.00  0.00    +0.000 A 
ATOM      9  C   UNL     1       4.539   3.073  19.471  0.00  0.00    +0.000 A 
ATOM     10  C   UNL     1       4.537   4.379  18.947  0.00  0.00    +0.000 A 
ATOM     11  C   UNL     1       5.715   4.802  18.158  0.00  0.00    +0.000 A 
ATOM     12  O   UNL     1       6.630   4.015  17.934  0.00  0.00    +0.000 OA
ENDROOT
BRANCH   3  13
ATOM     13  C   UNL     1       2.517   7.636  18.852  0.00  0.00    +0.000 A 
ATOM     14  C   UNL     1       2.056   8.457  17.809  0.00  0.00    +0.000 A 
ATOM     15  C   UNL     1       1.013   9.370  18.006  0.00  0.00    +0.000 A 
ATOM     16  C   UNL     1       0.471   9.530  19.272  0.00  0.00    +0.000 A 
ATOM     17  F   UNL     1      -0.524  10.406  19.463  0.00  0.00    +0.000 F 
ATOM     18  C   UNL     1       0.952   8.796  20.344  0.00  0.00    +0.000 A 
ATOM     19  C   UNL     1       1.960   7.848  20.134  0.00  0.00    +0.000 A 
ENDBRANCH   3  13
BRANCH   1  21
ATOM     20  N   UNL     1       7.425   6.020  15.932  0.00  0.00    +0.000 N 
ATOM     21  C   UNL     1       6.886   6.787  16.917  0.00  0.00    +0.000 C 
ATOM     22  O   UNL     1       7.344   7.896  17.172  0.00  0.00    +0.000 OA
ATOM     23  H   UNL     1       8.218   6.367  15.411  0.00  0.00    +0.000 HD
ATOM     24  H   UNL     1       7.068   5.087  15.727  0.00  0.00    +0.000 HD
ENDBRANCH   1  21
TORSDOF 2
ENDMDL
MODEL 5
REMARK VINA RESULT:      -8.0      2.833      4.468
REMARK  Name = 
REMARK  2 active torsions:
REMARK  status: ('A' for Active; 'I' for Inactive)
REMARK    1  A    between atoms: C_2  and  C_4
REMARK    2  A    between atoms: N_6  and  C_7
REMARK                            x       y       z     vdW  Elec       q    Type
REMARK                         _______ _______ _______ _____ _____    ______ ____
ROOT
ATOM      1  C   UNL     1       2.503   3.666  18.343  0.00  0.00    +0.000 A 
ATOM      2  C   UNL     1       2.163   4.939  18.600  0.00  0.00    +0.000 A 
ATOM      3  N   UNL     1       2.965   6.083  18.514  0.00  0.00    +0.000 N 
ATOM      4  C   UNL     1       4.334   5.883  18.092  0.00  0.00    +0.000 A 
ATOM      5  C   UNL     1       5.240   6.931  17.865  0.00  0.00    +0.000 A 
ATOM      6  C   UNL     1       6.562   6.687  17.470  0.00  0.00    +0.000 A 
ATOM      7 CL   UNL     1       7.647   8.009  17.267  0.00  0.00    +0.000 Cl
ATOM      8  C   UNL     1       7.009   5.394  17.237  0.00  0.00    +0.000 A 
ATOM      9  C   UNL     1       6.126   4.335  17.408  0.00  0.00    +0.000 A 
ATOM     10  C   UNL     1       4.806   4.575  17.834  0.00  0.00    +0.000 A 
ATOM     11  C   UNL     1       3.905   3.409  17.961  0.00  0.00    +0.000 A 
ATOM     12  O   UNL     1       4.321   2.274  17.749  0.00  0.00    +0.000 OA
ENDROOT
BRANCH   3  13
ATOM     13  C   UNL     1       2.356   7.368  18.778  0.00  0.00    +0.000 A 
ATOM     14  C   UNL     1       2.191   8.340  17.777  0.00  0.00    +0.000 A 
ATOM     15  C   UNL     1       1.512   9.538  18.028  0.00  0.00    +0.000 A 
ATOM     16  C   UNL     1       1.056   9.814  19.309  0.00  0.00    +0.000 A 
ATOM     17  F   UNL     1       0.409  10.961  19.551  0.00  0.00    +0.000 F 
ATOM     18  C   UNL     1       1.269   8.916  20.342  0.00  0.00    +0.000 A 
ATOM     19  C   UNL     1       1.904   7.697  20.077  0.00  0.00    +0.000 A 
ENDBRANCH   3  13
BRANCH   1  21
ATOM     20  N   UNL     1       1.888   1.378  18.827  0.00  0.00    +0.000 N 
ATOM     21  C   UNL     1       1.460   2.611  18.447  0.00  0.00    +0.000 C 
ATOM     22  O   UNL     1       0.278   2.814  18.188  0.00  0.00    +0.000 OA
ATOM     23  H   UNL     1       1.224   0.619  18.888  0.00  0.00    +0.000 HD
ATOM     24  H   UNL     1       2.871   1.191  19.021  0.00  0.00    +0.000 HD
ENDBRANCH   1  21
TORSDOF 2
ENDMDL
MODEL 6
REMARK VINA RESULT:      -7.9      1.383      1.397
REMARK  Name = 
REMARK  2 active torsions:
REMARK  status: ('A' for Active; 'I' for Inactive)
REMARK    1  A    between atoms: C_2  and  C_4
REMARK    2  A    between atoms: N_6  and  C_7
REMARK                            x       y       z     vdW  Elec       q    Type
REMARK                         _______ _______ _______ _____ _____    ______ ____
ROOT
ATOM      1  C   UNL     1       4.729   5.730  16.837  0.00  0.00    +0.000 A 
ATOM      2  C   UNL     1       3.899   6.573  17.471  0.00  0.00    +0.000 A 
ATOM      3  N   UNL     1       3.012   6.291  18.517  0.00  0.00    +0.000 N 
ATOM      4  C   UNL     1       2.980   4.923  18.987  0.00  0.00    +0.000 A 
ATOM      5  C   UNL     1       2.218   4.495  20.086  0.00  0.00    +0.000 A 
ATOM      6  C   UNL     1       2.208   3.156  20.495  0.00  0.00    +0.000 A 
ATOM      7 CL   UNL     1       1.206   2.676  21.811  0.00  0.00    +0.000 Cl
ATOM      8  C   UNL     1       2.997   2.209  19.856  0.00  0.00    +0.000 A 
ATOM      9  C   UNL     1       3.798   2.606  18.793  0.00  0.00    +0.000 A 
ATOM     10  C   UNL     1       3.787   3.946  18.360  0.00  0.00    +0.000 A 
ATOM     11  C   UNL     1       4.690   4.313  17.248  0.00  0.00    +0.000 A 
ATOM     12  O   UNL     1       5.380   3.460  16.697  0.00  0.00    +0.000 OA
ENDROOT
BRANCH   3  13
ATOM     13  C   UNL     1       2.260   7.385  19.091  0.00  0.00    +0.000 A 
ATOM     14  C   UNL     1       1.866   7.399  20.440  0.00  0.00    +0.000 A 
ATOM     15  C   UNL     1       1.225   8.510  21.001  0.00  0.00    +0.000 A 
ATOM     16  C   UNL     1       0.898   9.592  20.198  0.00  0.00    +0.000 A 
ATOM     17  F   UNL     1       0.282  10.654  20.734  0.00  0.00    +0.000 F 
ATOM     18  C   UNL     1       1.198   9.584  18.846  0.00  0.00    +0.000 A 
ATOM     19  C   UNL     1       1.884   8.494  18.298  0.00  0.00    +0.000 A 
ENDBRANCH   3  13
BRANCH   1  21
ATOM     20  N   UNL     1       6.952   5.978  15.919  0.00  0.00    +0.000 N 
ATOM     21  C   UNL     1       5.631   6.269  15.784  0.00  0.00    +0.000 C 
ATOM     22  O   UNL     1       5.230   6.956  14.851  0.00  0.00    +0.000 OA
ATOM     23  H   UNL     1       7.611   6.342  15.244  0.00  0.00    +0.000 HD
ATOM     24  H   UNL     1       7.300   5.429  16.703  0.00  0.00    +0.000 HD
ENDBRANCH   1  21
TORSDOF 2
ENDMDL
MODEL 7
REMARK VINA RESULT:      -7.8      1.390      1.746
REMARK  Name = 
REMARK  2 active torsions:
REMARK  status: ('A' for Active; 'I' for Inactive)
REMARK    1  A    between atoms: C_2  and  C_4
REMARK    2  A    between atoms: N_6  and  C_7
REMARK                            x       y       z     vdW  Elec       q    Type
REMARK                         _______ _______ _______ _____ _____    ______ ____
ROOT
ATOM      1  C   UNL     1       4.658   5.754  16.808  0.00  0.00    +0.000 A 
ATOM      2  C   UNL     1       3.860   6.604  17.473  0.00  0.00    +0.000 A 
ATOM      3  N   UNL     1       2.986   6.325  18.529  0.00  0.00    +0.000 N 
ATOM      4  C   UNL     1       2.929   4.950  18.974  0.00  0.00    +0.000 A 
ATOM      5  C   UNL     1       2.176   4.519  20.079  0.00  0.00    +0.000 A 
ATOM      6  C   UNL     1       2.140   3.173  20.462  0.00  0.00    +0.000 A 
ATOM      7 CL   UNL     1       1.151   2.693  21.788  0.00  0.00    +0.000 Cl
ATOM      8  C   UNL     1       2.893   2.219  19.791  0.00  0.00    +0.000 A 
ATOM      9  C   UNL     1       3.684   2.617  18.721  0.00  0.00    +0.000 A 
ATOM     10  C   UNL     1       3.699   3.964  18.314  0.00  0.00    +0.000 A 
ATOM     11  C   UNL     1       4.591   4.331  17.192  0.00  0.00    +0.000 A 
ATOM     12  O   UNL     1       5.249   3.472  16.613  0.00  0.00    +0.000 OA
ENDROOT
BRANCH   3  13
ATOM     13  C   UNL     1       2.272   7.426  19.138  0.00  0.00    +0.000 A 
ATOM     14  C   UNL     1       1.906   8.574  18.415  0.00  0.00    +0.000 A 
ATOM     15  C   UNL     1       1.131   9.585  18.995  0.00  0.00    +0.000 A 
ATOM     16  C   UNL     1       0.777   9.496  20.333  0.00  0.00    +0.000 A 
ATOM     17  F   UNL     1       0.037  10.464  20.890  0.00  0.00    +0.000 F 
ATOM     18  C   UNL     1       1.185   8.418  21.102  0.00  0.00    +0.000 A 
ATOM     19  C   UNL     1       1.917   7.385  20.506  0.00  0.00    +0.000 A 
ENDBRANCH   3  13
BRANCH   1  21
ATOM     20  N   UNL     1       6.857   5.911  15.815  0.00  0.00    +0.000 N 
ATOM     21  C   UNL     1       5.554   6.290  15.748  0.00  0.00    +0.000 C 
ATOM     22  O   UNL     1       5.164   7.051  14.868  0.00  0.00    +0.000 OA
ATOM     23  H   UNL     1       7.513   6.268  15.134  0.00  0.00    +0.000 HD
ATOM     24  H   UNL     1       7.198   5.299  16.556  0.00  0.00    +0.000 HD
ENDBRANCH   1  21
TORSDOF 2
ENDMDL
MODEL 8
REMARK VINA RESULT:      -7.8      2.838      4.355
REMARK  Name = 
REMARK  2 active torsions:
REMARK  status: ('A' for Active; 'I' for Inactive)
REMARK    1  A    between atoms: C_2  and  C_4
REMARK    2  A    between atoms: N_6  and  C_7
REMARK                            x       y       z     vdW  Elec       q    Type
REMARK                         _______ _______ _______ _____ _____    ______ ____
ROOT
ATOM      1  C   UNL     1       2.507   3.671  18.356  0.00  0.00    +0.000 A 
ATOM      2  C   UNL     1       2.149   4.938  18.614  0.00  0.00    +0.000 A 
ATOM      3  N   UNL     1       2.935   6.094  18.531  0.00  0.00    +0.000 N 
ATOM      4  C   UNL     1       4.307   5.913  18.111  0.00  0.00    +0.000 A 
ATOM      5  C   UNL     1       5.199   6.975  17.888  0.00  0.00    +0.000 A 
ATOM      6  C   UNL     1       6.525   6.749  17.496  0.00  0.00    +0.000 A 
ATOM      7 CL   UNL     1       7.591   8.087  17.297  0.00  0.00    +0.000 Cl
ATOM      8  C   UNL     1       6.990   5.463  17.263  0.00  0.00    +0.000 A 
ATOM      9  C   UNL     1       6.122   4.391  17.431  0.00  0.00    +0.000 A 
ATOM     10  C   UNL     1       4.798   4.613  17.854  0.00  0.00    +0.000 A 
ATOM     11  C   UNL     1       3.913   3.434  17.977  0.00  0.00    +0.000 A 
ATOM     12  O   UNL     1       4.345   2.305  17.766  0.00  0.00    +0.000 OA
ENDROOT
BRANCH   3  13
ATOM     13  C   UNL     1       2.307   7.370  18.794  0.00  0.00    +0.000 A 
ATOM     14  C   UNL     1       1.844   7.729  20.072  0.00  0.00    +0.000 A 
ATOM     15  C   UNL     1       1.329   9.005  20.329  0.00  0.00    +0.000 A 
ATOM     16  C   UNL     1       1.197   9.915  19.290  0.00  0.00    +0.000 A 
ATOM     17  F   UNL     1       0.701  11.134  19.534  0.00  0.00    +0.000 F 
ATOM     18  C   UNL     1       1.568   9.571  18.000  0.00  0.00    +0.000 A 
ATOM     19  C   UNL     1       2.130   8.313  17.756  0.00  0.00    +0.000 A 
ENDBRANCH   3  13
BRANCH   1  21
ATOM     20  N   UNL     1       1.925   1.371  18.825  0.00  0.00    +0.000 N 
ATOM     21  C   UNL     1       1.478   2.601  18.456  0.00  0.00    +0.000 C 
ATOM     22  O   UNL     1       0.293   2.789  18.204  0.00  0.00    +0.000 OA
ATOM     23  H   UNL     1       1.271   0.602  18.883  0.00  0.00    +0.000 HD
ATOM     24  H   UNL     1       2.911   1.196  19.014  0.00  0.00    +0.000 HD
ENDBRANCH   1  21
TORSDOF 2
ENDMDL
MODEL 9
REMARK VINA RESULT:      -7.6      3.968      6.073
REMARK  Name = 
REMARK  2 active torsions:
REMARK  status: ('A' for Active; 'I' for Inactive)
REMARK    1  A    between atoms: C_2  and  C_4
REMARK    2  A    between atoms: N_6  and  C_7
REMARK                            x       y       z     vdW  Elec       q    Type
REMARK                         _______ _______ _______ _____ _____    ______ ____
ROOT
ATOM      1  C   UNL     1       4.367   2.849  19.706  0.00  0.00    +0.000 A 
ATOM      2  C   UNL     1       4.907   3.239  18.541  0.00  0.00    +0.000 A 
ATOM      3  N   UNL     1       4.672   4.422  17.831  0.00  0.00    +0.000 N 
ATOM      4  C   UNL     1       3.734   5.352  18.419  0.00  0.00    +0.000 A 
ATOM      5  C   UNL     1       3.457   6.621  17.884  0.00  0.00    +0.000 A 
ATOM      6  C   UNL     1       2.529   7.483  18.481  0.00  0.00    +0.000 A 
ATOM      7 CL   UNL     1       2.184   9.002  17.747  0.00  0.00    +0.000 Cl
ATOM      8  C   UNL     1       1.884   7.131  19.659  0.00  0.00    +0.000 A 
ATOM      9  C   UNL     1       2.167   5.902  20.240  0.00  0.00    +0.000 A 
ATOM     10  C   UNL     1       3.077   5.021  19.626  0.00  0.00    +0.000 A 
ATOM     11  C   UNL     1       3.364   3.744  20.314  0.00  0.00    +0.000 A 
ATOM     12  O   UNL     1       2.783   3.452  21.356  0.00  0.00    +0.000 OA
ENDROOT
BRANCH   3  13
ATOM     13  C   UNL     1       5.427   4.656  16.620  0.00  0.00    +0.000 A 
ATOM     14  C   UNL     1       6.668   5.316  16.625  0.00  0.00    +0.000 A 
ATOM     15  C   UNL     1       7.429   5.447  15.457  0.00  0.00    +0.000 A 
ATOM     16  C   UNL     1       6.922   4.986  14.251  0.00  0.00    +0.000 A 
ATOM     17  F   UNL     1       7.648   5.113  13.134  0.00  0.00    +0.000 F 
ATOM     18  C   UNL     1       5.668   4.399  14.191  0.00  0.00    +0.000 A 
ATOM     19  C   UNL     1       4.931   4.225  15.368  0.00  0.00    +0.000 A 
ENDBRANCH   3  13
BRANCH   1  21
ATOM     20  N   UNL     1       4.792   0.477  19.493  0.00  0.00    +0.000 N 
ATOM     21  C   UNL     1       4.814   1.564  20.309  0.00  0.00    +0.000 C 
ATOM     22  O   UNL     1       5.165   1.464  21.480  0.00  0.00    +0.000 OA
ATOM     23  H   UNL     1       5.061  -0.425  19.860  0.00  0.00    +0.000 HD
ATOM     24  H   UNL     1       4.479   0.543  18.525  0.00  0.00    +0.000 HD
ENDBRANCH   1  21
TORSDOF 2
ENDMDL
