MODEL 1
REMARK VINA RESULT:      -7.6      0.000      0.000
REMARK  Name = 
REMARK  8 active torsions:
REMARK  status: ('A' for Active; 'I' for Inactive)
REMARK    1  A    between atoms: C_2  and  C_5
REMARK    2  A    between atoms: N_3  and  O_4
REMARK    3  A    between atoms: C_8  and  C_9
REMARK    4  A    between atoms: C_12  and  C_13
REMARK    5  A    between atoms: C_13  and  N_14
REMARK    6  A    between atoms: N_14  and  C_15
REMARK    7  A    between atoms: C_15  and  C_16
REMARK    8  A    between atoms: C_16  and  C_17
REMARK                            x       y       z     vdW  Elec       q    Type
REMARK                         _______ _______ _______ _____ _____    ______ ____
ROOT
ATOM      1  C   UNL     1       2.234   7.601  19.035  0.00  0.00    +0.000 A 
ATOM      2  C   UNL     1       2.029   8.570  18.083  0.00  0.00    +0.000 A 
ATOM      3  C   UNL     1       1.433   9.767  18.445  0.00  0.00    +0.000 A 
ATOM      4  C   UNL     1       1.017   9.946  19.766  0.00  0.00    +0.000 A 
ATOM      5  C   UNL     1       1.255   8.908  20.659  0.00  0.00    +0.000 A 
ATOM      6  N   UNL     1       1.837   7.734  20.332  0.00  0.00    +0.000 NA
ENDROOT
BRANCH   1  10
ATOM      7  C   UNL     1       3.925   4.087  18.804  0.00  0.00    +0.000 A 
ATOM      8  C   UNL     1       4.237   4.756  17.638  0.00  0.00    +0.000 A 
ATOM      9  C   UNL     1       3.691   6.065  17.599  0.00  0.00    +0.000 A 
ATOM     10  C   UNL     1       2.984   6.378  18.732  0.00  0.00    +0.000 A 
ATOM     11  S   UNL     1       3.000   5.070  19.848  0.00  0.00    +0.000 S 
BRANCH   7  13
ATOM     12  O   UNL     1       4.948   2.443  20.156  0.00  0.00    +0.000 OA
ATOM     13  C   UNL     1       4.314   2.732  19.139  0.00  0.00    +0.000 C 
ATOM     14  N   UNL     1       3.963   1.739  18.247  0.00  0.00    +0.000 N 
ATOM     15  H   UNL     1       3.825   1.955  17.264  0.00  0.00    +0.000 HD
BRANCH  14  16
ATOM     16  O   UNL     1       4.449   0.446  18.555  0.00  0.00    +0.000 OA
ATOM     17  H   UNL     1       4.342  -0.024  17.695  0.00  0.00    +0.000 HD
ENDBRANCH  14  16
ENDBRANCH   7  13
ENDBRANCH   1  10
BRANCH   4  18
ATOM     18  C   UNL     1       0.375  11.223  20.227  0.00  0.00    +0.000 C 
BRANCH  18  19
ATOM     19  N   UNL     1       0.328  12.237  19.168  0.00  0.00    +0.000 NA
ATOM     20  H   UNL     1       0.539  11.791  18.278  0.00  0.00    +0.000 HD
BRANCH  19  21
ATOM     21  C   UNL     1      -1.007  12.854  19.090  0.00  0.00    +0.000 C 
BRANCH  21  22
ATOM     22  C   UNL     1      -2.118  11.815  19.301  0.00  0.00    +0.000 C 
BRANCH  22  23
ATOM     23  C   UNL     1      -2.669  11.259  18.017  0.00  0.00    +0.000 A 
ATOM     24  C   UNL     1      -1.922  10.332  17.280  0.00  0.00    +0.000 A 
ATOM     25  C   UNL     1      -2.416   9.823  16.079  0.00  0.00    +0.000 A 
ATOM     26  C   UNL     1      -3.663  10.226  15.608  0.00  0.00    +0.000 A 
ATOM     27  C   UNL     1      -4.412  11.145  16.333  0.00  0.00    +0.000 A 
ATOM     28  C   UNL     1      -3.916  11.667  17.528  0.00  0.00    +0.000 A 
ENDBRANCH  22  23
ENDBRANCH  21  22
ENDBRANCH  19  21
ENDBRANCH  18  19
ENDBRANCH   4  18
TORSDOF 8
ENDMDL
MODEL 2
REMARK VINA RESULT:      -7.5      4.411      8.697
REMARK  Name = 
REMARK  8 active torsions:
REMARK  status: ('A' for Active; 'I' for Inactive)
REMARK    1  A    between atoms: C_2  and  C_5
REMARK    2  A    between atoms: N_3  and  O_4
REMARK    3  A    between atoms: C_8  and  C_9
REMARK    4  A    between atoms: C_12  and  C_13
REMARK    5  A    between atoms: C_13  and  N_14
REMARK    6  A    between atoms: N_14  and  C_15
REMARK    7  A    between atoms: C_15  and  C_16
REMARK    8  A    between atoms: C_16  and  C_17
REMARK                            x       y       z     vdW  Elec       q    Type
REMARK                         _______ _______ _______ _____ _____    ______ ____
ROOT
ATOM      1  C   UNL     1       2.382   7.541  19.237  0.00  0.00    +0.000 A 
ATOM      2  C   UNL     1       2.828   6.443  19.932  0.00  0.00    +0.000 A 
ATOM      3  C   UNL     1       3.834   5.658  19.393  0.00  0.00    +0.000 A 
ATOM      4  C   UNL     1       4.345   5.979  18.133  0.00  0.00    +0.000 A 
ATOM      5  C   UNL     1       3.825   7.100  17.498  0.00  0.00    +0.000 A 
ATOM      6  N   UNL     1       2.849   7.884  18.003  0.00  0.00    +0.000 NA
ENDROOT
BRANCH   1  10
ATOM      7  C   UNL     1      -0.228  10.300  20.155  0.00  0.00    +0.000 A 
ATOM      8  C   UNL     1      -0.086   9.500  21.271  0.00  0.00    +0.000 A 
ATOM      9  C   UNL     1       0.855   8.455  21.075  0.00  0.00    +0.000 A 
ATOM     10  C   UNL     1       1.421   8.480  19.826  0.00  0.00    +0.000 A 
ATOM     11  S   UNL     1       0.806   9.790  18.897  0.00  0.00    +0.000 S 
BRANCH   7  13
ATOM     12  O   UNL     1      -1.175  12.347  20.854  0.00  0.00    +0.000 OA
ATOM     13  C   UNL     1      -1.123  11.432  20.028  0.00  0.00    +0.000 C 
ATOM     14  N   UNL     1      -1.961  11.452  18.933  0.00  0.00    +0.000 N 
ATOM     15  H   UNL     1      -2.241  10.585  18.482  0.00  0.00    +0.000 HD
BRANCH  14  16
ATOM     16  O   UNL     1      -2.891  12.518  18.898  0.00  0.00    +0.000 OA
ATOM     17  H   UNL     1      -3.573  12.176  18.273  0.00  0.00    +0.000 HD
ENDBRANCH  14  16
ENDBRANCH   7  13
ENDBRANCH   1  10
BRANCH   4  18
ATOM     18  C   UNL     1       5.443   5.176  17.497  0.00  0.00    +0.000 C 
BRANCH  18  19
ATOM     19  N   UNL     1       5.305   3.738  17.758  0.00  0.00    +0.000 NA
ATOM     20  H   UNL     1       5.201   3.596  18.760  0.00  0.00    +0.000 HD
BRANCH  19  21
ATOM     21  C   UNL     1       4.123   3.191  17.071  0.00  0.00    +0.000 C 
BRANCH  21  22
ATOM     22  C   UNL     1       3.526   2.003  17.841  0.00  0.00    +0.000 C 
BRANCH  22  23
ATOM     23  C   UNL     1       2.750   2.412  19.063  0.00  0.00    +0.000 A 
ATOM     24  C   UNL     1       3.340   2.313  20.329  0.00  0.00    +0.000 A 
ATOM     25  C   UNL     1       2.624   2.673  21.472  0.00  0.00    +0.000 A 
ATOM     26  C   UNL     1       1.318   3.144  21.359  0.00  0.00    +0.000 A 
ATOM     27  C   UNL     1       0.725   3.247  20.106  0.00  0.00    +0.000 A 
ATOM     28  C   UNL     1       1.433   2.875  18.962  0.00  0.00    +0.000 A 
ENDBRANCH  22  23
ENDBRANCH  21  22
ENDBRANCH  19  21
ENDBRANCH  18  19
ENDBRANCH   4  18
TORSDOF 8
ENDMDL
MODEL 3
REMARK VINA RESULT:      -7.4      4.454      8.813
REMARK  Name = 
REMARK  8 active torsions:
REMARK  status: ('A' for Active; 'I' for Inactive)
REMARK    1  A    between atoms: C_2  and  C_5
REMARK    2  A    between atoms: N_3  and  O_4
REMARK    3  A    between atoms: C_8  and  C_9
REMARK    4  A    between atoms: C_12  and  C_13
REMARK    5  A    between atoms: C_13  and  N_14
REMARK    6  A    between atoms: N_14  and  C_15
REMARK    7  A    between atoms: C_15  and  C_16
REMARK    8  A    between atoms: C_16  and  C_17
REMARK                            x       y       z     vdW  Elec       q    Type
REMARK                         _______ _______ _______ _____ _____    ______ ____
ROOT
ATOM      1  C   UNL     1       2.114   7.891  19.151  0.00  0.00    +0.000 A 
ATOM      2  C   UNL     1       2.453   6.764  19.859  0.00  0.00    +0.000 A 
ATOM      3  C   UNL     1       3.441   5.924  19.372  0.00  0.00    +0.000 A 
ATOM      4  C   UNL     1       4.045   6.224  18.149  0.00  0.00    +0.000 A 
ATOM      5  C   UNL     1       3.632   7.379  17.497  0.00  0.00    +0.000 A 
ATOM      6  N   UNL     1       2.674   8.216  17.951  0.00  0.00    +0.000 NA
ENDROOT
BRANCH   1  10
ATOM      7  C   UNL     1      -0.530  10.663  19.919  0.00  0.00    +0.000 A 
ATOM      8  C   UNL     1      -0.201  10.082  21.127  0.00  0.00    +0.000 A 
ATOM      9  C   UNL     1       0.773   9.057  20.990  0.00  0.00    +0.000 A 
ATOM     10  C   UNL     1       1.176   8.881  19.692  0.00  0.00    +0.000 A 
ATOM     11  S   UNL     1       0.370   9.978  18.641  0.00  0.00    +0.000 S 
BRANCH   7  13
ATOM     12  O   UNL     1      -1.446  12.806  20.296  0.00  0.00    +0.000 OA
ATOM     13  C   UNL     1      -1.503  11.718  19.719  0.00  0.00    +0.000 C 
ATOM     14  N   UNL     1      -2.544  11.457  18.852  0.00  0.00    +0.000 N 
ATOM     15  H   UNL     1      -2.852  10.503  18.690  0.00  0.00    +0.000 HD
BRANCH  14  16
ATOM     16  O   UNL     1      -3.529  12.469  18.763  0.00  0.00    +0.000 OA
ATOM     17  H   UNL     1      -4.319  11.963  18.462  0.00  0.00    +0.000 HD
ENDBRANCH  14  16
ENDBRANCH   7  13
ENDBRANCH   1  10
BRANCH   4  18
ATOM     18  C   UNL     1       5.130   5.362  17.570  0.00  0.00    +0.000 C 
BRANCH  18  19
ATOM     19  N   UNL     1       5.072   3.982  18.069  0.00  0.00    +0.000 NA
ATOM     20  H   UNL     1       4.663   3.989  19.001  0.00  0.00    +0.000 HD
BRANCH  19  21
ATOM     21  C   UNL     1       4.246   3.140  17.188  0.00  0.00    +0.000 C 
BRANCH  21  22
ATOM     22  C   UNL     1       3.629   1.961  17.956  0.00  0.00    +0.000 C 
BRANCH  22  23
ATOM     23  C   UNL     1       2.791   2.385  19.132  0.00  0.00    +0.000 A 
ATOM     24  C   UNL     1       1.468   2.798  18.933  0.00  0.00    +0.000 A 
ATOM     25  C   UNL     1       0.687   3.210  20.013  0.00  0.00    +0.000 A 
ATOM     26  C   UNL     1       1.217   3.203  21.302  0.00  0.00    +0.000 A 
ATOM     27  C   UNL     1       2.529   2.795  21.509  0.00  0.00    +0.000 A 
ATOM     28  C   UNL     1       3.318   2.395  20.429  0.00  0.00    +0.000 A 
ENDBRANCH  22  23
ENDBRANCH  21  22
ENDBRANCH  19  21
ENDBRANCH  18  19
ENDBRANCH   4  18
TORSDOF 8
ENDMDL
MODEL 4
REMARK VINA RESULT:      -7.4      0.721      1.270
REMARK  Name = 
REMARK  8 active torsions:
REMARK  status: ('A' for Active; 'I' for Inactive)
REMARK    1  A    between atoms: C_2  and  C_5
REMARK    2  A    between atoms: N_3  and  O_4
REMARK    3  A    between atoms: C_8  and  C_9
REMARK    4  A    between atoms: C_12  and  C_13
REMARK    5  A    between atoms: C_13  and  N_14
REMARK    6  A    between atoms: N_14  and  C_15
REMARK    7  A    between atoms: C_15  and  C_16
REMARK    8  A    between atoms: C_16  and  C_17
REMARK                            x       y       z     vdW  Elec       q    Type
REMARK                         _______ _______ _______ _____ _____    ______ ____
ROOT
ATOM      1  C   UNL     1       2.114   7.897  19.121  0.00  0.00    +0.000 A 
ATOM      2  C   UNL     1       1.919   8.966  18.281  0.00  0.00    +0.000 A 
ATOM      3  C   UNL     1       1.293  10.105  18.760  0.00  0.00    +0.000 A 
ATOM      4  C   UNL     1       0.837  10.125  20.081  0.00  0.00    +0.000 A 
ATOM      5  C   UNL     1       1.068   8.995  20.855  0.00  0.00    +0.000 A 
ATOM      6  N   UNL     1       1.679   7.874  20.413  0.00  0.00    +0.000 NA
ENDROOT
BRANCH   1  10
ATOM      7  C   UNL     1       3.812   4.436  18.487  0.00  0.00    +0.000 A 
ATOM      8  C   UNL     1       4.267   5.289  17.502  0.00  0.00    +0.000 A 
ATOM      9  C   UNL     1       3.732   6.598  17.626  0.00  0.00    +0.000 A 
ATOM     10  C   UNL     1       2.892   6.727  18.702  0.00  0.00    +0.000 A 
ATOM     11  S   UNL     1       2.767   5.245  19.566  0.00  0.00    +0.000 S 
BRANCH   7  13
ATOM     12  O   UNL     1       3.761   2.166  17.841  0.00  0.00    +0.000 OA
ATOM     13  C   UNL     1       4.152   3.034  18.624  0.00  0.00    +0.000 C 
ATOM     14  N   UNL     1       4.934   2.680  19.703  0.00  0.00    +0.000 N 
ATOM     15  H   UNL     1       4.931   3.243  20.549  0.00  0.00    +0.000 HD
BRANCH  14  16
ATOM     16  O   UNL     1       5.158   1.291  19.862  0.00  0.00    +0.000 OA
ATOM     17  H   UNL     1       4.382   0.902  19.397  0.00  0.00    +0.000 HD
ENDBRANCH  14  16
ENDBRANCH   7  13
ENDBRANCH   1  10
BRANCH   4  18
ATOM     18  C   UNL     1       0.161  11.332  20.665  0.00  0.00    +0.000 C 
BRANCH  18  19
ATOM     19  N   UNL     1       0.301  12.518  19.812  0.00  0.00    +0.000 NA
ATOM     20  H   UNL     1       0.945  12.301  19.054  0.00  0.00    +0.000 HD
BRANCH  19  21
ATOM     21  C   UNL     1      -0.998  12.909  19.241  0.00  0.00    +0.000 C 
BRANCH  21  22
ATOM     22  C   UNL     1      -2.052  11.809  19.439  0.00  0.00    +0.000 C 
BRANCH  22  23
ATOM     23  C   UNL     1      -2.670  11.333  18.153  0.00  0.00    +0.000 A 
ATOM     24  C   UNL     1      -3.988  11.686  17.839  0.00  0.00    +0.000 A 
ATOM     25  C   UNL     1      -4.576  11.235  16.656  0.00  0.00    +0.000 A 
ATOM     26  C   UNL     1      -3.851  10.437  15.773  0.00  0.00    +0.000 A 
ATOM     27  C   UNL     1      -2.542  10.082  16.077  0.00  0.00    +0.000 A 
ATOM     28  C   UNL     1      -1.954  10.520  17.265  0.00  0.00    +0.000 A 
ENDBRANCH  22  23
ENDBRANCH  21  22
ENDBRANCH  19  21
ENDBRANCH  18  19
ENDBRANCH   4  18
TORSDOF 8
ENDMDL
MODEL 5
REMARK VINA RESULT:      -7.4      1.225      1.555
REMARK  Name = 
REMARK  8 active torsions:
REMARK  status: ('A' for Active; 'I' for Inactive)
REMARK    1  A    between atoms: C_2  and  C_5
REMARK    2  A    between atoms: N_3  and  O_4
REMARK    3  A    between atoms: C_8  and  C_9
REMARK    4  A    between atoms: C_12  and  C_13
REMARK    5  A    between atoms: C_13  and  N_14
REMARK    6  A    between atoms: N_14  and  C_15
REMARK    7  A    between atoms: C_15  and  C_16
REMARK    8  A    between atoms: C_16  and  C_17
REMARK                            x       y       z     vdW  Elec       q    Type
REMARK                         _______ _______ _______ _____ _____    ______ ____
ROOT
ATOM      1  C   UNL     1       2.056   7.115  19.328  0.00  0.00    +0.000 A 
ATOM      2  C   UNL     1       2.348   7.607  18.079  0.00  0.00    +0.000 A 
ATOM      3  C   UNL     1       2.171   8.956  17.819  0.00  0.00    +0.000 A 
ATOM      4  C   UNL     1       1.660   9.780  18.825  0.00  0.00    +0.000 A 
ATOM      5  C   UNL     1       1.383   9.194  20.054  0.00  0.00    +0.000 A 
ATOM      6  N   UNL     1       1.551   7.884  20.334  0.00  0.00    +0.000 NA
ENDROOT
BRANCH   1  10
ATOM      7  C   UNL     1       3.300   3.436  19.756  0.00  0.00    +0.000 A 
ATOM      8  C   UNL     1       2.521   3.723  20.858  0.00  0.00    +0.000 A 
ATOM      9  C   UNL     1       1.988   5.038  20.820  0.00  0.00    +0.000 A 
ATOM     10  C   UNL     1       2.358   5.726  19.693  0.00  0.00    +0.000 A 
ATOM     11  S   UNL     1       3.348   4.757  18.676  0.00  0.00    +0.000 S 
BRANCH   7  13
ATOM     12  O   UNL     1       3.733   1.444  18.564  0.00  0.00    +0.000 OA
ATOM     13  C   UNL     1       4.000   2.191  19.508  0.00  0.00    +0.000 C 
ATOM     14  N   UNL     1       4.991   1.839  20.400  0.00  0.00    +0.000 N 
ATOM     15  H   UNL     1       4.966   2.176  21.358  0.00  0.00    +0.000 HD
BRANCH  14  16
ATOM     16  O   UNL     1       5.579   0.570  20.186  0.00  0.00    +0.000 OA
ATOM     17  H   UNL     1       6.041   0.699  19.325  0.00  0.00    +0.000 HD
ENDBRANCH  14  16
ENDBRANCH   7  13
ENDBRANCH   1  10
BRANCH   4  18
ATOM     18  C   UNL     1       1.455  11.252  18.612  0.00  0.00    +0.000 C 
BRANCH  18  19
ATOM     19  N   UNL     1       0.654  11.863  19.680  0.00  0.00    +0.000 NA
ATOM     20  H   UNL     1       1.130  12.701  20.007  0.00  0.00    +0.000 HD
BRANCH  19  21
ATOM     21  C   UNL     1      -0.683  12.234  19.186  0.00  0.00    +0.000 C 
BRANCH  21  22
ATOM     22  C   UNL     1      -1.647  11.038  19.226  0.00  0.00    +0.000 C 
BRANCH  22  23
ATOM     23  C   UNL     1      -2.431  10.859  17.956  0.00  0.00    +0.000 A 
ATOM     24  C   UNL     1      -1.965   9.987  16.965  0.00  0.00    +0.000 A 
ATOM     25  C   UNL     1      -2.675   9.826  15.775  0.00  0.00    +0.000 A 
ATOM     26  C   UNL     1      -3.862  10.525  15.568  0.00  0.00    +0.000 A 
ATOM     27  C   UNL     1      -4.333  11.393  16.547  0.00  0.00    +0.000 A 
ATOM     28  C   UNL     1      -3.618  11.567  17.733  0.00  0.00    +0.000 A 
ENDBRANCH  22  23
ENDBRANCH  21  22
ENDBRANCH  19  21
ENDBRANCH  18  19
ENDBRANCH   4  18
TORSDOF 8
ENDMDL
MODEL 6
REMARK VINA RESULT:      -7.4      5.260      9.060
REMARK  Name = 
REMARK  8 active torsions:
REMARK  status: ('A' for Active; 'I' for Inactive)
REMARK    1  A    between atoms: C_2  and  C_5
REMARK    2  A    between atoms: N_3  and  O_4
REMARK    3  A    between atoms: C_8  and  C_9
REMARK    4  A    between atoms: C_12  and  C_13
REMARK    5  A    between atoms: C_13  and  N_14
REMARK    6  A    between atoms: N_14  and  C_15
REMARK    7  A    between atoms: C_15  and  C_16
REMARK    8  A    between atoms: C_16  and  C_17
REMARK                            x       y       z     vdW  Elec       q    Type
REMARK                         _______ _______ _______ _____ _____    ______ ____
ROOT
ATOM      1  C   UNL     1       1.237   8.407  20.363  0.00  0.00    +0.000 A 
ATOM      2  C   UNL     1       1.651   7.159  20.760  0.00  0.00    +0.000 A 
ATOM      3  C   UNL     1       2.433   6.397  19.907  0.00  0.00    +0.000 A 
ATOM      4  C   UNL     1       2.751   6.902  18.644  0.00  0.00    +0.000 A 
ATOM      5  C   UNL     1       2.280   8.169  18.324  0.00  0.00    +0.000 A 
ATOM      6  N   UNL     1       1.520   8.934  19.138  0.00  0.00    +0.000 NA
ENDROOT
BRANCH   1  10
ATOM      7  C   UNL     1      -0.518  11.292  22.329  0.00  0.00    +0.000 A 
ATOM      8  C   UNL     1      -0.804  10.121  23.001  0.00  0.00    +0.000 A 
ATOM      9  C   UNL     1      -0.208   8.985  22.393  0.00  0.00    +0.000 A 
ATOM     10  C   UNL     1       0.528   9.305  21.281  0.00  0.00    +0.000 A 
ATOM     11  S   UNL     1       0.497  10.999  20.988  0.00  0.00    +0.000 S 
BRANCH   7  13
ATOM     12  O   UNL     1      -0.351  13.644  22.457  0.00  0.00    +0.000 OA
ATOM     13  C   UNL     1      -0.992  12.615  22.682  0.00  0.00    +0.000 C 
ATOM     14  N   UNL     1      -2.213  12.695  23.319  0.00  0.00    +0.000 N 
ATOM     15  H   UNL     1      -2.561  11.914  23.868  0.00  0.00    +0.000 HD
BRANCH  14  16
ATOM     16  O   UNL     1      -2.594  13.991  23.741  0.00  0.00    +0.000 OA
ATOM     17  H   UNL     1      -1.743  14.359  24.072  0.00  0.00    +0.000 HD
ENDBRANCH  14  16
ENDBRANCH   7  13
ENDBRANCH   1  10
BRANCH   4  18
ATOM     18  C   UNL     1       3.603   6.132  17.676  0.00  0.00    +0.000 C 
BRANCH  18  19
ATOM     19  N   UNL     1       4.221   4.953  18.293  0.00  0.00    +0.000 NA
ATOM     20  H   UNL     1       3.603   4.603  19.022  0.00  0.00    +0.000 HD
BRANCH  19  21
ATOM     21  C   UNL     1       4.436   3.891  17.296  0.00  0.00    +0.000 C 
BRANCH  21  22
ATOM     22  C   UNL     1       3.695   2.602  17.682  0.00  0.00    +0.000 C 
BRANCH  22  23
ATOM     23  C   UNL     1       2.858   2.741  18.924  0.00  0.00    +0.000 A 
ATOM     24  C   UNL     1       1.488   3.010  18.815  0.00  0.00    +0.000 A 
ATOM     25  C   UNL     1       0.705   3.158  19.961  0.00  0.00    +0.000 A 
ATOM     26  C   UNL     1       1.280   3.029  21.223  0.00  0.00    +0.000 A 
ATOM     27  C   UNL     1       2.639   2.761  21.340  0.00  0.00    +0.000 A 
ATOM     28  C   UNL     1       3.428   2.625  20.197  0.00  0.00    +0.000 A 
ENDBRANCH  22  23
ENDBRANCH  21  22
ENDBRANCH  19  21
ENDBRANCH  18  19
ENDBRANCH   4  18
TORSDOF 8
ENDMDL
MODEL 7
REMARK VINA RESULT:      -7.3      4.422      8.619
REMARK  Name = 
REMARK  8 active torsions:
REMARK  status: ('A' for Active; 'I' for Inactive)
REMARK    1  A    between atoms: C_2  and  C_5
REMARK    2  A    between atoms: N_3  and  O_4
REMARK    3  A    between atoms: C_8  and  C_9
REMARK    4  A    between atoms: C_12  and  C_13
REMARK    5  A    between atoms: C_13  and  N_14
REMARK    6  A    between atoms: N_14  and  C_15
REMARK    7  A    between atoms: C_15  and  C_16
REMARK    8  A    between atoms: C_16  and  C_17
REMARK                            x       y       z     vdW  Elec       q    Type
REMARK                         _______ _______ _______ _____ _____    ______ ____
ROOT
ATOM      1  C   UNL     1       2.462   7.646  18.794  0.00  0.00    +0.000 A 
ATOM      2  C   UNL     1       2.634   6.637  19.710  0.00  0.00    +0.000 A 
ATOM      3  C   UNL     1       3.627   5.693  19.506  0.00  0.00    +0.000 A 
ATOM      4  C   UNL     1       4.407   5.766  18.350  0.00  0.00    +0.000 A 
ATOM      5  C   UNL     1       4.156   6.815  17.473  0.00  0.00    +0.000 A 
ATOM      6  N   UNL     1       3.198   7.750  17.650  0.00  0.00    +0.000 NA
ENDROOT
BRANCH   1  10
ATOM      7  C   UNL     1       0.064  10.434  20.112  0.00  0.00    +0.000 A 
ATOM      8  C   UNL     1       0.175  10.617  18.748  0.00  0.00    +0.000 A 
ATOM      9  C   UNL     1       1.015   9.650  18.137  0.00  0.00    +0.000 A 
ATOM     10  C   UNL     1       1.521   8.745  19.034  0.00  0.00    +0.000 A 
ATOM     11  S   UNL     1       0.957   9.074  20.624  0.00  0.00    +0.000 S 
BRANCH   7  13
ATOM     12  O   UNL     1      -1.559  12.064  20.646  0.00  0.00    +0.000 OA
ATOM     13  C   UNL     1      -0.701  11.263  21.022  0.00  0.00    +0.000 C 
ATOM     14  N   UNL     1      -0.418  11.145  22.367  0.00  0.00    +0.000 N 
ATOM     15  H   UNL     1       0.500  10.838  22.676  0.00  0.00    +0.000 HD
BRANCH  14  16
ATOM     16  O   UNL     1      -1.109  12.043  23.215  0.00  0.00    +0.000 OA
ATOM     17  H   UNL     1      -1.069  12.883  22.702  0.00  0.00    +0.000 HD
ENDBRANCH  14  16
ENDBRANCH   7  13
ENDBRANCH   1  10
BRANCH   4  18
ATOM     18  C   UNL     1       5.507   4.781  18.074  0.00  0.00    +0.000 C 
BRANCH  18  19
ATOM     19  N   UNL     1       5.211   3.924  16.920  0.00  0.00    +0.000 NA
ATOM     20  H   UNL     1       5.836   3.121  16.941  0.00  0.00    +0.000 HD
BRANCH  19  21
ATOM     21  C   UNL     1       3.818   3.448  16.964  0.00  0.00    +0.000 C 
BRANCH  21  22
ATOM     22  C   UNL     1       3.673   2.220  17.876  0.00  0.00    +0.000 C 
BRANCH  22  23
ATOM     23  C   UNL     1       2.828   2.475  19.094  0.00  0.00    +0.000 A 
ATOM     24  C   UNL     1       3.397   2.378  20.370  0.00  0.00    +0.000 A 
ATOM     25  C   UNL     1       2.618   2.596  21.507  0.00  0.00    +0.000 A 
ATOM     26  C   UNL     1       1.270   2.923  21.381  0.00  0.00    +0.000 A 
ATOM     27  C   UNL     1       0.698   3.022  20.118  0.00  0.00    +0.000 A 
ATOM     28  C   UNL     1       1.469   2.792  18.978  0.00  0.00    +0.000 A 
ENDBRANCH  22  23
ENDBRANCH  21  22
ENDBRANCH  19  21
ENDBRANCH  18  19
ENDBRANCH   4  18
TORSDOF 8
ENDMDL
MODEL 8
REMARK VINA RESULT:      -7.2      4.143      8.530
REMARK  Name = 
REMARK  8 active torsions:
REMARK  status: ('A' for Active; 'I' for Inactive)
REMARK    1  A    between atoms: C_2  and  C_5
REMARK    2  A    between atoms: N_3  and  O_4
REMARK    3  A    between atoms: C_8  and  C_9
REMARK    4  A    between atoms: C_12  and  C_13
REMARK    5  A    between atoms: C_13  and  N_14
REMARK    6  A    between atoms: N_14  and  C_15
REMARK    7  A    between atoms: C_15  and  C_16
REMARK    8  A    between atoms: C_16  and  C_17
REMARK                            x       y       z     vdW  Elec       q    Type
REMARK                         _______ _______ _______ _____ _____    ______ ____
ROOT
ATOM      1  C   UNL     1       2.421   7.861  19.012  0.00  0.00    +0.000 A 
ATOM      2  C   UNL     1       2.969   8.177  17.793  0.00  0.00    +0.000 A 
ATOM      3  C   UNL     1       3.816   7.275  17.171  0.00  0.00    +0.000 A 
ATOM      4  C   UNL     1       4.126   6.077  17.819  0.00  0.00    +0.000 A 
ATOM      5  C   UNL     1       3.534   5.846  19.055  0.00  0.00    +0.000 A 
ATOM      6  N   UNL     1       2.702   6.706  19.680  0.00  0.00    +0.000 NA
ENDROOT
BRANCH   1  10
ATOM      7  C   UNL     1       0.006   9.913  21.297  0.00  0.00    +0.000 A 
ATOM      8  C   UNL     1      -0.207  10.345  20.004  0.00  0.00    +0.000 A 
ATOM      9  C   UNL     1       0.606   9.662  19.061  0.00  0.00    +0.000 A 
ATOM     10  C   UNL     1       1.413   8.719  19.644  0.00  0.00    +0.000 A 
ATOM     11  S   UNL     1       1.167   8.663  21.344  0.00  0.00    +0.000 S 
BRANCH   7  13
ATOM     12  O   UNL     1      -0.397  10.018  23.621  0.00  0.00    +0.000 OA
ATOM     13  C   UNL     1      -0.648  10.424  22.484  0.00  0.00    +0.000 C 
ATOM     14  N   UNL     1      -1.610  11.396  22.303  0.00  0.00    +0.000 N 
ATOM     15  H   UNL     1      -2.121  11.459  21.427  0.00  0.00    +0.000 HD
BRANCH  14  16
ATOM     16  O   UNL     1      -2.300  11.794  23.473  0.00  0.00    +0.000 OA
ATOM     17  H   UNL     1      -2.468  10.931  23.918  0.00  0.00    +0.000 HD
ENDBRANCH  14  16
ENDBRANCH   7  13
ENDBRANCH   1  10
BRANCH   4  18
ATOM     18  C   UNL     1       5.028   5.051  17.195  0.00  0.00    +0.000 C 
BRANCH  18  19
ATOM     19  N   UNL     1       4.932   3.746  17.860  0.00  0.00    +0.000 NA
ATOM     20  H   UNL     1       4.558   3.883  18.797  0.00  0.00    +0.000 HD
BRANCH  19  21
ATOM     21  C   UNL     1       4.040   2.842  17.115  0.00  0.00    +0.000 C 
BRANCH  21  22
ATOM     22  C   UNL     1       3.453   1.755  18.028  0.00  0.00    +0.000 C 
BRANCH  22  23
ATOM     23  C   UNL     1       2.688   2.306  19.200  0.00  0.00    +0.000 A 
ATOM     24  C   UNL     1       3.283   2.341  20.468  0.00  0.00    +0.000 A 
ATOM     25  C   UNL     1       2.577   2.834  21.565  0.00  0.00    +0.000 A 
ATOM     26  C   UNL     1       1.276   3.307  21.406  0.00  0.00    +0.000 A 
ATOM     27  C   UNL     1       0.678   3.278  20.151  0.00  0.00    +0.000 A 
ATOM     28  C   UNL     1       1.376   2.772  19.053  0.00  0.00    +0.000 A 
ENDBRANCH  22  23
ENDBRANCH  21  22
ENDBRANCH  19  21
ENDBRANCH  18  19
ENDBRANCH   4  18
TORSDOF 8
ENDMDL
MODEL 9
REMARK VINA RESULT:      -7.2      1.167      1.638
REMARK  Name = 
REMARK  8 active torsions:
REMARK  status: ('A' for Active; 'I' for Inactive)
REMARK    1  A    between atoms: C_2  and  C_5
REMARK    2  A    between atoms: N_3  and  O_4
REMARK    3  A    between atoms: C_8  and  C_9
REMARK    4  A    between atoms: C_12  and  C_13
REMARK    5  A    between atoms: C_13  and  N_14
REMARK    6  A    between atoms: N_14  and  C_15
REMARK    7  A    between atoms: C_15  and  C_16
REMARK    8  A    between atoms: C_16  and  C_17
REMARK                            x       y       z     vdW  Elec       q    Type
REMARK                         _______ _______ _______ _____ _____    ______ ____
ROOT
ATOM      1  C   UNL     1       2.032   7.307  19.720  0.00  0.00    +0.000 A 
ATOM      2  C   UNL     1       1.432   8.098  20.670  0.00  0.00    +0.000 A 
ATOM      3  C   UNL     1       1.105   9.408  20.360  0.00  0.00    +0.000 A 
ATOM      4  C   UNL     1       1.430   9.908  19.096  0.00  0.00    +0.000 A 
ATOM      5  C   UNL     1       2.045   9.039  18.203  0.00  0.00    +0.000 A 
ATOM      6  N   UNL     1       2.371   7.758  18.479  0.00  0.00    +0.000 NA
ENDROOT
BRANCH   1  10
ATOM      7  C   UNL     1       3.234   3.596  19.941  0.00  0.00    +0.000 A 
ATOM      8  C   UNL     1       2.185   3.728  20.827  0.00  0.00    +0.000 A 
ATOM      9  C   UNL     1       1.640   5.039  20.835  0.00  0.00    +0.000 A 
ATOM     10  C   UNL     1       2.270   5.879  19.953  0.00  0.00    +0.000 A 
ATOM     11  S   UNL     1       3.523   5.058  19.109  0.00  0.00    +0.000 S 
BRANCH   7  13
ATOM     12  O   UNL     1       5.004   2.098  20.385  0.00  0.00    +0.000 OA
ATOM     13  C   UNL     1       4.013   2.395  19.715  0.00  0.00    +0.000 C 
ATOM     14  N   UNL     1       3.616   1.575  18.680  0.00  0.00    +0.000 N 
ATOM     15  H   UNL     1       3.106   1.954  17.887  0.00  0.00    +0.000 HD
BRANCH  14  16
ATOM     16  O   UNL     1       4.461   0.468  18.423  0.00  0.00    +0.000 OA
ATOM     17  H   UNL     1       3.811  -0.262  18.297  0.00  0.00    +0.000 HD
ENDBRANCH  14  16
ENDBRANCH   7  13
ENDBRANCH   1  10
BRANCH   4  18
ATOM     18  C   UNL     1       1.093  11.314  18.692  0.00  0.00    +0.000 C 
BRANCH  18  19
ATOM     19  N   UNL     1       0.472  12.075  19.783  0.00  0.00    +0.000 NA
ATOM     20  H   UNL     1       1.128  12.784  20.102  0.00  0.00    +0.000 HD
BRANCH  19  21
ATOM     21  C   UNL     1      -0.763  12.733  19.327  0.00  0.00    +0.000 C 
BRANCH  21  22
ATOM     22  C   UNL     1      -1.992  11.841  19.556  0.00  0.00    +0.000 C 
BRANCH  22  23
ATOM     23  C   UNL     1      -2.726  11.497  18.289  0.00  0.00    +0.000 A 
ATOM     24  C   UNL     1      -2.013  11.059  17.167  0.00  0.00    +0.000 A 
ATOM     25  C   UNL     1      -2.682  10.753  15.981  0.00  0.00    +0.000 A 
ATOM     26  C   UNL     1      -4.068  10.871  15.909  0.00  0.00    +0.000 A 
ATOM     27  C   UNL     1      -4.784  11.305  17.019  0.00  0.00    +0.000 A 
ATOM     28  C   UNL     1      -4.118  11.625  18.202  0.00  0.00    +0.000 A 
ENDBRANCH  22  23
ENDBRANCH  21  22
ENDBRANCH  19  21
ENDBRANCH  18  19
ENDBRANCH   4  18
TORSDOF 8
ENDMDL
