MODEL 1
REMARK VINA RESULT:      -9.2      0.000      0.000
REMARK  Name = 
REMARK  7 active torsions:
REMARK  status: ('A' for Active; 'I' for Inactive)
REMARK    1  A    between atoms: C_1  and  N_2
REMARK    2  A    between atoms: C_7  and  C_8
REMARK    3  A    between atoms: C_13  and  N_14
REMARK    4  A    between atoms: C_15  and  C_17
REMARK    5  A    between atoms: C_20  and  N_21
REMARK    6  A    between atoms: C_25  and  C_26
REMARK    7  A    between atoms: C_26  and  N_27
REMARK                            x       y       z     vdW  Elec       q    Type
REMARK                         _______ _______ _______ _____ _____    ______ ____
ROOT
ATOM      1  N   UNL     1       0.240  11.396  19.806  0.00  0.00    +0.000 N 
ATOM      2  C   UNL     1      -0.072  10.200  19.171  0.00  0.00    +0.000 C 
ATOM      3  O   UNL     1      -1.196   9.881  18.800  0.00  0.00    +0.000 OA
ATOM      4  H   UNL     1       1.200  11.594  20.064  0.00  0.00    +0.000 HD
ENDROOT
BRANCH   1  10
ATOM      5  C   UNL     1      -2.497  13.332  21.540  0.00  0.00    +0.000 A 
ATOM      6  C   UNL     1      -2.422  14.490  20.858  0.00  0.00    +0.000 A 
ATOM      7  N   UNL     1      -1.519  14.650  19.832  0.00  0.00    +0.000 N 
ATOM      8  C   UNL     1      -0.661  13.673  19.398  0.00  0.00    +0.000 A 
ATOM      9  O   UNL     1       0.097  13.824  18.435  0.00  0.00    +0.000 OA
ATOM     10  C   UNL     1      -0.664  12.383  20.178  0.00  0.00    +0.000 A 
ATOM     11  C   UNL     1      -1.528  12.298  21.203  0.00  0.00    +0.000 A 
ATOM     12  H   UNL     1      -1.508  15.518  19.312  0.00  0.00    +0.000 HD
BRANCH   5  19
ATOM     13  C   UNL     1      -7.888  14.273  24.061  0.00  0.00    +0.000 C 
ATOM     14  N   UNL     1      -6.992  13.991  22.962  0.00  0.00    +0.000 N 
ATOM     15  C   UNL     1      -5.755  13.423  23.229  0.00  0.00    +0.000 A 
ATOM     16  C   UNL     1      -5.514  12.550  24.294  0.00  0.00    +0.000 A 
ATOM     17  N   UNL     1      -4.316  11.978  24.545  0.00  0.00    +0.000 NA
ATOM     18  C   UNL     1      -3.355  12.282  23.647  0.00  0.00    +0.000 A 
ATOM     19  C   UNL     1      -3.566  13.121  22.552  0.00  0.00    +0.000 A 
ATOM     20  N   UNL     1      -4.775  13.709  22.343  0.00  0.00    +0.000 NA
ATOM     21  H   UNL     1      -6.863  14.732  22.276  0.00  0.00    +0.000 HD
ENDBRANCH   5  19
ENDBRANCH   1  10
BRANCH   2  22
ATOM     22  C   UNL     1       1.007   9.206  18.987  0.00  0.00    +0.000 A 
ATOM     23  C   UNL     1       1.733   9.285  17.793  0.00  0.00    +0.000 A 
ATOM     24  C   UNL     1       2.760   8.379  17.513  0.00  0.00    +0.000 A 
ATOM     25  C   UNL     1       3.113   7.379  18.423  0.00  0.00    +0.000 A 
ATOM     26  C   UNL     1       2.405   7.349  19.640  0.00  0.00    +0.000 A 
ATOM     27  C   UNL     1       1.357   8.242  19.927  0.00  0.00    +0.000 A 
BRANCH  25  28
ATOM     28  N   UNL     1       4.128   6.447  18.179  0.00  0.00    +0.000 N 
ATOM     29  C   UNL     1       5.239   6.796  17.277  0.00  0.00    +0.000 C 
ATOM     30  C   UNL     1       5.039   5.910  16.060  0.00  0.00    +0.000 C 
ATOM     31  C   UNL     1       4.559   4.610  16.686  0.00  0.00    +0.000 C 
ATOM     32  C   UNL     1       3.644   5.064  17.842  0.00  0.00    +0.000 C 
BRANCH  32  33
ATOM     33  C   UNL     1       3.755   4.148  19.094  0.00  0.00    +0.000 C 
BRANCH  33  34
ATOM     34  N   UNL     1       2.773   3.051  19.265  0.00  0.00    +0.000 NA
ATOM     35  C   UNL     1       1.386   3.454  18.982  0.00  0.00    +0.000 C 
ATOM     36  C   UNL     1       0.837   3.990  20.289  0.00  0.00    +0.000 C 
ATOM     37  C   UNL     1       1.485   3.103  21.330  0.00  0.00    +0.000 C 
ATOM     38  C   UNL     1       2.773   2.605  20.676  0.00  0.00    +0.000 C 
ENDBRANCH  33  34
ENDBRANCH  32  33
ENDBRANCH  25  28
ENDBRANCH   2  22
TORSDOF 6
ENDMDL
MODEL 2
REMARK VINA RESULT:      -9.1      7.744     11.341
REMARK  Name = 
REMARK  7 active torsions:
REMARK  status: ('A' for Active; 'I' for Inactive)
REMARK    1  A    between atoms: C_1  and  N_2
REMARK    2  A    between atoms: C_7  and  C_8
REMARK    3  A    between atoms: C_13  and  N_14
REMARK    4  A    between atoms: C_15  and  C_17
REMARK    5  A    between atoms: C_20  and  N_21
REMARK    6  A    between atoms: C_25  and  C_26
REMARK    7  A    between atoms: C_26  and  N_27
REMARK                            x       y       z     vdW  Elec       q    Type
REMARK                         _______ _______ _______ _____ _____    ______ ____
ROOT
ATOM      1  N   UNL     1       6.888   7.435  16.978  0.00  0.00    +0.000 N 
ATOM      2  C   UNL     1       7.794   7.636  18.012  0.00  0.00    +0.000 C 
ATOM      3  O   UNL     1       8.169   6.765  18.789  0.00  0.00    +0.000 OA
ATOM      4  H   UNL     1       6.645   8.205  16.364  0.00  0.00    +0.000 HD
ENDROOT
BRANCH   1  10
ATOM      5  C   UNL     1       4.428   4.572  17.013  0.00  0.00    +0.000 A 
ATOM      6  C   UNL     1       4.925   3.836  16.002  0.00  0.00    +0.000 A 
ATOM      7  N   UNL     1       6.054   4.234  15.323  0.00  0.00    +0.000 N 
ATOM      8  C   UNL     1       6.776   5.362  15.618  0.00  0.00    +0.000 A 
ATOM      9  O   UNL     1       7.819   5.663  15.032  0.00  0.00    +0.000 OA
ATOM     10  C   UNL     1       6.217   6.251  16.699  0.00  0.00    +0.000 A 
ATOM     11  C   UNL     1       5.085   5.843  17.294  0.00  0.00    +0.000 A 
ATOM     12  H   UNL     1       6.426   3.644  14.590  0.00  0.00    +0.000 HD
BRANCH   5  19
ATOM     13  C   UNL     1       1.784   2.592  22.051  0.00  0.00    +0.000 C 
ATOM     14  N   UNL     1       2.586   3.507  21.270  0.00  0.00    +0.000 N 
ATOM     15  C   UNL     1       2.393   3.571  19.899  0.00  0.00    +0.000 A 
ATOM     16  C   UNL     1       1.163   3.344  19.276  0.00  0.00    +0.000 A 
ATOM     17  N   UNL     1       0.964   3.427  17.942  0.00  0.00    +0.000 NA
ATOM     18  C   UNL     1       2.056   3.797  17.239  0.00  0.00    +0.000 A 
ATOM     19  C   UNL     1       3.293   4.067  17.828  0.00  0.00    +0.000 A 
ATOM     20  N   UNL     1       3.470   3.943  19.172  0.00  0.00    +0.000 NA
ATOM     21  H   UNL     1       3.587   3.508  21.454  0.00  0.00    +0.000 HD
ENDBRANCH   5  19
ENDBRANCH   1  10
BRANCH   2  22
ATOM     22  C   UNL     1       8.297   9.008  18.242  0.00  0.00    +0.000 A 
ATOM     23  C   UNL     1       7.783  10.010  17.411  0.00  0.00    +0.000 A 
ATOM     24  C   UNL     1       8.208  11.336  17.533  0.00  0.00    +0.000 A 
ATOM     25  C   UNL     1       9.143  11.711  18.502  0.00  0.00    +0.000 A 
ATOM     26  C   UNL     1       9.609  10.697  19.362  0.00  0.00    +0.000 A 
ATOM     27  C   UNL     1       9.204   9.356  19.237  0.00  0.00    +0.000 A 
BRANCH  25  28
ATOM     28  N   UNL     1       9.603  13.024  18.654  0.00  0.00    +0.000 N 
ATOM     29  C   UNL     1      10.979  13.366  18.254  0.00  0.00    +0.000 C 
ATOM     30  C   UNL     1      11.697  13.664  19.559  0.00  0.00    +0.000 C 
ATOM     31  C   UNL     1      10.623  14.385  20.356  0.00  0.00    +0.000 C 
ATOM     32  C   UNL     1       9.320  13.638  19.996  0.00  0.00    +0.000 C 
BRANCH  32  33
ATOM     33  C   UNL     1       8.092  14.586  19.893  0.00  0.00    +0.000 C 
BRANCH  33  34
ATOM     34  N   UNL     1       7.791  15.226  18.591  0.00  0.00    +0.000 NA
ATOM     35  C   UNL     1       7.514  16.667  18.693  0.00  0.00    +0.000 C 
ATOM     36  C   UNL     1       6.027  16.783  18.960  0.00  0.00    +0.000 C 
ATOM     37  C   UNL     1       5.437  15.652  18.145  0.00  0.00    +0.000 C 
ATOM     38  C   UNL     1       6.563  14.628  18.020  0.00  0.00    +0.000 C 
ENDBRANCH  33  34
ENDBRANCH  32  33
ENDBRANCH  25  28
ENDBRANCH   2  22
TORSDOF 6
ENDMDL
MODEL 3
REMARK VINA RESULT:      -9.1      7.960     11.099
REMARK  Name = 
REMARK  7 active torsions:
REMARK  status: ('A' for Active; 'I' for Inactive)
REMARK    1  A    between atoms: C_1  and  N_2
REMARK    2  A    between atoms: C_7  and  C_8
REMARK    3  A    between atoms: C_13  and  N_14
REMARK    4  A    between atoms: C_15  and  C_17
REMARK    5  A    between atoms: C_20  and  N_21
REMARK    6  A    between atoms: C_25  and  C_26
REMARK    7  A    between atoms: C_26  and  N_27
REMARK                            x       y       z     vdW  Elec       q    Type
REMARK                         _______ _______ _______ _____ _____    ______ ____
ROOT
ATOM      1  N   UNL     1       6.811   7.565  16.944  0.00  0.00    +0.000 N 
ATOM      2  C   UNL     1       7.778   7.800  17.914  0.00  0.00    +0.000 C 
ATOM      3  O   UNL     1       8.247   6.941  18.652  0.00  0.00    +0.000 OA
ATOM      4  H   UNL     1       6.488   8.328  16.360  0.00  0.00    +0.000 HD
ENDROOT
BRANCH   1  10
ATOM      5  C   UNL     1       4.428   4.640  17.038  0.00  0.00    +0.000 A 
ATOM      6  C   UNL     1       4.969   3.877  16.070  0.00  0.00    +0.000 A 
ATOM      7  N   UNL     1       6.103   4.279  15.403  0.00  0.00    +0.000 N 
ATOM      8  C   UNL     1       6.788   5.437  15.669  0.00  0.00    +0.000 A 
ATOM      9  O   UNL     1       7.837   5.743  15.096  0.00  0.00    +0.000 OA
ATOM     10  C   UNL     1       6.178   6.353  16.698  0.00  0.00    +0.000 A 
ATOM     11  C   UNL     1       5.043   5.938  17.283  0.00  0.00    +0.000 A 
ATOM     12  H   UNL     1       6.510   3.670  14.704  0.00  0.00    +0.000 HD
BRANCH   5  19
ATOM     13  C   UNL     1       1.765   2.597  22.041  0.00  0.00    +0.000 C 
ATOM     14  N   UNL     1       2.580   3.515  21.278  0.00  0.00    +0.000 N 
ATOM     15  C   UNL     1       2.384   3.612  19.909  0.00  0.00    +0.000 A 
ATOM     16  C   UNL     1       1.148   3.419  19.285  0.00  0.00    +0.000 A 
ATOM     17  N   UNL     1       0.947   3.534  17.953  0.00  0.00    +0.000 NA
ATOM     18  C   UNL     1       2.044   3.900  17.255  0.00  0.00    +0.000 A 
ATOM     19  C   UNL     1       3.286   4.136  17.846  0.00  0.00    +0.000 A 
ATOM     20  N   UNL     1       3.465   3.981  19.186  0.00  0.00    +0.000 NA
ATOM     21  H   UNL     1       3.581   3.495  21.458  0.00  0.00    +0.000 HD
ENDBRANCH   5  19
ENDBRANCH   1  10
BRANCH   2  22
ATOM     22  C   UNL     1       8.230   9.193  18.126  0.00  0.00    +0.000 A 
ATOM     23  C   UNL     1       9.145   9.402  19.165  0.00  0.00    +0.000 A 
ATOM     24  C   UNL     1       9.618  10.683  19.460  0.00  0.00    +0.000 A 
ATOM     25  C   UNL     1       9.214  11.795  18.716  0.00  0.00    +0.000 A 
ATOM     26  C   UNL     1       8.334  11.556  17.643  0.00  0.00    +0.000 A 
ATOM     27  C   UNL     1       7.834  10.274  17.347  0.00  0.00    +0.000 A 
BRANCH  25  28
ATOM     28  N   UNL     1       9.656  13.095  18.983  0.00  0.00    +0.000 N 
ATOM     29  C   UNL     1      10.563  13.767  18.037  0.00  0.00    +0.000 C 
ATOM     30  C   UNL     1      11.884  13.873  18.779  0.00  0.00    +0.000 C 
ATOM     31  C   UNL     1      11.430  14.177  20.197  0.00  0.00    +0.000 C 
ATOM     32  C   UNL     1      10.164  13.313  20.381  0.00  0.00    +0.000 C 
BRANCH  32  33
ATOM     33  C   UNL     1       9.071  14.019  21.234  0.00  0.00    +0.000 C 
BRANCH  33  34
ATOM     34  N   UNL     1       7.991  13.198  21.830  0.00  0.00    +0.000 NA
ATOM     35  C   UNL     1       7.193  13.917  22.836  0.00  0.00    +0.000 C 
ATOM     36  C   UNL     1       7.913  13.715  24.154  0.00  0.00    +0.000 C 
ATOM     37  C   UNL     1       8.449  12.304  24.047  0.00  0.00    +0.000 C 
ATOM     38  C   UNL     1       8.584  12.048  22.547  0.00  0.00    +0.000 C 
ENDBRANCH  33  34
ENDBRANCH  32  33
ENDBRANCH  25  28
ENDBRANCH   2  22
TORSDOF 6
ENDMDL
MODEL 4
REMARK VINA RESULT:      -9.1      3.626     11.874
REMARK  Name = 
REMARK  7 active torsions:
REMARK  status: ('A' for Active; 'I' for Inactive)
REMARK    1  A    between atoms: C_1  and  N_2
REMARK    2  A    between atoms: C_7  and  C_8
REMARK    3  A    between atoms: C_13  and  N_14
REMARK    4  A    between atoms: C_15  and  C_17
REMARK    5  A    between atoms: C_20  and  N_21
REMARK    6  A    between atoms: C_25  and  C_26
REMARK    7  A    between atoms: C_26  and  N_27
REMARK                            x       y       z     vdW  Elec       q    Type
REMARK                         _______ _______ _______ _____ _____    ______ ____
ROOT
ATOM      1  N   UNL     1       4.237   7.186  18.095  0.00  0.00    +0.000 N 
ATOM      2  C   UNL     1       2.863   7.082  18.275  0.00  0.00    +0.000 C 
ATOM      3  O   UNL     1       2.219   6.047  18.144  0.00  0.00    +0.000 OA
ATOM      4  H   UNL     1       4.698   8.077  18.243  0.00  0.00    +0.000 HD
ENDROOT
BRANCH   1  10
ATOM      5  C   UNL     1       6.409   4.905  16.016  0.00  0.00    +0.000 A 
ATOM      6  C   UNL     1       6.848   4.072  16.978  0.00  0.00    +0.000 A 
ATOM      7  N   UNL     1       6.437   4.219  18.283  0.00  0.00    +0.000 N 
ATOM      8  C   UNL     1       5.549   5.172  18.712  0.00  0.00    +0.000 A 
ATOM      9  O   UNL     1       5.152   5.243  19.878  0.00  0.00    +0.000 OA
ATOM     10  C   UNL     1       5.085   6.168  17.680  0.00  0.00    +0.000 A 
ATOM     11  C   UNL     1       5.556   6.011  16.432  0.00  0.00    +0.000 A 
ATOM     12  H   UNL     1       6.754   3.558  18.981  0.00  0.00    +0.000 HD
BRANCH   5  19
ATOM     13  C   UNL     1       6.455   1.736  10.892  0.00  0.00    +0.000 C 
ATOM     14  N   UNL     1       5.831   2.340  12.048  0.00  0.00    +0.000 N 
ATOM     15  C   UNL     1       6.448   3.422  12.658  0.00  0.00    +0.000 A 
ATOM     16  C   UNL     1       7.227   4.360  11.975  0.00  0.00    +0.000 A 
ATOM     17  N   UNL     1       7.812   5.427  12.562  0.00  0.00    +0.000 NA
ATOM     18  C   UNL     1       7.549   5.551  13.880  0.00  0.00    +0.000 A 
ATOM     19  C   UNL     1       6.748   4.655  14.590  0.00  0.00    +0.000 A 
ATOM     20  N   UNL     1       6.198   3.571  13.978  0.00  0.00    +0.000 NA
ATOM     21  H   UNL     1       5.503   1.707  12.773  0.00  0.00    +0.000 HD
ENDBRANCH   5  19
ENDBRANCH   1  10
BRANCH   2  22
ATOM     22  C   UNL     1       2.104   8.315  18.580  0.00  0.00    +0.000 A 
ATOM     23  C   UNL     1       1.508   8.386  19.845  0.00  0.00    +0.000 A 
ATOM     24  C   UNL     1       0.752   9.499  20.223  0.00  0.00    +0.000 A 
ATOM     25  C   UNL     1       0.584  10.587  19.363  0.00  0.00    +0.000 A 
ATOM     26  C   UNL     1       1.233  10.518  18.115  0.00  0.00    +0.000 A 
ATOM     27  C   UNL     1       1.981   9.396  17.714  0.00  0.00    +0.000 A 
BRANCH  25  28
ATOM     28  N   UNL     1      -0.172  11.717  19.697  0.00  0.00    +0.000 N 
ATOM     29  C   UNL     1       0.311  12.634  20.744  0.00  0.00    +0.000 C 
ATOM     30  C   UNL     1      -0.667  12.454  21.894  0.00  0.00    +0.000 C 
ATOM     31  C   UNL     1      -1.990  12.292  21.165  0.00  0.00    +0.000 C 
ATOM     32  C   UNL     1      -1.635  11.452  19.919  0.00  0.00    +0.000 C 
BRANCH  32  33
ATOM     33  C   UNL     1      -2.443  11.872  18.659  0.00  0.00    +0.000 C 
BRANCH  33  34
ATOM     34  N   UNL     1      -3.408  10.909  18.077  0.00  0.00    +0.000 NA
ATOM     35  C   UNL     1      -2.781   9.673  17.584  0.00  0.00    +0.000 C 
ATOM     36  C   UNL     1      -2.379   9.957  16.150  0.00  0.00    +0.000 C 
ATOM     37  C   UNL     1      -3.495  10.846  15.645  0.00  0.00    +0.000 C 
ATOM     38  C   UNL     1      -4.059  11.518  16.895  0.00  0.00    +0.000 C 
ENDBRANCH  33  34
ENDBRANCH  32  33
ENDBRANCH  25  28
ENDBRANCH   2  22
TORSDOF 6
ENDMDL
MODEL 5
REMARK VINA RESULT:      -9.0      2.785     11.638
REMARK  Name = 
REMARK  7 active torsions:
REMARK  status: ('A' for Active; 'I' for Inactive)
REMARK    1  A    between atoms: C_1  and  N_2
REMARK    2  A    between atoms: C_7  and  C_8
REMARK    3  A    between atoms: C_13  and  N_14
REMARK    4  A    between atoms: C_15  and  C_17
REMARK    5  A    between atoms: C_20  and  N_21
REMARK    6  A    between atoms: C_25  and  C_26
REMARK    7  A    between atoms: C_26  and  N_27
REMARK                            x       y       z     vdW  Elec       q    Type
REMARK                         _______ _______ _______ _____ _____    ______ ____
ROOT
ATOM      1  N   UNL     1       2.219   6.506  20.364  0.00  0.00    +0.000 N 
ATOM      2  C   UNL     1       1.924   7.634  19.607  0.00  0.00    +0.000 C 
ATOM      3  O   UNL     1       2.227   7.780  18.428  0.00  0.00    +0.000 OA
ATOM      4  H   UNL     1       1.916   6.455  21.330  0.00  0.00    +0.000 HD
ENDROOT
BRANCH   1  10
ATOM      5  C   UNL     1       4.646   4.250  18.556  0.00  0.00    +0.000 A 
ATOM      6  C   UNL     1       4.394   3.091  19.194  0.00  0.00    +0.000 A 
ATOM      7  N   UNL     1       3.439   3.020  20.181  0.00  0.00    +0.000 N 
ATOM      8  C   UNL     1       2.655   4.072  20.577  0.00  0.00    +0.000 A 
ATOM      9  O   UNL     1       1.763   3.964  21.424  0.00  0.00    +0.000 OA
ATOM     10  C   UNL     1       2.950   5.405  19.938  0.00  0.00    +0.000 A 
ATOM     11  C   UNL     1       3.928   5.431  19.017  0.00  0.00    +0.000 A 
ATOM     12  H   UNL     1       3.245   2.128  20.619  0.00  0.00    +0.000 HD
BRANCH   5  19
ATOM     13  C   UNL     1       6.196   3.595  12.771  0.00  0.00    +0.000 C 
ATOM     14  N   UNL     1       5.365   4.071  13.855  0.00  0.00    +0.000 N 
ATOM     15  C   UNL     1       5.923   4.224  15.115  0.00  0.00    +0.000 A 
ATOM     16  C   UNL     1       7.260   4.564  15.337  0.00  0.00    +0.000 A 
ATOM     17  N   UNL     1       7.803   4.735  16.563  0.00  0.00    +0.000 NA
ATOM     18  C   UNL     1       6.929   4.593  17.583  0.00  0.00    +0.000 A 
ATOM     19  C   UNL     1       5.579   4.288  17.400  0.00  0.00    +0.000 A 
ATOM     20  N   UNL     1       5.069   4.090  16.154  0.00  0.00    +0.000 NA
ATOM     21  H   UNL     1       4.454   3.631  13.958  0.00  0.00    +0.000 HD
ENDBRANCH   5  19
ENDBRANCH   1  10
BRANCH   2  22
ATOM     22  C   UNL     1       1.259   8.771  20.280  0.00  0.00    +0.000 A 
ATOM     23  C   UNL     1       1.147   8.695  21.673  0.00  0.00    +0.000 A 
ATOM     24  C   UNL     1       0.517   9.708  22.401  0.00  0.00    +0.000 A 
ATOM     25  C   UNL     1      -0.001  10.841  21.768  0.00  0.00    +0.000 A 
ATOM     26  C   UNL     1       0.169  10.923  20.372  0.00  0.00    +0.000 A 
ATOM     27  C   UNL     1       0.783   9.902  19.625  0.00  0.00    +0.000 A 
BRANCH  25  28
ATOM     28  N   UNL     1      -0.647  11.874  22.457  0.00  0.00    +0.000 N 
ATOM     29  C   UNL     1      -1.874  11.588  23.218  0.00  0.00    +0.000 C 
ATOM     30  C   UNL     1      -2.977  12.299  22.453  0.00  0.00    +0.000 C 
ATOM     31  C   UNL     1      -2.286  13.579  22.012  0.00  0.00    +0.000 C 
ATOM     32  C   UNL     1      -0.853  13.130  21.657  0.00  0.00    +0.000 C 
BRANCH  32  33
ATOM     33  C   UNL     1       0.222  14.185  22.046  0.00  0.00    +0.000 C 
BRANCH  33  34
ATOM     34  N   UNL     1       1.031  14.809  20.972  0.00  0.00    +0.000 NA
ATOM     35  C   UNL     1       1.068  16.278  21.042  0.00  0.00    +0.000 C 
ATOM     36  C   UNL     1      -0.135  16.759  20.254  0.00  0.00    +0.000 C 
ATOM     37  C   UNL     1      -0.232  15.760  19.121  0.00  0.00    +0.000 C 
ATOM     38  C   UNL     1       0.431  14.493  19.657  0.00  0.00    +0.000 C 
ENDBRANCH  33  34
ENDBRANCH  32  33
ENDBRANCH  25  28
ENDBRANCH   2  22
TORSDOF 6
ENDMDL
MODEL 6
REMARK VINA RESULT:      -8.9      2.744     11.606
REMARK  Name = 
REMARK  7 active torsions:
REMARK  status: ('A' for Active; 'I' for Inactive)
REMARK    1  A    between atoms: C_1  and  N_2
REMARK    2  A    between atoms: C_7  and  C_8
REMARK    3  A    between atoms: C_13  and  N_14
REMARK    4  A    between atoms: C_15  and  C_17
REMARK    5  A    between atoms: C_20  and  N_21
REMARK    6  A    between atoms: C_25  and  C_26
REMARK    7  A    between atoms: C_26  and  N_27
REMARK                            x       y       z     vdW  Elec       q    Type
REMARK                         _______ _______ _______ _____ _____    ______ ____
ROOT
ATOM      1  N   UNL     1       2.228   6.513  20.346  0.00  0.00    +0.000 N 
ATOM      2  C   UNL     1       1.932   7.639  19.587  0.00  0.00    +0.000 C 
ATOM      3  O   UNL     1       2.231   7.781  18.406  0.00  0.00    +0.000 OA
ATOM      4  H   UNL     1       1.927   6.465  21.313  0.00  0.00    +0.000 HD
ENDROOT
BRANCH   1  10
ATOM      5  C   UNL     1       4.646   4.249  18.538  0.00  0.00    +0.000 A 
ATOM      6  C   UNL     1       4.395   3.092  19.179  0.00  0.00    +0.000 A 
ATOM      7  N   UNL     1       3.441   3.024  20.169  0.00  0.00    +0.000 N 
ATOM      8  C   UNL     1       2.660   4.079  20.565  0.00  0.00    +0.000 A 
ATOM      9  O   UNL     1       1.770   3.974  21.413  0.00  0.00    +0.000 OA
ATOM     10  C   UNL     1       2.956   5.409  19.921  0.00  0.00    +0.000 A 
ATOM     11  C   UNL     1       3.931   5.432  18.998  0.00  0.00    +0.000 A 
ATOM     12  H   UNL     1       3.247   2.134  20.610  0.00  0.00    +0.000 HD
BRANCH   5  19
ATOM     13  C   UNL     1       6.185   3.565  12.753  0.00  0.00    +0.000 C 
ATOM     14  N   UNL     1       5.355   4.045  13.836  0.00  0.00    +0.000 N 
ATOM     15  C   UNL     1       5.916   4.206  15.094  0.00  0.00    +0.000 A 
ATOM     16  C   UNL     1       7.252   4.550  15.311  0.00  0.00    +0.000 A 
ATOM     17  N   UNL     1       7.798   4.729  16.535  0.00  0.00    +0.000 NA
ATOM     18  C   UNL     1       6.927   4.591  17.558  0.00  0.00    +0.000 A 
ATOM     19  C   UNL     1       5.577   4.282  17.380  0.00  0.00    +0.000 A 
ATOM     20  N   UNL     1       5.064   4.076  16.136  0.00  0.00    +0.000 NA
ATOM     21  H   UNL     1       4.445   3.603  13.944  0.00  0.00    +0.000 HD
ENDBRANCH   5  19
ENDBRANCH   1  10
BRANCH   2  22
ATOM     22  C   UNL     1       1.270   8.779  20.258  0.00  0.00    +0.000 A 
ATOM     23  C   UNL     1       0.923   9.866  19.447  0.00  0.00    +0.000 A 
ATOM     24  C   UNL     1       0.313  11.001  19.987  0.00  0.00    +0.000 A 
ATOM     25  C   UNL     1       0.007  11.082  21.348  0.00  0.00    +0.000 A 
ATOM     26  C   UNL     1       0.317   9.957  22.137  0.00  0.00    +0.000 A 
ATOM     27  C   UNL     1       0.950   8.816  21.610  0.00  0.00    +0.000 A 
BRANCH  25  28
ATOM     28  N   UNL     1      -0.595  12.202  21.932  0.00  0.00    +0.000 N 
ATOM     29  C   UNL     1      -1.413  12.041  23.146  0.00  0.00    +0.000 C 
ATOM     30  C   UNL     1      -2.834  12.333  22.696  0.00  0.00    +0.000 C 
ATOM     31  C   UNL     1      -2.628  13.470  21.708  0.00  0.00    +0.000 C 
ATOM     32  C   UNL     1      -1.325  13.097  20.970  0.00  0.00    +0.000 C 
BRANCH  32  33
ATOM     33  C   UNL     1      -0.447  14.336  20.634  0.00  0.00    +0.000 C 
BRANCH  33  34
ATOM     34  N   UNL     1      -0.103  14.604  19.218  0.00  0.00    +0.000 NA
ATOM     35  C   UNL     1       1.326  14.431  18.917  0.00  0.00    +0.000 C 
ATOM     36  C   UNL     1       1.974  15.771  19.205  0.00  0.00    +0.000 C 
ATOM     37  C   UNL     1       0.920  16.768  18.774  0.00  0.00    +0.000 C 
ATOM     38  C   UNL     1      -0.405  16.017  18.897  0.00  0.00    +0.000 C 
ENDBRANCH  33  34
ENDBRANCH  32  33
ENDBRANCH  25  28
ENDBRANCH   2  22
TORSDOF 6
ENDMDL
MODEL 7
REMARK VINA RESULT:      -8.9      2.300      3.715
REMARK  Name = 
REMARK  7 active torsions:
REMARK  status: ('A' for Active; 'I' for Inactive)
REMARK    1  A    between atoms: C_1  and  N_2
REMARK    2  A    between atoms: C_7  and  C_8
REMARK    3  A    between atoms: C_13  and  N_14
REMARK    4  A    between atoms: C_15  and  C_17
REMARK    5  A    between atoms: C_20  and  N_21
REMARK    6  A    between atoms: C_25  and  C_26
REMARK    7  A    between atoms: C_26  and  N_27
REMARK                            x       y       z     vdW  Elec       q    Type
REMARK                         _______ _______ _______ _____ _____    ______ ____
ROOT
ATOM      1  N   UNL     1       0.919  10.227  20.862  0.00  0.00    +0.000 N 
ATOM      2  C   UNL     1       0.746   9.669  19.601  0.00  0.00    +0.000 C 
ATOM      3  O   UNL     1      -0.180   9.932  18.843  0.00  0.00    +0.000 OA
ATOM      4  H   UNL     1       1.725   9.971  21.420  0.00  0.00    +0.000 HD
ENDROOT
BRANCH   1  10
ATOM      5  C   UNL     1      -1.100  13.281  21.781  0.00  0.00    +0.000 A 
ATOM      6  C   UNL     1      -1.780  12.793  22.836  0.00  0.00    +0.000 A 
ATOM      7  N   UNL     1      -1.580  11.503  23.272  0.00  0.00    +0.000 N 
ATOM      8  C   UNL     1      -0.681  10.629  22.716  0.00  0.00    +0.000 A 
ATOM      9  O   UNL     1      -0.480   9.498  23.165  0.00  0.00    +0.000 OA
ATOM     10  C   UNL     1       0.050  11.111  21.489  0.00  0.00    +0.000 A 
ATOM     11  C   UNL     1      -0.219  12.360  21.075  0.00  0.00    +0.000 A 
ATOM     12  H   UNL     1      -2.077  11.173  24.089  0.00  0.00    +0.000 HD
BRANCH   5  19
ATOM     13  C   UNL     1      -0.568  18.015  18.093  0.00  0.00    +0.000 C 
ATOM     14  N   UNL     1      -0.970  16.670  18.442  0.00  0.00    +0.000 N 
ATOM     15  C   UNL     1      -1.178  16.355  19.776  0.00  0.00    +0.000 A 
ATOM     16  C   UNL     1      -1.642  17.267  20.728  0.00  0.00    +0.000 A 
ATOM     17  N   UNL     1      -1.867  16.959  22.024  0.00  0.00    +0.000 NA
ATOM     18  C   UNL     1      -1.649  15.663  22.333  0.00  0.00    +0.000 A 
ATOM     19  C   UNL     1      -1.220  14.713  21.404  0.00  0.00    +0.000 A 
ATOM     20  N   UNL     1      -0.971  15.062  20.112  0.00  0.00    +0.000 NA
ATOM     21  H   UNL     1      -0.447  15.911  18.011  0.00  0.00    +0.000 HD
ENDBRANCH   5  19
ENDBRANCH   1  10
BRANCH   2  22
ATOM     22  C   UNL     1       1.705   8.632  19.160  0.00  0.00    +0.000 A 
ATOM     23  C   UNL     1       1.927   7.569  20.044  0.00  0.00    +0.000 A 
ATOM     24  C   UNL     1       2.830   6.549  19.731  0.00  0.00    +0.000 A 
ATOM     25  C   UNL     1       3.523   6.541  18.518  0.00  0.00    +0.000 A 
ATOM     26  C   UNL     1       3.247   7.592  17.621  0.00  0.00    +0.000 A 
ATOM     27  C   UNL     1       2.356   8.635  17.931  0.00  0.00    +0.000 A 
BRANCH  25  28
ATOM     28  N   UNL     1       4.441   5.545  18.168  0.00  0.00    +0.000 N 
ATOM     29  C   UNL     1       5.397   5.786  17.073  0.00  0.00    +0.000 C 
ATOM     30  C   UNL     1       4.956   4.846  15.964  0.00  0.00    +0.000 C 
ATOM     31  C   UNL     1       4.536   3.610  16.741  0.00  0.00    +0.000 C 
ATOM     32  C   UNL     1       3.850   4.173  18.003  0.00  0.00    +0.000 C 
BRANCH  32  33
ATOM     33  C   UNL     1       4.133   3.322  19.273  0.00  0.00    +0.000 C 
BRANCH  33  34
ATOM     34  N   UNL     1       3.084   2.394  19.759  0.00  0.00    +0.000 NA
ATOM     35  C   UNL     1       1.858   2.415  18.946  0.00  0.00    +0.000 C 
ATOM     36  C   UNL     1       0.993   3.512  19.534  0.00  0.00    +0.000 C 
ATOM     37  C   UNL     1       1.271   3.419  21.018  0.00  0.00    +0.000 C 
ATOM     38  C   UNL     1       2.662   2.796  21.119  0.00  0.00    +0.000 C 
ENDBRANCH  33  34
ENDBRANCH  32  33
ENDBRANCH  25  28
ENDBRANCH   2  22
TORSDOF 6
ENDMDL
MODEL 8
REMARK VINA RESULT:      -8.9      1.948      3.403
REMARK  Name = 
REMARK  7 active torsions:
REMARK  status: ('A' for Active; 'I' for Inactive)
REMARK    1  A    between atoms: C_1  and  N_2
REMARK    2  A    between atoms: C_7  and  C_8
REMARK    3  A    between atoms: C_13  and  N_14
REMARK    4  A    between atoms: C_15  and  C_17
REMARK    5  A    between atoms: C_20  and  N_21
REMARK    6  A    between atoms: C_25  and  C_26
REMARK    7  A    between atoms: C_26  and  N_27
REMARK                            x       y       z     vdW  Elec       q    Type
REMARK                         _______ _______ _______ _____ _____    ______ ____
ROOT
ATOM      1  N   UNL     1       0.720   9.938  20.128  0.00  0.00    +0.000 N 
ATOM      2  C   UNL     1       1.333   8.965  20.908  0.00  0.00    +0.000 C 
ATOM      3  O   UNL     1       1.680   9.123  22.074  0.00  0.00    +0.000 OA
ATOM      4  H   UNL     1       0.445   9.721  19.177  0.00  0.00    +0.000 HD
ENDROOT
BRANCH   1  10
ATOM      5  C   UNL     1      -0.671  13.008  21.827  0.00  0.00    +0.000 A 
ATOM      6  C   UNL     1       0.067  13.956  21.219  0.00  0.00    +0.000 A 
ATOM      7  N   UNL     1       0.989  13.625  20.253  0.00  0.00    +0.000 N 
ATOM      8  C   UNL     1       1.217  12.348  19.807  0.00  0.00    +0.000 A 
ATOM      9  O   UNL     1       2.008  12.087  18.896  0.00  0.00    +0.000 OA
ATOM     10  C   UNL     1       0.463  11.249  20.509  0.00  0.00    +0.000 A 
ATOM     11  C   UNL     1      -0.387  11.621  21.481  0.00  0.00    +0.000 A 
ATOM     12  H   UNL     1       1.504  14.360  19.786  0.00  0.00    +0.000 HD
BRANCH   5  19
ATOM     13  C   UNL     1      -6.309  12.966  23.949  0.00  0.00    +0.000 C 
ATOM     14  N   UNL     1      -5.091  12.354  23.465  0.00  0.00    +0.000 N 
ATOM     15  C   UNL     1      -3.898  13.051  23.576  0.00  0.00    +0.000 A 
ATOM     16  C   UNL     1      -3.617  13.953  24.606  0.00  0.00    +0.000 A 
ATOM     17  N   UNL     1      -2.447  14.618  24.730  0.00  0.00    +0.000 NA
ATOM     18  C   UNL     1      -1.528  14.307  23.791  0.00  0.00    +0.000 A 
ATOM     19  C   UNL     1      -1.758  13.386  22.768  0.00  0.00    +0.000 A 
ATOM     20  N   UNL     1      -2.959  12.756  22.650  0.00  0.00    +0.000 NA
ATOM     21  H   UNL     1      -5.130  11.929  22.542  0.00  0.00    +0.000 HD
ENDBRANCH   5  19
ENDBRANCH   1  10
BRANCH   2  22
ATOM     22  C   UNL     1       1.656   7.666  20.278  0.00  0.00    +0.000 A 
ATOM     23  C   UNL     1       2.189   7.714  18.985  0.00  0.00    +0.000 A 
ATOM     24  C   UNL     1       2.508   6.543  18.294  0.00  0.00    +0.000 A 
ATOM     25  C   UNL     1       2.330   5.285  18.876  0.00  0.00    +0.000 A 
ATOM     26  C   UNL     1       1.841   5.261  20.197  0.00  0.00    +0.000 A 
ATOM     27  C   UNL     1       1.496   6.432  20.897  0.00  0.00    +0.000 A 
BRANCH  25  28
ATOM     28  N   UNL     1       2.627   4.087  18.218  0.00  0.00    +0.000 N 
ATOM     29  C   UNL     1       1.571   3.079  18.023  0.00  0.00    +0.000 C 
ATOM     30  C   UNL     1       1.974   1.920  18.918  0.00  0.00    +0.000 C 
ATOM     31  C   UNL     1       3.485   1.905  18.760  0.00  0.00    +0.000 C 
ATOM     32  C   UNL     1       3.873   3.398  18.700  0.00  0.00    +0.000 C 
BRANCH  32  33
ATOM     33  C   UNL     1       5.043   3.677  17.714  0.00  0.00    +0.000 C 
BRANCH  33  34
ATOM     34  N   UNL     1       6.288   4.288  18.238  0.00  0.00    +0.000 NA
ATOM     35  C   UNL     1       6.070   5.576  18.915  0.00  0.00    +0.000 C 
ATOM     36  C   UNL     1       6.149   6.631  17.830  0.00  0.00    +0.000 C 
ATOM     37  C   UNL     1       7.217   6.096  16.900  0.00  0.00    +0.000 C 
ATOM     38  C   UNL     1       7.203   4.584  17.114  0.00  0.00    +0.000 C 
ENDBRANCH  33  34
ENDBRANCH  32  33
ENDBRANCH  25  28
ENDBRANCH   2  22
TORSDOF 6
ENDMDL
MODEL 9
REMARK VINA RESULT:      -8.8      1.429      1.966
REMARK  Name = 
REMARK  7 active torsions:
REMARK  status: ('A' for Active; 'I' for Inactive)
REMARK    1  A    between atoms: C_1  and  N_2
REMARK    2  A    between atoms: C_7  and  C_8
REMARK    3  A    between atoms: C_13  and  N_14
REMARK    4  A    between atoms: C_15  and  C_17
REMARK    5  A    between atoms: C_20  and  N_21
REMARK    6  A    between atoms: C_25  and  C_26
REMARK    7  A    between atoms: C_26  and  N_27
REMARK                            x       y       z     vdW  Elec       q    Type
REMARK                         _______ _______ _______ _____ _____    ______ ____
ROOT
ATOM      1  N   UNL     1       0.556  10.643  18.924  0.00  0.00    +0.000 N 
ATOM      2  C   UNL     1       0.801   9.496  19.669  0.00  0.00    +0.000 C 
ATOM      3  O   UNL     1       0.298   9.253  20.761  0.00  0.00    +0.000 OA
ATOM      4  H   UNL     1       0.997  10.759  18.019  0.00  0.00    +0.000 HD
ENDROOT
BRANCH   1  10
ATOM      5  C   UNL     1      -2.305  12.777  20.150  0.00  0.00    +0.000 A 
ATOM      6  C   UNL     1      -1.713  13.987  20.120  0.00  0.00    +0.000 A 
ATOM      7  N   UNL     1      -0.415  14.129  19.689  0.00  0.00    +0.000 N 
ATOM      8  C   UNL     1       0.367  13.098  19.234  0.00  0.00    +0.000 A 
ATOM      9  O   UNL     1       1.508  13.264  18.796  0.00  0.00    +0.000 OA
ATOM     10  C   UNL     1      -0.233  11.718  19.315  0.00  0.00    +0.000 A 
ATOM     11  C   UNL     1      -1.485  11.628  19.792  0.00  0.00    +0.000 A 
ATOM     12  H   UNL     1      -0.006  15.054  19.642  0.00  0.00    +0.000 HD
BRANCH   5  19
ATOM     13  C   UNL     1      -7.043  12.551  23.864  0.00  0.00    +0.000 C 
ATOM     14  N   UNL     1      -5.822  13.119  23.339  0.00  0.00    +0.000 N 
ATOM     15  C   UNL     1      -5.457  12.840  22.031  0.00  0.00    +0.000 A 
ATOM     16  C   UNL     1      -6.372  12.610  21.001  0.00  0.00    +0.000 A 
ATOM     17  N   UNL     1      -6.022  12.359  19.720  0.00  0.00    +0.000 NA
ATOM     18  C   UNL     1      -4.691  12.390  19.491  0.00  0.00    +0.000 A 
ATOM     19  C   UNL     1      -3.747  12.651  20.486  0.00  0.00    +0.000 A 
ATOM     20  N   UNL     1      -4.130  12.869  21.774  0.00  0.00    +0.000 NA
ATOM     21  H   UNL     1      -4.994  13.044  23.927  0.00  0.00    +0.000 HD
ENDBRANCH   5  19
ENDBRANCH   1  10
BRANCH   2  22
ATOM     22  C   UNL     1       1.788   8.523  19.149  0.00  0.00    +0.000 A 
ATOM     23  C   UNL     1       2.059   7.414  19.959  0.00  0.00    +0.000 A 
ATOM     24  C   UNL     1       2.990   6.448  19.569  0.00  0.00    +0.000 A 
ATOM     25  C   UNL     1       3.665   6.543  18.349  0.00  0.00    +0.000 A 
ATOM     26  C   UNL     1       3.340   7.639  17.526  0.00  0.00    +0.000 A 
ATOM     27  C   UNL     1       2.419   8.629  17.915  0.00  0.00    +0.000 A 
BRANCH  25  28
ATOM     28  N   UNL     1       4.611   5.604  17.923  0.00  0.00    +0.000 N 
ATOM     29  C   UNL     1       5.631   5.993  16.934  0.00  0.00    +0.000 C 
ATOM     30  C   UNL     1       5.268   5.216  15.680  0.00  0.00    +0.000 C 
ATOM     31  C   UNL     1       4.810   3.884  16.252  0.00  0.00    +0.000 C 
ATOM     32  C   UNL     1       4.042   4.269  17.534  0.00  0.00    +0.000 C 
BRANCH  32  33
ATOM     33  C   UNL     1       4.252   3.250  18.690  0.00  0.00    +0.000 C 
BRANCH  33  34
ATOM     34  N   UNL     1       3.164   2.294  19.006  0.00  0.00    +0.000 NA
ATOM     35  C   UNL     1       2.017   2.385  18.089  0.00  0.00    +0.000 C 
ATOM     36  C   UNL     1       1.101   3.440  18.678  0.00  0.00    +0.000 C 
ATOM     37  C   UNL     1       1.243   3.232  20.170  0.00  0.00    +0.000 C 
ATOM     38  C   UNL     1       2.620   2.594  20.349  0.00  0.00    +0.000 C 
ENDBRANCH  33  34
ENDBRANCH  32  33
ENDBRANCH  25  28
ENDBRANCH   2  22
TORSDOF 6
ENDMDL
