MODEL 1
REMARK VINA RESULT:      -6.8      0.000      0.000
REMARK  Name = 
REMARK  12 active torsions:
REMARK  status: ('A' for Active; 'I' for Inactive)
REMARK    1  A    between atoms: C_1  and  C_2
REMARK    2  A    between atoms: C_2  and  N_3
REMARK    3  A    between atoms: N_3  and  C_4
REMARK    4  A    between atoms: N_3  and  C_7
REMARK    5  A    between atoms: C_4  and  C_5
REMARK    6  A    between atoms: C_5  and  O_6
REMARK    7  A    between atoms: C_7  and  C_8
REMARK    8  A    between atoms: C_8  and  C_9
REMARK    9  A    between atoms: C_9  and  C_10
REMARK   10  A    between atoms: C_10  and  C_11
REMARK   11  A    between atoms: C_10  and  N_12
REMARK   12  A    between atoms: N_12  and  C_13
REMARK                            x       y       z     vdW  Elec       q    Type
REMARK                         _______ _______ _______ _____ _____    ______ ____
ROOT
ATOM      1  N   UNL     1       2.515   6.812  20.245  0.00  0.00    +0.000 N 
ATOM      2  H   UNL     1       3.386   6.938  20.746  0.00  0.00    +0.000 HD
ENDROOT
BRANCH   1   3
ATOM      3  C   UNL     1       1.961   8.017  19.770  0.00  0.00    +0.000 A 
ATOM      4  C   UNL     1       1.992   8.339  18.415  0.00  0.00    +0.000 A 
ATOM      5  C   UNL     1       1.396   9.501  17.963  0.00  0.00    +0.000 A 
ATOM      6  N   UNL     1       0.683  10.320  18.744  0.00  0.00    +0.000 NA
ATOM      7  C   UNL     1       0.547   9.995  20.037  0.00  0.00    +0.000 A 
ATOM      8  C   UNL     1      -0.283  10.795  20.800  0.00  0.00    +0.000 A 
ATOM      9  C   UNL     1      -0.492  10.541  22.150  0.00  0.00    +0.000 A 
ATOM     10 CL   UNL     1      -1.598  11.508  23.046  0.00  0.00    +0.000 Cl
ATOM     11  C   UNL     1       0.176   9.497  22.771  0.00  0.00    +0.000 A 
ATOM     12  C   UNL     1       1.012   8.671  22.020  0.00  0.00    +0.000 A 
ATOM     13  C   UNL     1       1.192   8.869  20.627  0.00  0.00    +0.000 A 
ENDBRANCH   1   3
BRANCH   1  14
ATOM     14  C   UNL     1       2.539   5.602  19.408  0.00  0.00    +0.000 C 
ATOM     15  C   UNL     1       1.630   4.560  20.062  0.00  0.00    +0.000 C 
BRANCH  14  16
ATOM     16  C   UNL     1       3.990   5.104  19.284  0.00  0.00    +0.000 C 
BRANCH  16  17
ATOM     17  C   UNL     1       4.471   4.906  17.840  0.00  0.00    +0.000 C 
BRANCH  17  18
ATOM     18  C   UNL     1       4.633   6.209  17.028  0.00  0.00    +0.000 C 
BRANCH  18  19
ATOM     19  N   UNL     1       5.986   6.446  16.471  0.00  0.00    +0.000 NA
BRANCH  19  21
ATOM     20  C   UNL     1       7.781   6.809  18.247  0.00  0.00    +0.000 C 
ATOM     21  C   UNL     1       6.711   7.408  17.340  0.00  0.00    +0.000 C 
ENDBRANCH  19  21
BRANCH  19  22
ATOM     22  C   UNL     1       6.752   5.171  16.367  0.00  0.00    +0.000 C 
BRANCH  22  23
ATOM     23  C   UNL     1       6.985   4.666  14.931  0.00  0.00    +0.000 C 
BRANCH  23  24
ATOM     24  O   UNL     1       7.863   5.541  14.232  0.00  0.00    +0.000 OA
ATOM     25  H   UNL     1       8.700   5.039  14.148  0.00  0.00    +0.000 HD
ENDBRANCH  23  24
ENDBRANCH  22  23
ENDBRANCH  19  22
ENDBRANCH  18  19
ENDBRANCH  17  18
ENDBRANCH  16  17
ENDBRANCH  14  16
ENDBRANCH   1  14
TORSDOF 10
ENDMDL
MODEL 2
REMARK VINA RESULT:      -6.7      1.551      2.045
REMARK  Name = 
REMARK  12 active torsions:
REMARK  status: ('A' for Active; 'I' for Inactive)
REMARK    1  A    between atoms: C_1  and  C_2
REMARK    2  A    between atoms: C_2  and  N_3
REMARK    3  A    between atoms: N_3  and  C_4
REMARK    4  A    between atoms: N_3  and  C_7
REMARK    5  A    between atoms: C_4  and  C_5
REMARK    6  A    between atoms: C_5  and  O_6
REMARK    7  A    between atoms: C_7  and  C_8
REMARK    8  A    between atoms: C_8  and  C_9
REMARK    9  A    between atoms: C_9  and  C_10
REMARK   10  A    between atoms: C_10  and  C_11
REMARK   11  A    between atoms: C_10  and  N_12
REMARK   12  A    between atoms: N_12  and  C_13
REMARK                            x       y       z     vdW  Elec       q    Type
REMARK                         _______ _______ _______ _____ _____    ______ ____
ROOT
ATOM      1  N   UNL     1       2.043   6.873  20.658  0.00  0.00    +0.000 N 
ATOM      2  H   UNL     1       2.752   6.939  21.379  0.00  0.00    +0.000 HD
ENDROOT
BRANCH   1   3
ATOM      3  C   UNL     1       1.677   8.119  20.114  0.00  0.00    +0.000 A 
ATOM      4  C   UNL     1       1.870   8.399  18.762  0.00  0.00    +0.000 A 
ATOM      5  C   UNL     1       1.456   9.608  18.237  0.00  0.00    +0.000 A 
ATOM      6  N   UNL     1       0.773  10.523  18.934  0.00  0.00    +0.000 NA
ATOM      7  C   UNL     1       0.482  10.250  20.213  0.00  0.00    +0.000 A 
ATOM      8  C   UNL     1      -0.319  11.159  20.881  0.00  0.00    +0.000 A 
ATOM      9  C   UNL     1      -0.679  10.966  22.208  0.00  0.00    +0.000 A 
ATOM     10 CL   UNL     1      -1.745  12.076  22.979  0.00  0.00    +0.000 Cl
ATOM     11  C   UNL     1      -0.196   9.872  22.906  0.00  0.00    +0.000 A 
ATOM     12  C   UNL     1       0.606   8.936  22.252  0.00  0.00    +0.000 A 
ATOM     13  C   UNL     1       0.936   9.075  20.879  0.00  0.00    +0.000 A 
ENDBRANCH   1   3
BRANCH   1  14
ATOM     14  C   UNL     1       2.250   5.696  19.799  0.00  0.00    +0.000 C 
ATOM     15  C   UNL     1       1.505   4.518  20.428  0.00  0.00    +0.000 C 
BRANCH  14  16
ATOM     16  C   UNL     1       3.759   5.423  19.674  0.00  0.00    +0.000 C 
BRANCH  16  17
ATOM     17  C   UNL     1       4.167   4.697  18.384  0.00  0.00    +0.000 C 
BRANCH  17  18
ATOM     18  C   UNL     1       5.355   5.333  17.632  0.00  0.00    +0.000 C 
BRANCH  18  19
ATOM     19  N   UNL     1       6.435   4.394  17.242  0.00  0.00    +0.000 NA
BRANCH  19  21
ATOM     20  C   UNL     1       5.686   5.382  15.013  0.00  0.00    +0.000 C 
ATOM     21  C   UNL     1       6.642   4.469  15.773  0.00  0.00    +0.000 C 
ENDBRANCH  19  21
BRANCH  19  22
ATOM     22  C   UNL     1       7.704   4.712  17.956  0.00  0.00    +0.000 C 
BRANCH  22  23
ATOM     23  C   UNL     1       7.626   5.908  18.924  0.00  0.00    +0.000 C 
BRANCH  23  24
ATOM     24  O   UNL     1       7.816   5.474  20.267  0.00  0.00    +0.000 OA
ATOM     25  H   UNL     1       7.278   6.089  20.806  0.00  0.00    +0.000 HD
ENDBRANCH  23  24
ENDBRANCH  22  23
ENDBRANCH  19  22
ENDBRANCH  18  19
ENDBRANCH  17  18
ENDBRANCH  16  17
ENDBRANCH  14  16
ENDBRANCH   1  14
TORSDOF 10
ENDMDL
MODEL 3
REMARK VINA RESULT:      -6.6      1.059      1.126
REMARK  Name = 
REMARK  12 active torsions:
REMARK  status: ('A' for Active; 'I' for Inactive)
REMARK    1  A    between atoms: C_1  and  C_2
REMARK    2  A    between atoms: C_2  and  N_3
REMARK    3  A    between atoms: N_3  and  C_4
REMARK    4  A    between atoms: N_3  and  C_7
REMARK    5  A    between atoms: C_4  and  C_5
REMARK    6  A    between atoms: C_5  and  O_6
REMARK    7  A    between atoms: C_7  and  C_8
REMARK    8  A    between atoms: C_8  and  C_9
REMARK    9  A    between atoms: C_9  and  C_10
REMARK   10  A    between atoms: C_10  and  C_11
REMARK   11  A    between atoms: C_10  and  N_12
REMARK   12  A    between atoms: N_12  and  C_13
REMARK                            x       y       z     vdW  Elec       q    Type
REMARK                         _______ _______ _______ _____ _____    ______ ____
ROOT
ATOM      1  N   UNL     1       2.691   6.159  20.186  0.00  0.00    +0.000 N 
ATOM      2  H   UNL     1       3.643   6.162  20.534  0.00  0.00    +0.000 HD
ENDROOT
BRANCH   1   3
ATOM      3  C   UNL     1       2.307   7.375  19.590  0.00  0.00    +0.000 A 
ATOM      4  C   UNL     1       2.513   7.608  18.232  0.00  0.00    +0.000 A 
ATOM      5  C   UNL     1       2.081   8.788  17.656  0.00  0.00    +0.000 A 
ATOM      6  N   UNL     1       1.368   9.713  18.308  0.00  0.00    +0.000 NA
ATOM      7  C   UNL     1       1.064   9.482  19.592  0.00  0.00    +0.000 A 
ATOM      8  C   UNL     1       0.235  10.397  20.215  0.00  0.00    +0.000 A 
ATOM      9  C   UNL     1      -0.141  10.246  21.543  0.00  0.00    +0.000 A 
ATOM     10 CL   UNL     1      -1.240  11.361  22.257  0.00  0.00    +0.000 Cl
ATOM     11  C   UNL     1       0.356   9.190  22.289  0.00  0.00    +0.000 A 
ATOM     12  C   UNL     1       1.187   8.248  21.681  0.00  0.00    +0.000 A 
ATOM     13  C   UNL     1       1.534   8.342  20.309  0.00  0.00    +0.000 A 
ENDBRANCH   1   3
BRANCH   1  14
ATOM     14  C   UNL     1       2.340   4.866  19.577  0.00  0.00    +0.000 C 
ATOM     15  C   UNL     1       1.159   4.285  20.356  0.00  0.00    +0.000 C 
BRANCH  14  16
ATOM     16  C   UNL     1       3.568   3.939  19.617  0.00  0.00    +0.000 C 
BRANCH  16  17
ATOM     17  C   UNL     1       4.467   4.025  18.376  0.00  0.00    +0.000 C 
BRANCH  17  18
ATOM     18  C   UNL     1       5.673   4.978  18.515  0.00  0.00    +0.000 C 
BRANCH  18  19
ATOM     19  N   UNL     1       5.914   5.870  17.356  0.00  0.00    +0.000 NA
BRANCH  19  21
ATOM     20  C   UNL     1       7.588   7.783  17.561  0.00  0.00    +0.000 C 
ATOM     21  C   UNL     1       7.337   6.294  17.352  0.00  0.00    +0.000 C 
ENDBRANCH  19  21
BRANCH  19  22
ATOM     22  C   UNL     1       5.578   5.185  16.075  0.00  0.00    +0.000 C 
BRANCH  22  23
ATOM     23  C   UNL     1       6.760   4.479  15.384  0.00  0.00    +0.000 C 
BRANCH  23  24
ATOM     24  O   UNL     1       6.286   3.509  14.456  0.00  0.00    +0.000 OA
ATOM     25  H   UNL     1       5.750   2.892  14.994  0.00  0.00    +0.000 HD
ENDBRANCH  23  24
ENDBRANCH  22  23
ENDBRANCH  19  22
ENDBRANCH  18  19
ENDBRANCH  17  18
ENDBRANCH  16  17
ENDBRANCH  14  16
ENDBRANCH   1  14
TORSDOF 10
ENDMDL
MODEL 4
REMARK VINA RESULT:      -6.4      4.710      7.481
REMARK  Name = 
REMARK  12 active torsions:
REMARK  status: ('A' for Active; 'I' for Inactive)
REMARK    1  A    between atoms: C_1  and  C_2
REMARK    2  A    between atoms: C_2  and  N_3
REMARK    3  A    between atoms: N_3  and  C_4
REMARK    4  A    between atoms: N_3  and  C_7
REMARK    5  A    between atoms: C_4  and  C_5
REMARK    6  A    between atoms: C_5  and  O_6
REMARK    7  A    between atoms: C_7  and  C_8
REMARK    8  A    between atoms: C_8  and  C_9
REMARK    9  A    between atoms: C_9  and  C_10
REMARK   10  A    between atoms: C_10  and  C_11
REMARK   11  A    between atoms: C_10  and  N_12
REMARK   12  A    between atoms: N_12  and  C_13
REMARK                            x       y       z     vdW  Elec       q    Type
REMARK                         _______ _______ _______ _____ _____    ______ ____
ROOT
ATOM      1  N   UNL     1       6.358   7.421  17.110  0.00  0.00    +0.000 N 
ATOM      2  H   UNL     1       5.932   8.179  16.591  0.00  0.00    +0.000 HD
ENDROOT
BRANCH   1   3
ATOM      3  C   UNL     1       5.986   6.144  16.647  0.00  0.00    +0.000 A 
ATOM      4  C   UNL     1       6.877   5.350  15.928  0.00  0.00    +0.000 A 
ATOM      5  C   UNL     1       6.509   4.079  15.529  0.00  0.00    +0.000 A 
ATOM      6  N   UNL     1       5.355   3.498  15.877  0.00  0.00    +0.000 NA
ATOM      7  C   UNL     1       4.510   4.193  16.651  0.00  0.00    +0.000 A 
ATOM      8  C   UNL     1       3.377   3.534  17.089  0.00  0.00    +0.000 A 
ATOM      9  C   UNL     1       2.440   4.166  17.897  0.00  0.00    +0.000 A 
ATOM     10 CL   UNL     1       1.085   3.287  18.491  0.00  0.00    +0.000 Cl
ATOM     11  C   UNL     1       2.605   5.498  18.240  0.00  0.00    +0.000 A 
ATOM     12  C   UNL     1       3.746   6.182  17.818  0.00  0.00    +0.000 A 
ATOM     13  C   UNL     1       4.749   5.542  17.046  0.00  0.00    +0.000 A 
ENDBRANCH   1   3
BRANCH   1  14
ATOM     14  C   UNL     1       7.753   7.725  17.468  0.00  0.00    +0.000 C 
ATOM     15  C   UNL     1       8.093   6.941  18.737  0.00  0.00    +0.000 C 
BRANCH  14  16
ATOM     16  C   UNL     1       7.902   9.242  17.672  0.00  0.00    +0.000 C 
BRANCH  16  17
ATOM     17  C   UNL     1       8.953   9.641  18.717  0.00  0.00    +0.000 C 
BRANCH  17  18
ATOM     18  C   UNL     1       9.738  10.928  18.387  0.00  0.00    +0.000 C 
BRANCH  18  19
ATOM     19  N   UNL     1       9.513  12.065  19.311  0.00  0.00    +0.000 NA
BRANCH  19  21
ATOM     20  C   UNL     1       9.490  12.618  21.801  0.00  0.00    +0.000 C 
ATOM     21  C   UNL     1       9.459  11.557  20.707  0.00  0.00    +0.000 C 
ENDBRANCH  19  21
BRANCH  19  22
ATOM     22  C   UNL     1      10.592  13.085  19.178  0.00  0.00    +0.000 C 
BRANCH  22  23
ATOM     23  C   UNL     1      10.155  14.416  18.537  0.00  0.00    +0.000 C 
BRANCH  23  24
ATOM     24  O   UNL     1       9.100  14.196  17.606  0.00  0.00    +0.000 OA
ATOM     25  H   UNL     1       9.428  14.575  16.765  0.00  0.00    +0.000 HD
ENDBRANCH  23  24
ENDBRANCH  22  23
ENDBRANCH  19  22
ENDBRANCH  18  19
ENDBRANCH  17  18
ENDBRANCH  16  17
ENDBRANCH  14  16
ENDBRANCH   1  14
TORSDOF 10
ENDMDL
MODEL 5
REMARK VINA RESULT:      -6.3      1.586      2.268
REMARK  Name = 
REMARK  12 active torsions:
REMARK  status: ('A' for Active; 'I' for Inactive)
REMARK    1  A    between atoms: C_1  and  C_2
REMARK    2  A    between atoms: C_2  and  N_3
REMARK    3  A    between atoms: N_3  and  C_4
REMARK    4  A    between atoms: N_3  and  C_7
REMARK    5  A    between atoms: C_4  and  C_5
REMARK    6  A    between atoms: C_5  and  O_6
REMARK    7  A    between atoms: C_7  and  C_8
REMARK    8  A    between atoms: C_8  and  C_9
REMARK    9  A    between atoms: C_9  and  C_10
REMARK   10  A    between atoms: C_10  and  C_11
REMARK   11  A    between atoms: C_10  and  N_12
REMARK   12  A    between atoms: N_12  and  C_13
REMARK                            x       y       z     vdW  Elec       q    Type
REMARK                         _______ _______ _______ _____ _____    ______ ____
ROOT
ATOM      1  N   UNL     1       2.572   6.398  19.812  0.00  0.00    +0.000 N 
ATOM      2  H   UNL     1       3.307   6.033  19.219  0.00  0.00    +0.000 HD
ENDROOT
BRANCH   1   3
ATOM      3  C   UNL     1       2.127   7.679  19.431  0.00  0.00    +0.000 A 
ATOM      4  C   UNL     1       2.227   8.113  18.111  0.00  0.00    +0.000 A 
ATOM      5  C   UNL     1       1.736   9.354  17.748  0.00  0.00    +0.000 A 
ATOM      6  N   UNL     1       1.063  10.156  18.580  0.00  0.00    +0.000 NA
ATOM      7  C   UNL     1       0.860   9.732  19.835  0.00  0.00    +0.000 A 
ATOM      8  C   UNL     1       0.069  10.526  20.644  0.00  0.00    +0.000 A 
ATOM      9  C   UNL     1      -0.203  10.174  21.960  0.00  0.00    +0.000 A 
ATOM     10 CL   UNL     1      -1.261  11.145  22.909  0.00  0.00    +0.000 Cl
ATOM     11  C   UNL     1       0.363   9.032  22.503  0.00  0.00    +0.000 A 
ATOM     12  C   UNL     1       1.157   8.209  21.704  0.00  0.00    +0.000 A 
ATOM     13  C   UNL     1       1.398   8.512  20.340  0.00  0.00    +0.000 A 
ENDBRANCH   1   3
BRANCH   1  14
ATOM     14  C   UNL     1       1.621   5.347  20.208  0.00  0.00    +0.000 C 
ATOM     15  C   UNL     1       2.232   4.579  21.382  0.00  0.00    +0.000 C 
BRANCH  14  16
ATOM     16  C   UNL     1       1.348   4.433  19.001  0.00  0.00    +0.000 C 
BRANCH  16  17
ATOM     17  C   UNL     1       2.212   4.734  17.769  0.00  0.00    +0.000 C 
BRANCH  17  18
ATOM     18  C   UNL     1       3.491   3.877  17.651  0.00  0.00    +0.000 C 
BRANCH  18  19
ATOM     19  N   UNL     1       4.688   4.427  18.330  0.00  0.00    +0.000 NA
BRANCH  19  21
ATOM     20  C   UNL     1       4.249   2.251  19.586  0.00  0.00    +0.000 C 
ATOM     21  C   UNL     1       5.112   3.496  19.407  0.00  0.00    +0.000 C 
ENDBRANCH  19  21
BRANCH  19  22
ATOM     22  C   UNL     1       5.804   4.634  17.363  0.00  0.00    +0.000 C 
BRANCH  22  23
ATOM     23  C   UNL     1       7.163   4.979  17.999  0.00  0.00    +0.000 C 
BRANCH  23  24
ATOM     24  O   UNL     1       8.151   4.033  17.605  0.00  0.00    +0.000 OA
ATOM     25  H   UNL     1       8.242   4.156  16.638  0.00  0.00    +0.000 HD
ENDBRANCH  23  24
ENDBRANCH  22  23
ENDBRANCH  19  22
ENDBRANCH  18  19
ENDBRANCH  17  18
ENDBRANCH  16  17
ENDBRANCH  14  16
ENDBRANCH   1  14
TORSDOF 10
ENDMDL
MODEL 6
REMARK VINA RESULT:      -6.3      1.189      1.788
REMARK  Name = 
REMARK  12 active torsions:
REMARK  status: ('A' for Active; 'I' for Inactive)
REMARK    1  A    between atoms: C_1  and  C_2
REMARK    2  A    between atoms: C_2  and  N_3
REMARK    3  A    between atoms: N_3  and  C_4
REMARK    4  A    between atoms: N_3  and  C_7
REMARK    5  A    between atoms: C_4  and  C_5
REMARK    6  A    between atoms: C_5  and  O_6
REMARK    7  A    between atoms: C_7  and  C_8
REMARK    8  A    between atoms: C_8  and  C_9
REMARK    9  A    between atoms: C_9  and  C_10
REMARK   10  A    between atoms: C_10  and  C_11
REMARK   11  A    between atoms: C_10  and  N_12
REMARK   12  A    between atoms: N_12  and  C_13
REMARK                            x       y       z     vdW  Elec       q    Type
REMARK                         _______ _______ _______ _____ _____    ______ ____
ROOT
ATOM      1  N   UNL     1       2.279   6.533  20.487  0.00  0.00    +0.000 N 
ATOM      2  H   UNL     1       3.092   6.575  21.089  0.00  0.00    +0.000 HD
ENDROOT
BRANCH   1   3
ATOM      3  C   UNL     1       1.944   7.772  19.907  0.00  0.00    +0.000 A 
ATOM      4  C   UNL     1       2.162   8.016  18.553  0.00  0.00    +0.000 A 
ATOM      5  C   UNL     1       1.778   9.220  17.993  0.00  0.00    +0.000 A 
ATOM      6  N   UNL     1       1.103  10.164  18.657  0.00  0.00    +0.000 NA
ATOM      7  C   UNL     1       0.787   9.926  19.938  0.00  0.00    +0.000 A 
ATOM      8  C   UNL     1      -0.006  10.865  20.572  0.00  0.00    +0.000 A 
ATOM      9  C   UNL     1      -0.389  10.711  21.898  0.00  0.00    +0.000 A 
ATOM     10 CL   UNL     1      -1.445  11.859  22.626  0.00  0.00    +0.000 Cl
ATOM     11  C   UNL     1       0.063   9.625  22.629  0.00  0.00    +0.000 A 
ATOM     12  C   UNL     1       0.856   8.659  22.009  0.00  0.00    +0.000 A 
ATOM     13  C   UNL     1       1.209   8.759  20.639  0.00  0.00    +0.000 A 
ENDBRANCH   1   3
BRANCH   1  14
ATOM     14  C   UNL     1       2.249   5.290  19.699  0.00  0.00    +0.000 C 
ATOM     15  C   UNL     1       1.189   4.372  20.310  0.00  0.00    +0.000 C 
BRANCH  14  16
ATOM     16  C   UNL     1       3.647   4.648  19.718  0.00  0.00    +0.000 C 
BRANCH  16  17
ATOM     17  C   UNL     1       4.083   4.040  18.378  0.00  0.00    +0.000 C 
BRANCH  17  18
ATOM     18  C   UNL     1       4.251   5.058  17.230  0.00  0.00    +0.000 C 
BRANCH  18  19
ATOM     19  N   UNL     1       5.652   5.375  16.863  0.00  0.00    +0.000 NA
BRANCH  19  21
ATOM     20  C   UNL     1       6.601   4.350  14.729  0.00  0.00    +0.000 C 
ATOM     21  C   UNL     1       5.767   5.446  15.384  0.00  0.00    +0.000 C 
ENDBRANCH  19  21
BRANCH  19  22
ATOM     22  C   UNL     1       6.087   6.664  17.474  0.00  0.00    +0.000 C 
BRANCH  22  23
ATOM     23  C   UNL     1       7.608   6.907  17.471  0.00  0.00    +0.000 C 
BRANCH  23  24
ATOM     24  O   UNL     1       8.123   6.845  18.797  0.00  0.00    +0.000 OA
ATOM     25  H   UNL     1       9.073   7.060  18.705  0.00  0.00    +0.000 HD
ENDBRANCH  23  24
ENDBRANCH  22  23
ENDBRANCH  19  22
ENDBRANCH  18  19
ENDBRANCH  17  18
ENDBRANCH  16  17
ENDBRANCH  14  16
ENDBRANCH   1  14
TORSDOF 10
ENDMDL
MODEL 7
REMARK VINA RESULT:      -6.2      2.285      2.802
REMARK  Name = 
REMARK  12 active torsions:
REMARK  status: ('A' for Active; 'I' for Inactive)
REMARK    1  A    between atoms: C_1  and  C_2
REMARK    2  A    between atoms: C_2  and  N_3
REMARK    3  A    between atoms: N_3  and  C_4
REMARK    4  A    between atoms: N_3  and  C_7
REMARK    5  A    between atoms: C_4  and  C_5
REMARK    6  A    between atoms: C_5  and  O_6
REMARK    7  A    between atoms: C_7  and  C_8
REMARK    8  A    between atoms: C_8  and  C_9
REMARK    9  A    between atoms: C_9  and  C_10
REMARK   10  A    between atoms: C_10  and  C_11
REMARK   11  A    between atoms: C_10  and  N_12
REMARK   12  A    between atoms: N_12  and  C_13
REMARK                            x       y       z     vdW  Elec       q    Type
REMARK                         _______ _______ _______ _____ _____    ______ ____
ROOT
ATOM      1  N   UNL     1       1.935   7.469  20.833  0.00  0.00    +0.000 N 
ATOM      2  H   UNL     1       2.787   7.606  21.362  0.00  0.00    +0.000 HD
ENDROOT
BRANCH   1   3
ATOM      3  C   UNL     1       1.389   8.666  20.328  0.00  0.00    +0.000 A 
ATOM      4  C   UNL     1       1.504   8.997  18.980  0.00  0.00    +0.000 A 
ATOM      5  C   UNL     1       0.916  10.150  18.495  0.00  0.00    +0.000 A 
ATOM      6  N   UNL     1       0.137  10.950  19.231  0.00  0.00    +0.000 NA
ATOM      7  C   UNL     1      -0.078  10.614  20.510  0.00  0.00    +0.000 A 
ATOM      8  C   UNL     1      -0.974  11.392  21.220  0.00  0.00    +0.000 A 
ATOM      9  C   UNL     1      -1.267  11.126  22.551  0.00  0.00    +0.000 A 
ATOM     10 CL   UNL     1      -2.449  12.066  23.376  0.00  0.00    +0.000 Cl
ATOM     11  C   UNL     1      -0.621  10.092  23.210  0.00  0.00    +0.000 A 
ATOM     12  C   UNL     1       0.279   9.287  22.513  0.00  0.00    +0.000 A 
ATOM     13  C   UNL     1       0.549   9.497  21.136  0.00  0.00    +0.000 A 
ENDBRANCH   1   3
BRANCH   1  14
ATOM     14  C   UNL     1       1.994   6.252  20.009  0.00  0.00    +0.000 C 
ATOM     15  C   UNL     1       1.616   5.065  20.897  0.00  0.00    +0.000 C 
BRANCH  14  16
ATOM     16  C   UNL     1       3.411   6.106  19.426  0.00  0.00    +0.000 C 
BRANCH  16  17
ATOM     17  C   UNL     1       3.449   5.757  17.932  0.00  0.00    +0.000 C 
BRANCH  17  18
ATOM     18  C   UNL     1       2.818   4.396  17.570  0.00  0.00    +0.000 C 
BRANCH  18  19
ATOM     19  N   UNL     1       3.747   3.402  16.981  0.00  0.00    +0.000 NA
BRANCH  19  21
ATOM     20  C   UNL     1       5.853   3.802  15.598  0.00  0.00    +0.000 C 
ATOM     21  C   UNL     1       5.112   3.986  16.918  0.00  0.00    +0.000 C 
ENDBRANCH  19  21
BRANCH  19  22
ATOM     22  C   UNL     1       3.764   2.145  17.781  0.00  0.00    +0.000 C 
BRANCH  22  23
ATOM     23  C   UNL     1       3.726   2.343  19.308  0.00  0.00    +0.000 C 
BRANCH  23  24
ATOM     24  O   UNL     1       5.009   2.094  19.873  0.00  0.00    +0.000 OA
ATOM     25  H   UNL     1       4.855   1.398  20.543  0.00  0.00    +0.000 HD
ENDBRANCH  23  24
ENDBRANCH  22  23
ENDBRANCH  19  22
ENDBRANCH  18  19
ENDBRANCH  17  18
ENDBRANCH  16  17
ENDBRANCH  14  16
ENDBRANCH   1  14
TORSDOF 10
ENDMDL
MODEL 8
REMARK VINA RESULT:      -6.2      4.717      7.442
REMARK  Name = 
REMARK  12 active torsions:
REMARK  status: ('A' for Active; 'I' for Inactive)
REMARK    1  A    between atoms: C_1  and  C_2
REMARK    2  A    between atoms: C_2  and  N_3
REMARK    3  A    between atoms: N_3  and  C_4
REMARK    4  A    between atoms: N_3  and  C_7
REMARK    5  A    between atoms: C_4  and  C_5
REMARK    6  A    between atoms: C_5  and  O_6
REMARK    7  A    between atoms: C_7  and  C_8
REMARK    8  A    between atoms: C_8  and  C_9
REMARK    9  A    between atoms: C_9  and  C_10
REMARK   10  A    between atoms: C_10  and  C_11
REMARK   11  A    between atoms: C_10  and  N_12
REMARK   12  A    between atoms: N_12  and  C_13
REMARK                            x       y       z     vdW  Elec       q    Type
REMARK                         _______ _______ _______ _____ _____    ______ ____
ROOT
ATOM      1  N   UNL     1       6.499   7.500  17.015  0.00  0.00    +0.000 N 
ATOM      2  H   UNL     1       6.249   8.224  16.351  0.00  0.00    +0.000 HD
ENDROOT
BRANCH   1   3
ATOM      3  C   UNL     1       6.122   6.207  16.605  0.00  0.00    +0.000 A 
ATOM      4  C   UNL     1       7.003   5.389  15.901  0.00  0.00    +0.000 A 
ATOM      5  C   UNL     1       6.632   4.104  15.553  0.00  0.00    +0.000 A 
ATOM      6  N   UNL     1       5.485   3.534  15.940  0.00  0.00    +0.000 NA
ATOM      7  C   UNL     1       4.651   4.255  16.701  0.00  0.00    +0.000 A 
ATOM      8  C   UNL     1       3.525   3.611  17.180  0.00  0.00    +0.000 A 
ATOM      9  C   UNL     1       2.600   4.269  17.979  0.00  0.00    +0.000 A 
ATOM     10 CL   UNL     1       1.256   3.410  18.625  0.00  0.00    +0.000 Cl
ATOM     11  C   UNL     1       2.768   5.613  18.271  0.00  0.00    +0.000 A 
ATOM     12  C   UNL     1       3.900   6.283  17.807  0.00  0.00    +0.000 A 
ATOM     13  C   UNL     1       4.893   5.618  17.044  0.00  0.00    +0.000 A 
ENDBRANCH   1   3
BRANCH   1  14
ATOM     14  C   UNL     1       7.813   7.753  17.626  0.00  0.00    +0.000 C 
ATOM     15  C   UNL     1       7.933   6.865  18.866  0.00  0.00    +0.000 C 
BRANCH  14  16
ATOM     16  C   UNL     1       7.928   9.247  17.976  0.00  0.00    +0.000 C 
BRANCH  16  17
ATOM     17  C   UNL     1       9.095   9.592  18.910  0.00  0.00    +0.000 C 
BRANCH  17  18
ATOM     18  C   UNL     1       9.141  11.064  19.372  0.00  0.00    +0.000 C 
BRANCH  18  19
ATOM     19  N   UNL     1       9.730  12.016  18.400  0.00  0.00    +0.000 NA
BRANCH  19  21
ATOM     20  C   UNL     1       9.550  14.515  17.919  0.00  0.00    +0.000 C 
ATOM     21  C   UNL     1       9.640  13.394  18.949  0.00  0.00    +0.000 C 
ENDBRANCH  19  21
BRANCH  19  22
ATOM     22  C   UNL     1      11.151  11.672  18.108  0.00  0.00    +0.000 C 
BRANCH  22  23
ATOM     23  C   UNL     1      12.182  12.281  19.078  0.00  0.00    +0.000 C 
BRANCH  23  24
ATOM     24  O   UNL     1      12.329  11.456  20.229  0.00  0.00    +0.000 OA
ATOM     25  H   UNL     1      11.420  11.348  20.575  0.00  0.00    +0.000 HD
ENDBRANCH  23  24
ENDBRANCH  22  23
ENDBRANCH  19  22
ENDBRANCH  18  19
ENDBRANCH  17  18
ENDBRANCH  16  17
ENDBRANCH  14  16
ENDBRANCH   1  14
TORSDOF 10
ENDMDL
MODEL 9
REMARK VINA RESULT:      -6.2      1.412      1.638
REMARK  Name = 
REMARK  12 active torsions:
REMARK  status: ('A' for Active; 'I' for Inactive)
REMARK    1  A    between atoms: C_1  and  C_2
REMARK    2  A    between atoms: C_2  and  N_3
REMARK    3  A    between atoms: N_3  and  C_4
REMARK    4  A    between atoms: N_3  and  C_7
REMARK    5  A    between atoms: C_4  and  C_5
REMARK    6  A    between atoms: C_5  and  O_6
REMARK    7  A    between atoms: C_7  and  C_8
REMARK    8  A    between atoms: C_8  and  C_9
REMARK    9  A    between atoms: C_9  and  C_10
REMARK   10  A    between atoms: C_10  and  C_11
REMARK   11  A    between atoms: C_10  and  N_12
REMARK   12  A    between atoms: N_12  and  C_13
REMARK                            x       y       z     vdW  Elec       q    Type
REMARK                         _______ _______ _______ _____ _____    ______ ____
ROOT
ATOM      1  N   UNL     1       2.595   6.262  20.303  0.00  0.00    +0.000 N 
ATOM      2  H   UNL     1       3.585   6.064  20.223  0.00  0.00    +0.000 HD
ENDROOT
BRANCH   1   3
ATOM      3  C   UNL     1       2.211   7.466  19.680  0.00  0.00    +0.000 A 
ATOM      4  C   UNL     1       2.418   7.669  18.317  0.00  0.00    +0.000 A 
ATOM      5  C   UNL     1       1.986   8.836  17.715  0.00  0.00    +0.000 A 
ATOM      6  N   UNL     1       1.274   9.776  18.347  0.00  0.00    +0.000 NA
ATOM      7  C   UNL     1       0.969   9.572  19.636  0.00  0.00    +0.000 A 
ATOM      8  C   UNL     1       0.140  10.501  20.237  0.00  0.00    +0.000 A 
ATOM      9  C   UNL     1      -0.236  10.380  21.568  0.00  0.00    +0.000 A 
ATOM     10 CL   UNL     1      -1.336  11.510  22.257  0.00  0.00    +0.000 Cl
ATOM     11  C   UNL     1       0.260   9.340  22.337  0.00  0.00    +0.000 A 
ATOM     12  C   UNL     1       1.090   8.384  21.751  0.00  0.00    +0.000 A 
ATOM     13  C   UNL     1       1.438   8.449  20.377  0.00  0.00    +0.000 A 
ENDBRANCH   1   3
BRANCH   1  14
ATOM     14  C   UNL     1       1.783   5.042  20.169  0.00  0.00    +0.000 C 
ATOM     15  C   UNL     1       2.167   4.096  21.308  0.00  0.00    +0.000 C 
BRANCH  14  16
ATOM     16  C   UNL     1       2.040   4.414  18.788  0.00  0.00    +0.000 C 
BRANCH  16  17
ATOM     17  C   UNL     1       3.022   3.235  18.800  0.00  0.00    +0.000 C 
BRANCH  17  18
ATOM     18  C   UNL     1       4.433   3.563  18.267  0.00  0.00    +0.000 C 
BRANCH  18  19
ATOM     19  N   UNL     1       4.547   4.835  17.514  0.00  0.00    +0.000 NA
BRANCH  19  21
ATOM     20  C   UNL     1       6.103   5.267  19.489  0.00  0.00    +0.000 C 
ATOM     21  C   UNL     1       5.663   5.638  18.077  0.00  0.00    +0.000 C 
ENDBRANCH  19  21
BRANCH  19  22
ATOM     22  C   UNL     1       4.778   4.580  16.064  0.00  0.00    +0.000 C 
BRANCH  22  23
ATOM     23  C   UNL     1       5.790   5.525  15.389  0.00  0.00    +0.000 C 
BRANCH  23  24
ATOM     24  O   UNL     1       5.164   6.754  15.038  0.00  0.00    +0.000 OA
ATOM     25  H   UNL     1       5.382   6.884  14.093  0.00  0.00    +0.000 HD
ENDBRANCH  23  24
ENDBRANCH  22  23
ENDBRANCH  19  22
ENDBRANCH  18  19
ENDBRANCH  17  18
ENDBRANCH  16  17
ENDBRANCH  14  16
ENDBRANCH   1  14
TORSDOF 10
ENDMDL
