MODEL 1
REMARK VINA RESULT:      -8.1      0.000      0.000
REMARK  Name = 
REMARK  4 active torsions:
REMARK  status: ('A' for Active; 'I' for Inactive)
REMARK    1  A    between atoms: C_3  and  O_4
REMARK    2  A    between atoms: C_5  and  C_6
REMARK    3  A    between atoms: N_8  and  C_9
REMARK    4  A    between atoms: C_16  and  C_17
REMARK                            x       y       z     vdW  Elec       q    Type
REMARK                         _______ _______ _______ _____ _____    ______ ____
ROOT
ATOM      1  C   UNL     1       5.029   5.051  16.648  0.00  0.00    +0.000 A 
ATOM      2  C   UNL     1       4.705   4.337  15.519  0.00  0.00    +0.000 A 
ATOM      3  N   UNL     1       5.770   4.460  14.658  0.00  0.00    +0.000 N 
ATOM      4  N   UNL     1       6.739   5.259  15.174  0.00  0.00    +0.000 NA
ATOM      5  C   UNL     1       6.291   5.647  16.380  0.00  0.00    +0.000 A 
ENDROOT
BRANCH   1   9
ATOM      6  O   UNL     1       2.095   7.095  19.816  0.00  0.00    +0.000 OA
ATOM      7  C   UNL     1       2.721   6.110  19.440  0.00  0.00    +0.000 A 
ATOM      8  C   UNL     1       3.559   6.188  18.223  0.00  0.00    +0.000 A 
ATOM      9  C   UNL     1       4.243   5.097  17.835  0.00  0.00    +0.000 A 
ATOM     10  O   UNL     1       4.241   3.889  18.521  0.00  0.00    +0.000 OA
ATOM     11  C   UNL     1       3.434   3.764  19.624  0.00  0.00    +0.000 A 
ATOM     12  C   UNL     1       3.392   2.517  20.245  0.00  0.00    +0.000 A 
ATOM     13  C   UNL     1       2.597   2.333  21.380  0.00  0.00    +0.000 A 
ATOM     14  C   UNL     1       1.844   3.393  21.890  0.00  0.00    +0.000 A 
ATOM     15  C   UNL     1       1.878   4.639  21.263  0.00  0.00    +0.000 A 
ATOM     16  C   UNL     1       2.674   4.817  20.129  0.00  0.00    +0.000 A 
BRANCH   8  17
ATOM     17  O   UNL     1       3.578   7.389  17.537  0.00  0.00    +0.000 OA
ATOM     18  H   UNL     1       4.345   7.325  16.931  0.00  0.00    +0.000 HD
ENDBRANCH   8  17
ENDBRANCH   1   9
BRANCH   3  19
ATOM     19  C   UNL     1       5.926   3.851  13.380  0.00  0.00    +0.000 A 
ATOM     20  C   UNL     1       4.833   3.282  12.708  0.00  0.00    +0.000 A 
ATOM     21  C   UNL     1       5.012   2.679  11.460  0.00  0.00    +0.000 A 
ATOM     22  C   UNL     1       6.278   2.634  10.878  0.00  0.00    +0.000 A 
ATOM     23  C   UNL     1       7.368   3.196  11.538  0.00  0.00    +0.000 A 
ATOM     24  C   UNL     1       7.196   3.808  12.782  0.00  0.00    +0.000 A 
ENDBRANCH   3  19
BRANCH   5  25
ATOM     25  C   UNL     1       7.086   6.543  17.228  0.00  0.00    +0.000 A 
ATOM     26  C   UNL     1       7.241   7.899  16.905  0.00  0.00    +0.000 A 
ATOM     27  C   UNL     1       7.977   8.754  17.729  0.00  0.00    +0.000 A 
ATOM     28  C   UNL     1       8.588   8.258  18.877  0.00  0.00    +0.000 A 
ATOM     29  C   UNL     1       8.465   6.909  19.197  0.00  0.00    +0.000 A 
ATOM     30  C   UNL     1       7.718   6.054  18.379  0.00  0.00    +0.000 A 
ENDBRANCH   5  25
TORSDOF 4
ENDMDL
MODEL 2
REMARK VINA RESULT:      -7.8      8.784     11.225
REMARK  Name = 
REMARK  4 active torsions:
REMARK  status: ('A' for Active; 'I' for Inactive)
REMARK    1  A    between atoms: C_3  and  O_4
REMARK    2  A    between atoms: C_5  and  C_6
REMARK    3  A    between atoms: N_8  and  C_9
REMARK    4  A    between atoms: C_16  and  C_17
REMARK                            x       y       z     vdW  Elec       q    Type
REMARK                         _______ _______ _______ _____ _____    ______ ____
ROOT
ATOM      1  C   UNL     1      -0.946  12.759  19.150  0.00  0.00    +0.000 A 
ATOM      2  C   UNL     1      -0.278  13.794  18.541  0.00  0.00    +0.000 A 
ATOM      3  N   UNL     1       1.015  13.756  19.008  0.00  0.00    +0.000 N 
ATOM      4  N   UNL     1       1.185  12.769  19.924  0.00  0.00    +0.000 NA
ATOM      5  C   UNL     1      -0.010  12.164  20.038  0.00  0.00    +0.000 A 
ENDROOT
BRANCH   1   9
ATOM      6  O   UNL     1      -4.415  10.802  16.512  0.00  0.00    +0.000 OA
ATOM      7  C   UNL     1      -4.060  11.351  17.549  0.00  0.00    +0.000 A 
ATOM      8  C   UNL     1      -2.650  11.767  17.720  0.00  0.00    +0.000 A 
ATOM      9  C   UNL     1      -2.287  12.375  18.863  0.00  0.00    +0.000 A 
ATOM     10  O   UNL     1      -3.161  12.670  19.903  0.00  0.00    +0.000 OA
ATOM     11  C   UNL     1      -4.464  12.252  19.801  0.00  0.00    +0.000 A 
ATOM     12  C   UNL     1      -5.297  12.493  20.892  0.00  0.00    +0.000 A 
ATOM     13  C   UNL     1      -6.638  12.099  20.843  0.00  0.00    +0.000 A 
ATOM     14  C   UNL     1      -7.142  11.466  19.705  0.00  0.00    +0.000 A 
ATOM     15  C   UNL     1      -6.306  11.217  18.616  0.00  0.00    +0.000 A 
ATOM     16  C   UNL     1      -4.967  11.611  18.672  0.00  0.00    +0.000 A 
BRANCH   8  17
ATOM     17  O   UNL     1      -1.773  11.488  16.688  0.00  0.00    +0.000 OA
ATOM     18  H   UNL     1      -1.371  10.625  16.921  0.00  0.00    +0.000 HD
ENDBRANCH   8  17
ENDBRANCH   1   9
BRANCH   3  19
ATOM     19  C   UNL     1       2.100  14.596  18.625  0.00  0.00    +0.000 A 
ATOM     20  C   UNL     1       1.931  15.981  18.483  0.00  0.00    +0.000 A 
ATOM     21  C   UNL     1       3.008  16.784  18.094  0.00  0.00    +0.000 A 
ATOM     22  C   UNL     1       4.252  16.212  17.840  0.00  0.00    +0.000 A 
ATOM     23  C   UNL     1       4.428  14.837  17.979  0.00  0.00    +0.000 A 
ATOM     24  C   UNL     1       3.360  14.029  18.375  0.00  0.00    +0.000 A 
ENDBRANCH   3  19
BRANCH   5  25
ATOM     25  C   UNL     1      -0.203  11.043  20.965  0.00  0.00    +0.000 A 
ATOM     26  C   UNL     1       0.036   9.720  20.563  0.00  0.00    +0.000 A 
ATOM     27  C   UNL     1      -0.123   8.657  21.456  0.00  0.00    +0.000 A 
ATOM     28  C   UNL     1      -0.547   8.903  22.759  0.00  0.00    +0.000 A 
ATOM     29  C   UNL     1      -0.813  10.207  23.166  0.00  0.00    +0.000 A 
ATOM     30  C   UNL     1      -0.642  11.272  22.276  0.00  0.00    +0.000 A 
ENDBRANCH   5  25
TORSDOF 4
ENDMDL
MODEL 3
REMARK VINA RESULT:      -7.8      8.752     11.225
REMARK  Name = 
REMARK  4 active torsions:
REMARK  status: ('A' for Active; 'I' for Inactive)
REMARK    1  A    between atoms: C_3  and  O_4
REMARK    2  A    between atoms: C_5  and  C_6
REMARK    3  A    between atoms: N_8  and  C_9
REMARK    4  A    between atoms: C_16  and  C_17
REMARK                            x       y       z     vdW  Elec       q    Type
REMARK                         _______ _______ _______ _____ _____    ______ ____
ROOT
ATOM      1  C   UNL     1      -0.933  12.713  19.134  0.00  0.00    +0.000 A 
ATOM      2  C   UNL     1      -0.278  13.753  18.521  0.00  0.00    +0.000 A 
ATOM      3  N   UNL     1       1.011  13.743  19.002  0.00  0.00    +0.000 N 
ATOM      4  N   UNL     1       1.188  12.768  19.930  0.00  0.00    +0.000 NA
ATOM      5  C   UNL     1       0.003  12.143  20.038  0.00  0.00    +0.000 A 
ENDROOT
BRANCH   1   9
ATOM      6  O   UNL     1      -4.319  10.563  16.538  0.00  0.00    +0.000 OA
ATOM      7  C   UNL     1      -3.996  11.181  17.546  0.00  0.00    +0.000 A 
ATOM      8  C   UNL     1      -2.593  11.617  17.727  0.00  0.00    +0.000 A 
ATOM      9  C   UNL     1      -2.265  12.301  18.837  0.00  0.00    +0.000 A 
ATOM     10  O   UNL     1      -3.168  12.659  19.830  0.00  0.00    +0.000 OA
ATOM     11  C   UNL     1      -4.466  12.227  19.722  0.00  0.00    +0.000 A 
ATOM     12  C   UNL     1      -5.330  12.533  20.772  0.00  0.00    +0.000 A 
ATOM     13  C   UNL     1      -6.667  12.128  20.712  0.00  0.00    +0.000 A 
ATOM     14  C   UNL     1      -7.137  11.418  19.605  0.00  0.00    +0.000 A 
ATOM     15  C   UNL     1      -6.270  11.103  18.558  0.00  0.00    +0.000 A 
ATOM     16  C   UNL     1      -4.935  11.509  18.624  0.00  0.00    +0.000 A 
BRANCH   8  17
ATOM     17  O   UNL     1      -1.687  11.276  16.739  0.00  0.00    +0.000 OA
ATOM     18  H   UNL     1      -1.240  12.115  16.503  0.00  0.00    +0.000 HD
ENDBRANCH   8  17
ENDBRANCH   1   9
BRANCH   3  19
ATOM     19  C   UNL     1       2.084  14.598  18.621  0.00  0.00    +0.000 A 
ATOM     20  C   UNL     1       3.360  14.084  18.347  0.00  0.00    +0.000 A 
ATOM     21  C   UNL     1       4.402  14.944  17.987  0.00  0.00    +0.000 A 
ATOM     22  C   UNL     1       4.180  16.317  17.904  0.00  0.00    +0.000 A 
ATOM     23  C   UNL     1       2.916  16.835  18.174  0.00  0.00    +0.000 A 
ATOM     24  C   UNL     1       1.868  15.982  18.526  0.00  0.00    +0.000 A 
ENDBRANCH   3  19
BRANCH   5  25
ATOM     25  C   UNL     1      -0.179  11.028  20.974  0.00  0.00    +0.000 A 
ATOM     26  C   UNL     1      -0.616  11.248  22.289  0.00  0.00    +0.000 A 
ATOM     27  C   UNL     1      -0.814  10.182  23.169  0.00  0.00    +0.000 A 
ATOM     28  C   UNL     1      -0.554   8.879  22.751  0.00  0.00    +0.000 A 
ATOM     29  C   UNL     1      -0.095   8.646  21.458  0.00  0.00    +0.000 A 
ATOM     30  C   UNL     1       0.091   9.713  20.573  0.00  0.00    +0.000 A 
ENDBRANCH   5  25
TORSDOF 4
ENDMDL
MODEL 4
REMARK VINA RESULT:      -7.8      1.108      2.359
REMARK  Name = 
REMARK  4 active torsions:
REMARK  status: ('A' for Active; 'I' for Inactive)
REMARK    1  A    between atoms: C_3  and  O_4
REMARK    2  A    between atoms: C_5  and  C_6
REMARK    3  A    between atoms: N_8  and  C_9
REMARK    4  A    between atoms: C_16  and  C_17
REMARK                            x       y       z     vdW  Elec       q    Type
REMARK                         _______ _______ _______ _____ _____    ______ ____
ROOT
ATOM      1  C   UNL     1       4.906   5.190  16.522  0.00  0.00    +0.000 A 
ATOM      2  C   UNL     1       4.586   4.481  15.390  0.00  0.00    +0.000 A 
ATOM      3  N   UNL     1       5.714   4.471  14.602  0.00  0.00    +0.000 N 
ATOM      4  N   UNL     1       6.723   5.182  15.167  0.00  0.00    +0.000 NA
ATOM      5  C   UNL     1       6.237   5.647  16.331  0.00  0.00    +0.000 A 
ENDROOT
BRANCH   1   9
ATOM      6  O   UNL     1       2.846   3.835  20.614  0.00  0.00    +0.000 OA
ATOM      7  C   UNL     1       3.021   4.690  19.754  0.00  0.00    +0.000 A 
ATOM      8  C   UNL     1       3.882   4.399  18.586  0.00  0.00    +0.000 A 
ATOM      9  C   UNL     1       4.051   5.350  17.651  0.00  0.00    +0.000 A 
ATOM     10  O   UNL     1       3.444   6.599  17.689  0.00  0.00    +0.000 OA
ATOM     11  C   UNL     1       2.682   6.924  18.782  0.00  0.00    +0.000 A 
ATOM     12  C   UNL     1       2.151   8.212  18.829  0.00  0.00    +0.000 A 
ATOM     13  C   UNL     1       1.357   8.596  19.914  0.00  0.00    +0.000 A 
ATOM     14  C   UNL     1       1.096   7.695  20.949  0.00  0.00    +0.000 A 
ATOM     15  C   UNL     1       1.635   6.409  20.906  0.00  0.00    +0.000 A 
ATOM     16  C   UNL     1       2.429   6.031  19.821  0.00  0.00    +0.000 A 
BRANCH   8  17
ATOM     17  O   UNL     1       4.483   3.154  18.532  0.00  0.00    +0.000 OA
ATOM     18  H   UNL     1       5.048   3.178  17.732  0.00  0.00    +0.000 HD
ENDBRANCH   8  17
ENDBRANCH   1   9
BRANCH   3  19
ATOM     19  C   UNL     1       5.891   3.812  13.351  0.00  0.00    +0.000 A 
ATOM     20  C   UNL     1       4.800   3.279  12.651  0.00  0.00    +0.000 A 
ATOM     21  C   UNL     1       4.999   2.626  11.430  0.00  0.00    +0.000 A 
ATOM     22  C   UNL     1       6.284   2.497  10.906  0.00  0.00    +0.000 A 
ATOM     23  C   UNL     1       7.373   3.025  11.596  0.00  0.00    +0.000 A 
ATOM     24  C   UNL     1       7.181   3.686  12.811  0.00  0.00    +0.000 A 
ENDBRANCH   3  19
BRANCH   5  25
ATOM     25  C   UNL     1       7.061   6.482  17.212  0.00  0.00    +0.000 A 
ATOM     26  C   UNL     1       7.288   7.837  16.926  0.00  0.00    +0.000 A 
ATOM     27  C   UNL     1       8.052   8.634  17.781  0.00  0.00    +0.000 A 
ATOM     28  C   UNL     1       8.619   8.080  18.925  0.00  0.00    +0.000 A 
ATOM     29  C   UNL     1       8.426   6.732  19.210  0.00  0.00    +0.000 A 
ATOM     30  C   UNL     1       7.651   5.936  18.360  0.00  0.00    +0.000 A 
ENDBRANCH   5  25
TORSDOF 4
ENDMDL
MODEL 5
REMARK VINA RESULT:      -7.7      3.805      8.426
REMARK  Name = 
REMARK  4 active torsions:
REMARK  status: ('A' for Active; 'I' for Inactive)
REMARK    1  A    between atoms: C_3  and  O_4
REMARK    2  A    between atoms: C_5  and  C_6
REMARK    3  A    between atoms: N_8  and  C_9
REMARK    4  A    between atoms: C_16  and  C_17
REMARK                            x       y       z     vdW  Elec       q    Type
REMARK                         _______ _______ _______ _____ _____    ______ ____
ROOT
ATOM      1  C   UNL     1       2.405   7.180  19.493  0.00  0.00    +0.000 A 
ATOM      2  C   UNL     1       1.991   8.463  19.759  0.00  0.00    +0.000 A 
ATOM      3  N   UNL     1       1.090   8.379  20.794  0.00  0.00    +0.000 N 
ATOM      4  N   UNL     1       0.880   7.091  21.168  0.00  0.00    +0.000 NA
ATOM      5  C   UNL     1       1.660   6.344  20.368  0.00  0.00    +0.000 A 
ENDROOT
BRANCH   1   9
ATOM      6  O   UNL     1       4.697   7.402  15.308  0.00  0.00    +0.000 OA
ATOM      7  C   UNL     1       4.622   6.956  16.447  0.00  0.00    +0.000 A 
ATOM      8  C   UNL     1       3.487   7.338  17.317  0.00  0.00    +0.000 A 
ATOM      9  C   UNL     1       3.422   6.829  18.559  0.00  0.00    +0.000 A 
ATOM     10  O   UNL     1       4.345   5.934  19.086  0.00  0.00    +0.000 OA
ATOM     11  C   UNL     1       5.438   5.599  18.328  0.00  0.00    +0.000 A 
ATOM     12  C   UNL     1       6.387   4.761  18.913  0.00  0.00    +0.000 A 
ATOM     13  C   UNL     1       7.517   4.377  18.185  0.00  0.00    +0.000 A 
ATOM     14  C   UNL     1       7.697   4.830  16.876  0.00  0.00    +0.000 A 
ATOM     15  C   UNL     1       6.753   5.675  16.294  0.00  0.00    +0.000 A 
ATOM     16  C   UNL     1       5.626   6.058  17.027  0.00  0.00    +0.000 A 
BRANCH   8  17
ATOM     17  O   UNL     1       2.556   8.220  16.799  0.00  0.00    +0.000 OA
ATOM     18  H   UNL     1       2.924   8.500  15.935  0.00  0.00    +0.000 HD
ENDBRANCH   8  17
ENDBRANCH   1   9
BRANCH   3  19
ATOM     19  C   UNL     1       0.429   9.452  21.457  0.00  0.00    +0.000 A 
ATOM     20  C   UNL     1      -0.312   9.236  22.628  0.00  0.00    +0.000 A 
ATOM     21  C   UNL     1      -0.963  10.304  23.254  0.00  0.00    +0.000 A 
ATOM     22  C   UNL     1      -0.884  11.587  22.715  0.00  0.00    +0.000 A 
ATOM     23  C   UNL     1      -0.149  11.809  21.553  0.00  0.00    +0.000 A 
ATOM     24  C   UNL     1       0.511  10.749  20.926  0.00  0.00    +0.000 A 
ENDBRANCH   3  19
BRANCH   5  25
ATOM     25  C   UNL     1       1.677   4.881  20.482  0.00  0.00    +0.000 A 
ATOM     26  C   UNL     1       1.072   4.070  19.511  0.00  0.00    +0.000 A 
ATOM     27  C   UNL     1       1.113   2.677  19.610  0.00  0.00    +0.000 A 
ATOM     28  C   UNL     1       1.742   2.077  20.697  0.00  0.00    +0.000 A 
ATOM     29  C   UNL     1       2.324   2.868  21.683  0.00  0.00    +0.000 A 
ATOM     30  C   UNL     1       2.293   4.262  21.578  0.00  0.00    +0.000 A 
ENDBRANCH   5  25
TORSDOF 4
ENDMDL
MODEL 6
REMARK VINA RESULT:      -7.7      1.081      2.645
REMARK  Name = 
REMARK  4 active torsions:
REMARK  status: ('A' for Active; 'I' for Inactive)
REMARK    1  A    between atoms: C_3  and  O_4
REMARK    2  A    between atoms: C_5  and  C_6
REMARK    3  A    between atoms: N_8  and  C_9
REMARK    4  A    between atoms: C_16  and  C_17
REMARK                            x       y       z     vdW  Elec       q    Type
REMARK                         _______ _______ _______ _____ _____    ______ ____
ROOT
ATOM      1  C   UNL     1       4.888   5.082  16.503  0.00  0.00    +0.000 A 
ATOM      2  C   UNL     1       4.584   4.372  15.367  0.00  0.00    +0.000 A 
ATOM      3  N   UNL     1       5.712   4.390  14.580  0.00  0.00    +0.000 N 
ATOM      4  N   UNL     1       6.705   5.120  15.149  0.00  0.00    +0.000 NA
ATOM      5  C   UNL     1       6.210   5.568  16.315  0.00  0.00    +0.000 A 
ENDROOT
BRANCH   1   9
ATOM      6  O   UNL     1       2.771   3.618  20.528  0.00  0.00    +0.000 OA
ATOM      7  C   UNL     1       2.971   4.502  19.702  0.00  0.00    +0.000 A 
ATOM      8  C   UNL     1       3.833   4.236  18.529  0.00  0.00    +0.000 A 
ATOM      9  C   UNL     1       4.030   5.218  17.633  0.00  0.00    +0.000 A 
ATOM     10  O   UNL     1       3.452   6.479  17.715  0.00  0.00    +0.000 OA
ATOM     11  C   UNL     1       2.690   6.778  18.816  0.00  0.00    +0.000 A 
ATOM     12  C   UNL     1       2.188   8.075  18.910  0.00  0.00    +0.000 A 
ATOM     13  C   UNL     1       1.396   8.436  20.004  0.00  0.00    +0.000 A 
ATOM     14  C   UNL     1       1.107   7.502  21.002  0.00  0.00    +0.000 A 
ATOM     15  C   UNL     1       1.617   6.206  20.913  0.00  0.00    +0.000 A 
ATOM     16  C   UNL     1       2.410   5.852  19.818  0.00  0.00    +0.000 A 
BRANCH   8  17
ATOM     17  O   UNL     1       4.406   2.980  18.431  0.00  0.00    +0.000 OA
ATOM     18  H   UNL     1       3.652   2.363  18.327  0.00  0.00    +0.000 HD
ENDBRANCH   8  17
ENDBRANCH   1   9
BRANCH   3  19
ATOM     19  C   UNL     1       5.904   3.742  13.326  0.00  0.00    +0.000 A 
ATOM     20  C   UNL     1       7.180   3.626  12.756  0.00  0.00    +0.000 A 
ATOM     21  C   UNL     1       7.342   2.996  11.518  0.00  0.00    +0.000 A 
ATOM     22  C   UNL     1       6.236   2.486  10.841  0.00  0.00    +0.000 A 
ATOM     23  C   UNL     1       4.965   2.597  11.401  0.00  0.00    +0.000 A 
ATOM     24  C   UNL     1       4.796   3.217  12.641  0.00  0.00    +0.000 A 
ENDBRANCH   3  19
BRANCH   5  25
ATOM     25  C   UNL     1       7.016   6.416  17.201  0.00  0.00    +0.000 A 
ATOM     26  C   UNL     1       7.581   5.904  18.378  0.00  0.00    +0.000 A 
ATOM     27  C   UNL     1       8.370   6.707  19.206  0.00  0.00    +0.000 A 
ATOM     28  C   UNL     1       8.584   8.043  18.877  0.00  0.00    +0.000 A 
ATOM     29  C   UNL     1       8.008   8.573  17.726  0.00  0.00    +0.000 A 
ATOM     30  C   UNL     1       7.229   7.766  16.891  0.00  0.00    +0.000 A 
ENDBRANCH   5  25
TORSDOF 4
ENDMDL
MODEL 7
REMARK VINA RESULT:      -7.6      8.077     10.170
REMARK  Name = 
REMARK  4 active torsions:
REMARK  status: ('A' for Active; 'I' for Inactive)
REMARK    1  A    between atoms: C_3  and  O_4
REMARK    2  A    between atoms: C_5  and  C_6
REMARK    3  A    between atoms: N_8  and  C_9
REMARK    4  A    between atoms: C_16  and  C_17
REMARK                            x       y       z     vdW  Elec       q    Type
REMARK                         _______ _______ _______ _____ _____    ______ ____
ROOT
ATOM      1  C   UNL     1      -0.853  11.497  19.936  0.00  0.00    +0.000 A 
ATOM      2  C   UNL     1      -0.553  10.171  19.738  0.00  0.00    +0.000 A 
ATOM      3  N   UNL     1       0.765  10.120  19.349  0.00  0.00    +0.000 N 
ATOM      4  N   UNL     1       1.303  11.363  19.248  0.00  0.00    +0.000 NA
ATOM      5  C   UNL     1       0.320  12.217  19.582  0.00  0.00    +0.000 A 
ENDROOT
BRANCH   1   9
ATOM      6  O   UNL     1      -5.347  13.085  19.609  0.00  0.00    +0.000 OA
ATOM      7  C   UNL     1      -4.391  12.761  20.304  0.00  0.00    +0.000 A 
ATOM      8  C   UNL     1      -3.128  12.327  19.666  0.00  0.00    +0.000 A 
ATOM      9  C   UNL     1      -2.090  11.985  20.449  0.00  0.00    +0.000 A 
ATOM     10  O   UNL     1      -2.108  12.035  21.837  0.00  0.00    +0.000 OA
ATOM     11  C   UNL     1      -3.279  12.382  22.464  0.00  0.00    +0.000 A 
ATOM     12  C   UNL     1      -3.290  12.348  23.857  0.00  0.00    +0.000 A 
ATOM     13  C   UNL     1      -4.451  12.702  24.551  0.00  0.00    +0.000 A 
ATOM     14  C   UNL     1      -5.597  13.087  23.853  0.00  0.00    +0.000 A 
ATOM     15  C   UNL     1      -5.589  13.113  22.458  0.00  0.00    +0.000 A 
ATOM     16  C   UNL     1      -4.427  12.757  21.770  0.00  0.00    +0.000 A 
BRANCH   8  17
ATOM     17  O   UNL     1      -3.094  12.282  18.284  0.00  0.00    +0.000 OA
ATOM     18  H   UNL     1      -2.204  12.613  18.040  0.00  0.00    +0.000 HD
ENDBRANCH   8  17
ENDBRANCH   1   9
BRANCH   3  19
ATOM     19  C   UNL     1       1.546   8.959  19.082  0.00  0.00    +0.000 A 
ATOM     20  C   UNL     1       1.655   7.925  20.024  0.00  0.00    +0.000 A 
ATOM     21  C   UNL     1       2.436   6.800  19.744  0.00  0.00    +0.000 A 
ATOM     22  C   UNL     1       3.116   6.702  18.532  0.00  0.00    +0.000 A 
ATOM     23  C   UNL     1       3.012   7.724  17.591  0.00  0.00    +0.000 A 
ATOM     24  C   UNL     1       2.226   8.848  17.860  0.00  0.00    +0.000 A 
ENDBRANCH   3  19
BRANCH   5  25
ATOM     25  C   UNL     1       0.544  13.667  19.569  0.00  0.00    +0.000 A 
ATOM     26  C   UNL     1       1.491  14.262  20.416  0.00  0.00    +0.000 A 
ATOM     27  C   UNL     1       1.719  15.640  20.382  0.00  0.00    +0.000 A 
ATOM     28  C   UNL     1       0.985  16.445  19.516  0.00  0.00    +0.000 A 
ATOM     29  C   UNL     1       0.023  15.873  18.688  0.00  0.00    +0.000 A 
ATOM     30  C   UNL     1      -0.197  14.492  18.713  0.00  0.00    +0.000 A 
ENDBRANCH   5  25
TORSDOF 4
ENDMDL
MODEL 8
REMARK VINA RESULT:      -7.5      3.400      7.991
REMARK  Name = 
REMARK  4 active torsions:
REMARK  status: ('A' for Active; 'I' for Inactive)
REMARK    1  A    between atoms: C_3  and  O_4
REMARK    2  A    between atoms: C_5  and  C_6
REMARK    3  A    between atoms: N_8  and  C_9
REMARK    4  A    between atoms: C_16  and  C_17
REMARK                            x       y       z     vdW  Elec       q    Type
REMARK                         _______ _______ _______ _____ _____    ______ ____
ROOT
ATOM      1  C   UNL     1       3.148   6.817  18.561  0.00  0.00    +0.000 A 
ATOM      2  C   UNL     1       2.859   8.153  18.423  0.00  0.00    +0.000 A 
ATOM      3  N   UNL     1       1.779   8.406  19.237  0.00  0.00    +0.000 N 
ATOM      4  N   UNL     1       1.342   7.277  19.851  0.00  0.00    +0.000 NA
ATOM      5  C   UNL     1       2.155   6.292  19.431  0.00  0.00    +0.000 A 
ENDROOT
BRANCH   1   9
ATOM      6  O   UNL     1       7.245   4.359  18.615  0.00  0.00    +0.000 OA
ATOM      7  C   UNL     1       6.335   4.879  17.979  0.00  0.00    +0.000 A 
ATOM      8  C   UNL     1       5.250   5.592  18.690  0.00  0.00    +0.000 A 
ATOM      9  C   UNL     1       4.267   6.161  17.971  0.00  0.00    +0.000 A 
ATOM     10  O   UNL     1       4.209   6.152  16.582  0.00  0.00    +0.000 OA
ATOM     11  C   UNL     1       5.169   5.456  15.892  0.00  0.00    +0.000 A 
ATOM     12  C   UNL     1       5.041   5.399  14.505  0.00  0.00    +0.000 A 
ATOM     13  C   UNL     1       5.995   4.713  13.747  0.00  0.00    +0.000 A 
ATOM     14  C   UNL     1       7.074   4.086  14.376  0.00  0.00    +0.000 A 
ATOM     15  C   UNL     1       7.197   4.135  15.764  0.00  0.00    +0.000 A 
ATOM     16  C   UNL     1       6.240   4.821  16.517  0.00  0.00    +0.000 A 
BRANCH   8  17
ATOM     17  O   UNL     1       5.302   5.616  20.072  0.00  0.00    +0.000 OA
ATOM     18  H   UNL     1       4.732   4.874  20.362  0.00  0.00    +0.000 HD
ENDBRANCH   8  17
ENDBRANCH   1   9
BRANCH   3  19
ATOM     19  C   UNL     1       1.148   9.661  19.474  0.00  0.00    +0.000 A 
ATOM     20  C   UNL     1       1.279  10.722  18.566  0.00  0.00    +0.000 A 
ATOM     21  C   UNL     1       0.660  11.949  18.825  0.00  0.00    +0.000 A 
ATOM     22  C   UNL     1      -0.084  12.126  19.990  0.00  0.00    +0.000 A 
ATOM     23  C   UNL     1      -0.220  11.076  20.896  0.00  0.00    +0.000 A 
ATOM     24  C   UNL     1       0.388   9.845  20.640  0.00  0.00    +0.000 A 
ENDBRANCH   3  19
BRANCH   5  25
ATOM     25  C   UNL     1       1.965   4.911  19.887  0.00  0.00    +0.000 A 
ATOM     26  C   UNL     1       2.290   4.528  21.197  0.00  0.00    +0.000 A 
ATOM     27  C   UNL     1       2.083   3.218  21.636  0.00  0.00    +0.000 A 
ATOM     28  C   UNL     1       1.569   2.266  20.761  0.00  0.00    +0.000 A 
ATOM     29  C   UNL     1       1.266   2.622  19.450  0.00  0.00    +0.000 A 
ATOM     30  C   UNL     1       1.462   3.937  19.014  0.00  0.00    +0.000 A 
ENDBRANCH   5  25
TORSDOF 4
ENDMDL
MODEL 9
REMARK VINA RESULT:      -7.5      3.369      7.945
REMARK  Name = 
REMARK  4 active torsions:
REMARK  status: ('A' for Active; 'I' for Inactive)
REMARK    1  A    between atoms: C_3  and  O_4
REMARK    2  A    between atoms: C_5  and  C_6
REMARK    3  A    between atoms: N_8  and  C_9
REMARK    4  A    between atoms: C_16  and  C_17
REMARK                            x       y       z     vdW  Elec       q    Type
REMARK                         _______ _______ _______ _____ _____    ______ ____
ROOT
ATOM      1  C   UNL     1       3.168   6.767  18.591  0.00  0.00    +0.000 A 
ATOM      2  C   UNL     1       2.858   8.100  18.469  0.00  0.00    +0.000 A 
ATOM      3  N   UNL     1       1.781   8.330  19.294  0.00  0.00    +0.000 N 
ATOM      4  N   UNL     1       1.366   7.189  19.901  0.00  0.00    +0.000 NA
ATOM      5  C   UNL     1       2.190   6.220  19.464  0.00  0.00    +0.000 A 
ENDROOT
BRANCH   1   9
ATOM      6  O   UNL     1       7.296   4.363  18.588  0.00  0.00    +0.000 OA
ATOM      7  C   UNL     1       6.375   4.879  17.964  0.00  0.00    +0.000 A 
ATOM      8  C   UNL     1       5.286   5.568  18.691  0.00  0.00    +0.000 A 
ATOM      9  C   UNL     1       4.291   6.134  17.986  0.00  0.00    +0.000 A 
ATOM     10  O   UNL     1       4.224   6.141  16.598  0.00  0.00    +0.000 OA
ATOM     11  C   UNL     1       5.189   5.467  15.892  0.00  0.00    +0.000 A 
ATOM     12  C   UNL     1       5.052   5.425  14.506  0.00  0.00    +0.000 A 
ATOM     13  C   UNL     1       6.010   4.762  13.733  0.00  0.00    +0.000 A 
ATOM     14  C   UNL     1       7.100   4.141  14.346  0.00  0.00    +0.000 A 
ATOM     15  C   UNL     1       7.232   4.174  15.735  0.00  0.00    +0.000 A 
ATOM     16  C   UNL     1       6.271   4.837  16.502  0.00  0.00    +0.000 A 
BRANCH   8  17
ATOM     17  O   UNL     1       5.347   5.576  20.073  0.00  0.00    +0.000 OA
ATOM     18  H   UNL     1       4.613   6.159  20.358  0.00  0.00    +0.000 HD
ENDBRANCH   8  17
ENDBRANCH   1   9
BRANCH   3  19
ATOM     19  C   UNL     1       1.134   9.573  19.548  0.00  0.00    +0.000 A 
ATOM     20  C   UNL     1       0.397   9.781  20.723  0.00  0.00    +0.000 A 
ATOM     21  C   UNL     1      -0.240  11.006  20.945  0.00  0.00    +0.000 A 
ATOM     22  C   UNL     1      -0.150  12.024  19.998  0.00  0.00    +0.000 A 
ATOM     23  C   UNL     1       0.581  11.826  18.829  0.00  0.00    +0.000 A 
ATOM     24  C   UNL     1       1.226  10.608  18.603  0.00  0.00    +0.000 A 
ENDBRANCH   3  19
BRANCH   5  25
ATOM     25  C   UNL     1       2.024   4.832  19.910  0.00  0.00    +0.000 A 
ATOM     26  C   UNL     1       1.685   3.815  19.005  0.00  0.00    +0.000 A 
ATOM     27  C   UNL     1       1.554   2.490  19.428  0.00  0.00    +0.000 A 
ATOM     28  C   UNL     1       1.738   2.168  20.770  0.00  0.00    +0.000 A 
ATOM     29  C   UNL     1       2.049   3.170  21.685  0.00  0.00    +0.000 A 
ATOM     30  C   UNL     1       2.193   4.494  21.259  0.00  0.00    +0.000 A 
ENDBRANCH   5  25
TORSDOF 4
ENDMDL
