MODEL 1
REMARK VINA RESULT:      -8.1      0.000      0.000
REMARK  Name = 
REMARK  5 active torsions:
REMARK  status: ('A' for Active; 'I' for Inactive)
REMARK    1  A    between atoms: C_1  and  C_2
REMARK    2  A    between atoms: C_4  and  C_5
REMARK    3  A    between atoms: N_16  and  C_17
REMARK    4  A    between atoms: C_17  and  C_18
REMARK    5  A    between atoms: C_17  and  C_19
REMARK                            x       y       z     vdW  Elec       q    Type
REMARK                         _______ _______ _______ _____ _____    ______ ____
ROOT
ATOM      1  C   UNL     1       2.157   8.695  17.997  0.00  0.00    +0.000 C 
ATOM      2  O   UNL     1       2.496   9.497  17.123  0.00  0.00    +0.000 OA
ATOM      3  N   UNL     1       1.129   8.997  18.894  0.00  0.00    +0.000 N 
ATOM      4  C   UNL     1       0.269  10.122  18.544  0.00  0.00    +0.000 C 
ATOM      5  C   UNL     1      -0.812  10.396  19.608  0.00  0.00    +0.000 C 
ATOM      6  C   UNL     1      -0.124  10.883  20.906  0.00  0.00    +0.000 C 
ATOM      7  C   UNL     1       1.060   9.892  21.221  0.00  0.00    +0.000 C 
ATOM      8  C   UNL     1       1.134   8.638  20.312  0.00  0.00    +0.000 C 
ATOM      9  C   UNL     1       0.387  12.353  20.636  0.00  0.00    +0.000 C 
ATOM     10  C   UNL     1      -0.673  13.372  20.904  0.00  0.00    +0.000 A 
ATOM     11  C   UNL     1      -0.977  14.581  20.327  0.00  0.00    +0.000 A 
ATOM     12  N   UNL     1      -1.996  15.113  21.082  0.00  0.00    +0.000 N 
ATOM     13  N   UNL     1      -2.433  14.271  22.045  0.00  0.00    +0.000 NA
ATOM     14  C   UNL     1      -1.663  13.175  21.893  0.00  0.00    +0.000 A 
ATOM     15  C   UNL     1      -1.787  11.911  22.623  0.00  0.00    +0.000 C 
ATOM     16  O   UNL     1      -2.464  11.732  23.633  0.00  0.00    +0.000 OA
ATOM     17  N   UNL     1      -1.050  10.855  22.088  0.00  0.00    +0.000 N 
ATOM     18  H   UNL     1      -1.166  10.007  22.627  0.00  0.00    +0.000 HD
ENDROOT
BRANCH   1  22
ATOM     19  C   UNL     1       1.841   3.603  18.019  0.00  0.00    +0.000 C 
ATOM     20  C   UNL     1       2.630   4.876  17.991  0.00  0.00    +0.000 C 
ATOM     21  C   UNL     1       2.094   6.100  18.244  0.00  0.00    +0.000 C 
ATOM     22  C   UNL     1       2.841   7.347  18.057  0.00  0.00    +0.000 C 
ATOM     23  C   UNL     1       4.175   7.304  17.810  0.00  0.00    +0.000 C 
ATOM     24  C   UNL     1       4.870   5.991  17.949  0.00  0.00    +0.000 C 
ATOM     25  C   UNL     1       6.131   5.510  17.280  0.00  0.00    +0.000 C 
ATOM     26  N   UNL     1       6.219   4.209  17.235  0.00  0.00    +0.000 NA
ATOM     27  N   UNL     1       4.965   3.740  17.629  0.00  0.00    +0.000 N 
ATOM     28  C   UNL     1       4.017   4.834  17.433  0.00  0.00    +0.000 C 
ATOM     29  H   UNL     1       4.999   3.469  18.615  0.00  0.00    +0.000 HD
ENDBRANCH   1  22
BRANCH  12  30
ATOM     30  C   UNL     1      -2.568  16.449  20.921  0.00  0.00    +0.000 C 
ATOM     31  C   UNL     1      -1.949  17.232  19.763  0.00  0.00    +0.000 C 
ATOM     32  C   UNL     1      -4.093  16.410  20.798  0.00  0.00    +0.000 C 
ENDBRANCH  12  30
TORSDOF 2
ENDMDL
MODEL 2
REMARK VINA RESULT:      -8.0      1.014      1.899
REMARK  Name = 
REMARK  5 active torsions:
REMARK  status: ('A' for Active; 'I' for Inactive)
REMARK    1  A    between atoms: C_1  and  C_2
REMARK    2  A    between atoms: C_4  and  C_5
REMARK    3  A    between atoms: N_16  and  C_17
REMARK    4  A    between atoms: C_17  and  C_18
REMARK    5  A    between atoms: C_17  and  C_19
REMARK                            x       y       z     vdW  Elec       q    Type
REMARK                         _______ _______ _______ _____ _____    ______ ____
ROOT
ATOM      1  C   UNL     1       2.537   8.083  18.014  0.00  0.00    +0.000 C 
ATOM      2  O   UNL     1       2.957   8.854  17.147  0.00  0.00    +0.000 OA
ATOM      3  N   UNL     1       1.508   8.461  18.881  0.00  0.00    +0.000 N 
ATOM      4  C   UNL     1       0.740   9.642  18.501  0.00  0.00    +0.000 C 
ATOM      5  C   UNL     1      -0.349   9.997  19.533  0.00  0.00    +0.000 C 
ATOM      6  C   UNL     1       0.335  10.443  20.848  0.00  0.00    +0.000 C 
ATOM      7  C   UNL     1       1.438   9.373  21.201  0.00  0.00    +0.000 C 
ATOM      8  C   UNL     1       1.448   8.112  20.299  0.00  0.00    +0.000 C 
ATOM      9  C   UNL     1       0.955  11.872  20.587  0.00  0.00    +0.000 C 
ATOM     10  C   UNL     1      -0.037  12.964  20.821  0.00  0.00    +0.000 A 
ATOM     11  C   UNL     1      -0.239  14.188  20.230  0.00  0.00    +0.000 A 
ATOM     12  N   UNL     1      -1.239  14.795  20.954  0.00  0.00    +0.000 N 
ATOM     13  N   UNL     1      -1.761  13.991  21.907  0.00  0.00    +0.000 NA
ATOM     14  C   UNL     1      -1.066  12.843  21.782  0.00  0.00    +0.000 A 
ATOM     15  C   UNL     1      -1.299  11.595  22.513  0.00  0.00    +0.000 C 
ATOM     16  O   UNL     1      -2.015  11.471  23.504  0.00  0.00    +0.000 OA
ATOM     17  N   UNL     1      -0.623  10.487  22.003  0.00  0.00    +0.000 N 
ATOM     18  H   UNL     1      -0.814   9.652  22.543  0.00  0.00    +0.000 HD
ENDROOT
BRANCH   1  22
ATOM     19  C   UNL     1       6.495   5.035  19.050  0.00  0.00    +0.000 C 
ATOM     20  C   UNL     1       5.059   5.255  18.685  0.00  0.00    +0.000 C 
ATOM     21  C   UNL     1       4.556   6.457  18.297  0.00  0.00    +0.000 C 
ATOM     22  C   UNL     1       3.123   6.691  18.099  0.00  0.00    +0.000 C 
ATOM     23  C   UNL     1       2.261   5.642  18.106  0.00  0.00    +0.000 C 
ATOM     24  C   UNL     1       2.835   4.264  18.105  0.00  0.00    +0.000 C 
ATOM     25  C   UNL     1       2.230   2.985  18.620  0.00  0.00    +0.000 C 
ATOM     26  N   UNL     1       3.123   2.077  18.903  0.00  0.00    +0.000 NA
ATOM     27  N   UNL     1       4.352   2.735  18.839  0.00  0.00    +0.000 N 
ATOM     28  C   UNL     1       4.081   4.164  18.983  0.00  0.00    +0.000 C 
ATOM     29  H   UNL     1       4.793   2.544  17.936  0.00  0.00    +0.000 HD
ENDBRANCH   1  22
BRANCH  12  30
ATOM     30  C   UNL     1      -1.711  16.167  20.771  0.00  0.00    +0.000 C 
ATOM     31  C   UNL     1      -1.226  16.800  19.466  0.00  0.00    +0.000 C 
ATOM     32  C   UNL     1      -3.232  16.272  20.895  0.00  0.00    +0.000 C 
ENDBRANCH  12  30
TORSDOF 2
ENDMDL
MODEL 3
REMARK VINA RESULT:      -7.9      1.566      1.983
REMARK  Name = 
REMARK  5 active torsions:
REMARK  status: ('A' for Active; 'I' for Inactive)
REMARK    1  A    between atoms: C_1  and  C_2
REMARK    2  A    between atoms: C_4  and  C_5
REMARK    3  A    between atoms: N_16  and  C_17
REMARK    4  A    between atoms: C_17  and  C_18
REMARK    5  A    between atoms: C_17  and  C_19
REMARK                            x       y       z     vdW  Elec       q    Type
REMARK                         _______ _______ _______ _____ _____    ______ ____
ROOT
ATOM      1  C   UNL     1       2.349   7.759  18.739  0.00  0.00    +0.000 C 
ATOM      2  O   UNL     1       2.940   8.356  17.836  0.00  0.00    +0.000 OA
ATOM      3  N   UNL     1       1.343   8.385  19.481  0.00  0.00    +0.000 N 
ATOM      4  C   UNL     1       0.802   9.622  18.930  0.00  0.00    +0.000 C 
ATOM      5  C   UNL     1      -0.276  10.252  19.834  0.00  0.00    +0.000 C 
ATOM      6  C   UNL     1       0.389  10.727  21.148  0.00  0.00    +0.000 C 
ATOM      7  C   UNL     1       1.280   9.544  21.689  0.00  0.00    +0.000 C 
ATOM      8  C   UNL     1       1.141   8.205  20.918  0.00  0.00    +0.000 C 
ATOM      9  C   UNL     1       1.247  12.005  20.797  0.00  0.00    +0.000 C 
ATOM     10  C   UNL     1       0.433  13.256  20.846  0.00  0.00    +0.000 A 
ATOM     11  C   UNL     1       0.469  14.425  20.124  0.00  0.00    +0.000 A 
ATOM     12  N   UNL     1      -0.462  15.255  20.705  0.00  0.00    +0.000 N 
ATOM     13  N   UNL     1      -1.165  14.651  21.689  0.00  0.00    +0.000 NA
ATOM     14  C   UNL     1      -0.659  13.402  21.731  0.00  0.00    +0.000 A 
ATOM     15  C   UNL     1      -1.136  12.292  22.560  0.00  0.00    +0.000 C 
ATOM     16  O   UNL     1      -1.922  12.389  23.500  0.00  0.00    +0.000 OA
ATOM     17  N   UNL     1      -0.618  11.045  22.216  0.00  0.00    +0.000 N 
ATOM     18  H   UNL     1      -0.974  10.313  22.818  0.00  0.00    +0.000 HD
ENDROOT
BRANCH   1  22
ATOM     19  C   UNL     1       1.897   3.596  21.653  0.00  0.00    +0.000 C 
ATOM     20  C   UNL     1       2.380   4.298  20.421  0.00  0.00    +0.000 C 
ATOM     21  C   UNL     1       2.369   5.650  20.271  0.00  0.00    +0.000 C 
ATOM     22  C   UNL     1       2.694   6.310  19.004  0.00  0.00    +0.000 C 
ATOM     23  C   UNL     1       3.216   5.588  17.981  0.00  0.00    +0.000 C 
ATOM     24  C   UNL     1       3.637   4.183  18.260  0.00  0.00    +0.000 C 
ATOM     25  C   UNL     1       3.740   3.018  17.311  0.00  0.00    +0.000 C 
ATOM     26  N   UNL     1       3.674   1.863  17.914  0.00  0.00    +0.000 NA
ATOM     27  N   UNL     1       3.290   2.151  19.224  0.00  0.00    +0.000 N 
ATOM     28  C   UNL     1       2.671   3.474  19.207  0.00  0.00    +0.000 C 
ATOM     29  H   UNL     1       4.116   2.150  19.828  0.00  0.00    +0.000 HD
ENDBRANCH   1  22
BRANCH  12  30
ATOM     30  C   UNL     1      -0.693  16.655  20.353  0.00  0.00    +0.000 C 
ATOM     31  C   UNL     1       0.268  17.618  21.052  0.00  0.00    +0.000 C 
ATOM     32  C   UNL     1      -0.680  16.876  18.839  0.00  0.00    +0.000 C 
ENDBRANCH  12  30
TORSDOF 2
ENDMDL
MODEL 4
REMARK VINA RESULT:      -7.9      2.618      3.321
REMARK  Name = 
REMARK  5 active torsions:
REMARK  status: ('A' for Active; 'I' for Inactive)
REMARK    1  A    between atoms: C_1  and  C_2
REMARK    2  A    between atoms: C_4  and  C_5
REMARK    3  A    between atoms: N_16  and  C_17
REMARK    4  A    between atoms: C_17  and  C_18
REMARK    5  A    between atoms: C_17  and  C_19
REMARK                            x       y       z     vdW  Elec       q    Type
REMARK                         _______ _______ _______ _____ _____    ______ ____
ROOT
ATOM      1  C   UNL     1       2.426   7.656  18.390  0.00  0.00    +0.000 C 
ATOM      2  O   UNL     1       3.439   7.947  17.748  0.00  0.00    +0.000 OA
ATOM      3  N   UNL     1       1.442   8.611  18.659  0.00  0.00    +0.000 N 
ATOM      4  C   UNL     1       1.498   9.841  17.876  0.00  0.00    +0.000 C 
ATOM      5  C   UNL     1       0.393  10.843  18.266  0.00  0.00    +0.000 C 
ATOM      6  C   UNL     1       0.659  11.343  19.707  0.00  0.00    +0.000 C 
ATOM      7  C   UNL     1       0.934  10.080  20.609  0.00  0.00    +0.000 C 
ATOM      8  C   UNL     1       0.706   8.711  19.918  0.00  0.00    +0.000 C 
ATOM      9  C   UNL     1       1.907  12.308  19.640  0.00  0.00    +0.000 C 
ATOM     10  C   UNL     1       1.512  13.710  19.306  0.00  0.00    +0.000 A 
ATOM     11  C   UNL     1       2.125  14.710  18.589  0.00  0.00    +0.000 A 
ATOM     12  N   UNL     1       1.322  15.818  18.726  0.00  0.00    +0.000 N 
ATOM     13  N   UNL     1       0.179  15.560  19.400  0.00  0.00    +0.000 NA
ATOM     14  C   UNL     1       0.267  14.248  19.700  0.00  0.00    +0.000 A 
ATOM     15  C   UNL     1      -0.761  13.427  20.345  0.00  0.00    +0.000 C 
ATOM     16  O   UNL     1      -1.767  13.854  20.908  0.00  0.00    +0.000 OA
ATOM     17  N   UNL     1      -0.527  12.054  20.291  0.00  0.00    +0.000 N 
ATOM     18  H   UNL     1      -1.262  11.531  20.752  0.00  0.00    +0.000 HD
ENDROOT
BRANCH   1  22
ATOM     19  C   UNL     1       2.528   2.662  17.353  0.00  0.00    +0.000 C 
ATOM     20  C   UNL     1       2.372   3.809  18.303  0.00  0.00    +0.000 C 
ATOM     21  C   UNL     1       2.227   5.101  17.906  0.00  0.00    +0.000 C 
ATOM     22  C   UNL     1       2.236   6.226  18.846  0.00  0.00    +0.000 C 
ATOM     23  C   UNL     1       2.192   5.989  20.182  0.00  0.00    +0.000 C 
ATOM     24  C   UNL     1       1.922   4.594  20.637  0.00  0.00    +0.000 C 
ATOM     25  C   UNL     1       2.312   3.926  21.929  0.00  0.00    +0.000 C 
ATOM     26  N   UNL     1       2.352   2.625  21.838  0.00  0.00    +0.000 NA
ATOM     27  N   UNL     1       2.239   2.347  20.475  0.00  0.00    +0.000 N 
ATOM     28  C   UNL     1       2.622   3.560  19.757  0.00  0.00    +0.000 C 
ATOM     29  H   UNL     1       1.272   2.093  20.260  0.00  0.00    +0.000 HD
ENDBRANCH   1  22
BRANCH  12  30
ATOM     30  C   UNL     1       1.631  17.161  18.236  0.00  0.00    +0.000 C 
ATOM     31  C   UNL     1       2.767  17.180  17.213  0.00  0.00    +0.000 C 
ATOM     32  C   UNL     1       0.392  17.872  17.689  0.00  0.00    +0.000 C 
ENDBRANCH  12  30
TORSDOF 2
ENDMDL
MODEL 5
REMARK VINA RESULT:      -7.9      1.609      2.028
REMARK  Name = 
REMARK  5 active torsions:
REMARK  status: ('A' for Active; 'I' for Inactive)
REMARK    1  A    between atoms: C_1  and  C_2
REMARK    2  A    between atoms: C_4  and  C_5
REMARK    3  A    between atoms: N_16  and  C_17
REMARK    4  A    between atoms: C_17  and  C_18
REMARK    5  A    between atoms: C_17  and  C_19
REMARK                            x       y       z     vdW  Elec       q    Type
REMARK                         _______ _______ _______ _____ _____    ______ ____
ROOT
ATOM      1  C   UNL     1       2.207   8.123  18.554  0.00  0.00    +0.000 C 
ATOM      2  O   UNL     1       2.765   8.541  17.536  0.00  0.00    +0.000 OA
ATOM      3  N   UNL     1       1.211   8.868  19.190  0.00  0.00    +0.000 N 
ATOM      4  C   UNL     1       0.634   9.969  18.425  0.00  0.00    +0.000 C 
ATOM      5  C   UNL     1      -0.431  10.749  19.221  0.00  0.00    +0.000 C 
ATOM      6  C   UNL     1       0.261  11.478  20.399  0.00  0.00    +0.000 C 
ATOM      7  C   UNL     1       1.185  10.433  21.132  0.00  0.00    +0.000 C 
ATOM      8  C   UNL     1       1.049   8.969  20.639  0.00  0.00    +0.000 C 
ATOM      9  C   UNL     1       1.087  12.674  19.783  0.00  0.00    +0.000 C 
ATOM     10  C   UNL     1       0.253  13.901  19.611  0.00  0.00    +0.000 A 
ATOM     11  C   UNL     1       0.250  14.909  18.677  0.00  0.00    +0.000 A 
ATOM     12  N   UNL     1      -0.679  15.824  19.113  0.00  0.00    +0.000 N 
ATOM     13  N   UNL     1      -1.346  15.414  20.214  0.00  0.00    +0.000 NA
ATOM     14  C   UNL     1      -0.818  14.202  20.483  0.00  0.00    +0.000 A 
ATOM     15  C   UNL     1      -1.254  13.269  21.524  0.00  0.00    +0.000 C 
ATOM     16  O   UNL     1      -2.017  13.538  22.450  0.00  0.00    +0.000 OA
ATOM     17  N   UNL     1      -0.725  11.985  21.413  0.00  0.00    +0.000 N 
ATOM     18  H   UNL     1      -1.052  11.379  22.155  0.00  0.00    +0.000 HD
ENDROOT
BRANCH   1  22
ATOM     19  C   UNL     1       0.796   3.582  20.402  0.00  0.00    +0.000 C 
ATOM     20  C   UNL     1       1.836   4.541  19.911  0.00  0.00    +0.000 C 
ATOM     21  C   UNL     1       1.606   5.867  19.715  0.00  0.00    +0.000 C 
ATOM     22  C   UNL     1       2.585   6.757  19.085  0.00  0.00    +0.000 C 
ATOM     23  C   UNL     1       3.848   6.317  18.855  0.00  0.00    +0.000 C 
ATOM     24  C   UNL     1       4.251   5.008  19.447  0.00  0.00    +0.000 C 
ATOM     25  C   UNL     1       5.307   4.041  18.980  0.00  0.00    +0.000 C 
ATOM     26  N   UNL     1       5.106   2.823  19.404  0.00  0.00    +0.000 NA
ATOM     27  N   UNL     1       3.823   2.831  19.954  0.00  0.00    +0.000 N 
ATOM     28  C   UNL     1       3.121   3.981  19.389  0.00  0.00    +0.000 C 
ATOM     29  H   UNL     1       3.891   2.917  20.971  0.00  0.00    +0.000 HD
ENDBRANCH   1  22
BRANCH  12  30
ATOM     30  C   UNL     1      -0.943  17.126  18.503  0.00  0.00    +0.000 C 
ATOM     31  C   UNL     1      -1.969  17.956  19.276  0.00  0.00    +0.000 C 
ATOM     32  C   UNL     1       0.342  17.925  18.275  0.00  0.00    +0.000 C 
ENDBRANCH  12  30
TORSDOF 2
ENDMDL
MODEL 6
REMARK VINA RESULT:      -7.8      1.015      1.143
REMARK  Name = 
REMARK  5 active torsions:
REMARK  status: ('A' for Active; 'I' for Inactive)
REMARK    1  A    between atoms: C_1  and  C_2
REMARK    2  A    between atoms: C_4  and  C_5
REMARK    3  A    between atoms: N_16  and  C_17
REMARK    4  A    between atoms: C_17  and  C_18
REMARK    5  A    between atoms: C_17  and  C_19
REMARK                            x       y       z     vdW  Elec       q    Type
REMARK                         _______ _______ _______ _____ _____    ______ ____
ROOT
ATOM      1  C   UNL     1       1.885   8.931  18.381  0.00  0.00    +0.000 C 
ATOM      2  O   UNL     1       2.266   9.616  17.428  0.00  0.00    +0.000 OA
ATOM      3  N   UNL     1       0.856   9.368  19.219  0.00  0.00    +0.000 N 
ATOM      4  C   UNL     1       0.043  10.475  18.727  0.00  0.00    +0.000 C 
ATOM      5  C   UNL     1      -1.044  10.905  19.733  0.00  0.00    +0.000 C 
ATOM      6  C   UNL     1      -0.357  11.514  20.980  0.00  0.00    +0.000 C 
ATOM      7  C   UNL     1       0.786  10.525  21.427  0.00  0.00    +0.000 C 
ATOM      8  C   UNL     1       0.828   9.174  20.667  0.00  0.00    +0.000 C 
ATOM      9  C   UNL     1       0.210  12.925  20.554  0.00  0.00    +0.000 C 
ATOM     10  C   UNL     1      -0.816  14.003  20.685  0.00  0.00    +0.000 A 
ATOM     11  C   UNL     1      -1.068  15.148  19.968  0.00  0.00    +0.000 A 
ATOM     12  N   UNL     1      -2.078  15.797  20.639  0.00  0.00    +0.000 N 
ATOM     13  N   UNL     1      -2.559  15.086  21.683  0.00  0.00    +0.000 NA
ATOM     14  C   UNL     1      -1.827  13.954  21.671  0.00  0.00    +0.000 A 
ATOM     15  C   UNL     1      -2.007  12.787  22.537  0.00  0.00    +0.000 C 
ATOM     16  O   UNL     1      -2.704  12.748  23.549  0.00  0.00    +0.000 OA
ATOM     17  N   UNL     1      -1.300  11.653  22.140  0.00  0.00    +0.000 N 
ATOM     18  H   UNL     1      -1.454  10.876  22.770  0.00  0.00    +0.000 HD
ENDROOT
BRANCH   1  22
ATOM     19  C   UNL     1       2.019   4.509  20.920  0.00  0.00    +0.000 C 
ATOM     20  C   UNL     1       2.490   5.417  19.827  0.00  0.00    +0.000 C 
ATOM     21  C   UNL     1       2.185   6.740  19.762  0.00  0.00    +0.000 C 
ATOM     22  C   UNL     1       2.520   7.576  18.606  0.00  0.00    +0.000 C 
ATOM     23  C   UNL     1       3.332   7.090  17.634  0.00  0.00    +0.000 C 
ATOM     24  C   UNL     1       4.026   5.793  17.886  0.00  0.00    +0.000 C 
ATOM     25  C   UNL     1       4.529   4.777  16.894  0.00  0.00    +0.000 C 
ATOM     26  N   UNL     1       4.652   3.583  17.405  0.00  0.00    +0.000 NA
ATOM     27  N   UNL     1       4.033   3.651  18.654  0.00  0.00    +0.000 N 
ATOM     28  C   UNL     1       3.131   4.799  18.624  0.00  0.00    +0.000 C 
ATOM     29  H   UNL     1       4.745   3.774  19.379  0.00  0.00    +0.000 HD
ENDBRANCH   1  22
BRANCH  12  30
ATOM     30  C   UNL     1      -2.599  17.125  20.317  0.00  0.00    +0.000 C 
ATOM     31  C   UNL     1      -1.940  17.746  19.085  0.00  0.00    +0.000 C 
ATOM     32  C   UNL     1      -4.123  17.125  20.177  0.00  0.00    +0.000 C 
ENDBRANCH  12  30
TORSDOF 2
ENDMDL
MODEL 7
REMARK VINA RESULT:      -7.8      2.235      2.942
REMARK  Name = 
REMARK  5 active torsions:
REMARK  status: ('A' for Active; 'I' for Inactive)
REMARK    1  A    between atoms: C_1  and  C_2
REMARK    2  A    between atoms: C_4  and  C_5
REMARK    3  A    between atoms: N_16  and  C_17
REMARK    4  A    between atoms: C_17  and  C_18
REMARK    5  A    between atoms: C_17  and  C_19
REMARK                            x       y       z     vdW  Elec       q    Type
REMARK                         _______ _______ _______ _____ _____    ______ ____
ROOT
ATOM      1  C   UNL     1       2.108   6.420  19.774  0.00  0.00    +0.000 C 
ATOM      2  O   UNL     1       1.333   5.898  20.580  0.00  0.00    +0.000 OA
ATOM      3  N   UNL     1       2.136   7.806  19.592  0.00  0.00    +0.000 N 
ATOM      4  C   UNL     1       1.474   8.609  20.615  0.00  0.00    +0.000 C 
ATOM      5  C   UNL     1       1.531  10.119  20.311  0.00  0.00    +0.000 C 
ATOM      6  C   UNL     1       0.682  10.407  19.049  0.00  0.00    +0.000 C 
ATOM      7  C   UNL     1       1.098   9.364  17.944  0.00  0.00    +0.000 C 
ATOM      8  C   UNL     1       2.314   8.469  18.302  0.00  0.00    +0.000 C 
ATOM      9  C   UNL     1      -0.834  10.259  19.466  0.00  0.00    +0.000 C 
ATOM     10  C   UNL     1      -1.384  11.526  20.035  0.00  0.00    +0.000 A 
ATOM     11  C   UNL     1      -2.314  11.788  21.012  0.00  0.00    +0.000 A 
ATOM     12  N   UNL     1      -2.486  13.153  21.012  0.00  0.00    +0.000 N 
ATOM     13  N   UNL     1      -1.646  13.789  20.166  0.00  0.00    +0.000 NA
ATOM     14  C   UNL     1      -0.924  12.794  19.613  0.00  0.00    +0.000 A 
ATOM     15  C   UNL     1       0.205  12.940  18.692  0.00  0.00    +0.000 C 
ATOM     16  O   UNL     1       0.525  13.975  18.112  0.00  0.00    +0.000 OA
ATOM     17  N   UNL     1       0.943  11.775  18.486  0.00  0.00    +0.000 N 
ATOM     18  H   UNL     1       1.709  11.926  17.841  0.00  0.00    +0.000 HD
ENDROOT
BRANCH   1  22
ATOM     19  C   UNL     1       3.379   1.812  17.992  0.00  0.00    +0.000 C 
ATOM     20  C   UNL     1       3.601   3.289  18.109  0.00  0.00    +0.000 C 
ATOM     21  C   UNL     1       2.963   4.077  19.015  0.00  0.00    +0.000 C 
ATOM     22  C   UNL     1       3.071   5.539  19.011  0.00  0.00    +0.000 C 
ATOM     23  C   UNL     1       3.984   6.145  18.210  0.00  0.00    +0.000 C 
ATOM     24  C   UNL     1       4.990   5.286  17.520  0.00  0.00    +0.000 C 
ATOM     25  C   UNL     1       5.741   5.546  16.240  0.00  0.00    +0.000 C 
ATOM     26  N   UNL     1       6.169   4.453  15.670  0.00  0.00    +0.000 NA
ATOM     27  N   UNL     1       5.551   3.410  16.361  0.00  0.00    +0.000 N 
ATOM     28  C   UNL     1       4.382   3.973  17.032  0.00  0.00    +0.000 C 
ATOM     29  H   UNL     1       6.205   3.023  17.046  0.00  0.00    +0.000 HD
ENDBRANCH   1  22
BRANCH  12  30
ATOM     30  C   UNL     1      -3.471  13.887  21.805  0.00  0.00    +0.000 C 
ATOM     31  C   UNL     1      -4.614  14.458  20.964  0.00  0.00    +0.000 C 
ATOM     32  C   UNL     1      -4.014  13.050  22.965  0.00  0.00    +0.000 C 
ENDBRANCH  12  30
TORSDOF 2
ENDMDL
MODEL 8
REMARK VINA RESULT:      -7.7      2.879      3.759
REMARK  Name = 
REMARK  5 active torsions:
REMARK  status: ('A' for Active; 'I' for Inactive)
REMARK    1  A    between atoms: C_1  and  C_2
REMARK    2  A    between atoms: C_4  and  C_5
REMARK    3  A    between atoms: N_16  and  C_17
REMARK    4  A    between atoms: C_17  and  C_18
REMARK    5  A    between atoms: C_17  and  C_19
REMARK                            x       y       z     vdW  Elec       q    Type
REMARK                         _______ _______ _______ _____ _____    ______ ____
ROOT
ATOM      1  C   UNL     1       2.489   5.928  18.664  0.00  0.00    +0.000 C 
ATOM      2  O   UNL     1       1.516   5.169  18.687  0.00  0.00    +0.000 OA
ATOM      3  N   UNL     1       2.349   7.291  18.940  0.00  0.00    +0.000 N 
ATOM      4  C   UNL     1       1.101   7.700  19.575  0.00  0.00    +0.000 C 
ATOM      5  C   UNL     1       1.028   9.222  19.810  0.00  0.00    +0.000 C 
ATOM      6  C   UNL     1       0.962   9.937  18.438  0.00  0.00    +0.000 C 
ATOM      7  C   UNL     1       2.100   9.332  17.529  0.00  0.00    +0.000 C 
ATOM      8  C   UNL     1       3.069   8.355  18.244  0.00  0.00    +0.000 C 
ATOM      9  C   UNL     1      -0.477   9.671  17.845  0.00  0.00    +0.000 C 
ATOM     10  C   UNL     1      -1.475  10.672  18.330  0.00  0.00    +0.000 A 
ATOM     11  C   UNL     1      -2.816  10.592  18.621  0.00  0.00    +0.000 A 
ATOM     12  N   UNL     1      -3.214  11.875  18.915  0.00  0.00    +0.000 N 
ATOM     13  N   UNL     1      -2.187  12.754  18.932  0.00  0.00    +0.000 NA
ATOM     14  C   UNL     1      -1.109  12.002  18.636  0.00  0.00    +0.000 A 
ATOM     15  C   UNL     1       0.288  12.443  18.620  0.00  0.00    +0.000 C 
ATOM     16  O   UNL     1       0.669  13.611  18.658  0.00  0.00    +0.000 OA
ATOM     17  N   UNL     1       1.223  11.411  18.550  0.00  0.00    +0.000 N 
ATOM     18  H   UNL     1       2.171  11.766  18.539  0.00  0.00    +0.000 HD
ENDROOT
BRANCH   1  22
ATOM     19  C   UNL     1       5.825   3.966  15.340  0.00  0.00    +0.000 C 
ATOM     20  C   UNL     1       5.462   4.470  16.703  0.00  0.00    +0.000 C 
ATOM     21  C   UNL     1       4.184   4.709  17.102  0.00  0.00    +0.000 C 
ATOM     22  C   UNL     1       3.858   5.351  18.378  0.00  0.00    +0.000 C 
ATOM     23  C   UNL     1       4.833   5.551  19.301  0.00  0.00    +0.000 C 
ATOM     24  C   UNL     1       6.162   4.914  19.064  0.00  0.00    +0.000 C 
ATOM     25  C   UNL     1       7.518   5.338  19.563  0.00  0.00    +0.000 C 
ATOM     26  N   UNL     1       8.496   4.882  18.829  0.00  0.00    +0.000 NA
ATOM     27  N   UNL     1       7.886   4.350  17.692  0.00  0.00    +0.000 N 
ATOM     28  C   UNL     1       6.562   4.958  17.591  0.00  0.00    +0.000 C 
ATOM     29  H   UNL     1       7.808   3.335  17.793  0.00  0.00    +0.000 HD
ENDBRANCH   1  22
BRANCH  12  30
ATOM     30  C   UNL     1      -4.589  12.303  19.169  0.00  0.00    +0.000 C 
ATOM     31  C   UNL     1      -5.632  11.298  18.678  0.00  0.00    +0.000 C 
ATOM     32  C   UNL     1      -4.819  12.653  20.640  0.00  0.00    +0.000 C 
ENDBRANCH  12  30
TORSDOF 2
ENDMDL
MODEL 9
REMARK VINA RESULT:      -7.7      2.250      3.224
REMARK  Name = 
REMARK  5 active torsions:
REMARK  status: ('A' for Active; 'I' for Inactive)
REMARK    1  A    between atoms: C_1  and  C_2
REMARK    2  A    between atoms: C_4  and  C_5
REMARK    3  A    between atoms: N_16  and  C_17
REMARK    4  A    between atoms: C_17  and  C_18
REMARK    5  A    between atoms: C_17  and  C_19
REMARK                            x       y       z     vdW  Elec       q    Type
REMARK                         _______ _______ _______ _____ _____    ______ ____
ROOT
ATOM      1  C   UNL     1       1.618   6.919  20.269  0.00  0.00    +0.000 C 
ATOM      2  O   UNL     1       0.916   6.512  21.199  0.00  0.00    +0.000 OA
ATOM      3  N   UNL     1       1.675   8.278  19.949  0.00  0.00    +0.000 N 
ATOM      4  C   UNL     1       1.156   9.204  20.950  0.00  0.00    +0.000 C 
ATOM      5  C   UNL     1       1.233  10.675  20.494  0.00  0.00    +0.000 C 
ATOM      6  C   UNL     1       0.264  10.880  19.304  0.00  0.00    +0.000 C 
ATOM      7  C   UNL     1       0.522   9.718  18.270  0.00  0.00    +0.000 C 
ATOM      8  C   UNL     1       1.737   8.808  18.588  0.00  0.00    +0.000 C 
ATOM      9  C   UNL     1      -1.202  10.841  19.889  0.00  0.00    +0.000 C 
ATOM     10  C   UNL     1      -1.644  12.180  20.382  0.00  0.00    +0.000 A 
ATOM     11  C   UNL     1      -2.453  12.576  21.420  0.00  0.00    +0.000 A 
ATOM     12  N   UNL     1      -2.576  13.941  21.302  0.00  0.00    +0.000 N 
ATOM     13  N   UNL     1      -1.810  14.455  20.315  0.00  0.00    +0.000 NA
ATOM     14  C   UNL     1      -1.187  13.380  19.792  0.00  0.00    +0.000 A 
ATOM     15  C   UNL     1      -0.159  13.386  18.749  0.00  0.00    +0.000 C 
ATOM     16  O   UNL     1       0.133  14.347  18.039  0.00  0.00    +0.000 OA
ATOM     17  N   UNL     1       0.511  12.175  18.584  0.00  0.00    +0.000 N 
ATOM     18  H   UNL     1       1.208  12.228  17.852  0.00  0.00    +0.000 HD
ENDROOT
BRANCH   1  22
ATOM     19  C   UNL     1       6.219   5.202  18.890  0.00  0.00    +0.000 C 
ATOM     20  C   UNL     1       4.726   5.094  18.923  0.00  0.00    +0.000 C 
ATOM     21  C   UNL     1       3.906   6.101  19.324  0.00  0.00    +0.000 C 
ATOM     22  C   UNL     1       2.462   5.926  19.502  0.00  0.00    +0.000 C 
ATOM     23  C   UNL     1       1.863   4.786  19.073  0.00  0.00    +0.000 C 
ATOM     24  C   UNL     1       2.668   3.841  18.245  0.00  0.00    +0.000 C 
ATOM     25  C   UNL     1       2.505   2.354  18.074  0.00  0.00    +0.000 C 
ATOM     26  N   UNL     1       3.601   1.762  17.685  0.00  0.00    +0.000 NA
ATOM     27  N   UNL     1       4.602   2.727  17.801  0.00  0.00    +0.000 N 
ATOM     28  C   UNL     1       4.113   3.743  18.730  0.00  0.00    +0.000 C 
ATOM     29  H   UNL     1       4.783   3.140  16.882  0.00  0.00    +0.000 HD
ENDBRANCH   1  22
BRANCH  12  30
ATOM     30  C   UNL     1      -3.444  14.791  22.116  0.00  0.00    +0.000 C 
ATOM     31  C   UNL     1      -4.867  14.248  22.246  0.00  0.00    +0.000 C 
ATOM     32  C   UNL     1      -2.841  15.076  23.493  0.00  0.00    +0.000 C 
ENDBRANCH  12  30
TORSDOF 2
ENDMDL
