MODEL 1
REMARK VINA RESULT:      -7.8      0.000      0.000
REMARK  Name = 
REMARK  4 active torsions:
REMARK  status: ('A' for Active; 'I' for Inactive)
REMARK    1  A    between atoms: C_2  and  C_19
REMARK    2  A    between atoms: N_3  and  N_4
REMARK    3  A    between atoms: C_5  and  C_7
REMARK    4  A    between atoms: C_10  and  C_11
REMARK                            x       y       z     vdW  Elec       q    Type
REMARK                         _______ _______ _______ _____ _____    ______ ____
ROOT
ATOM      1  N   UNL     1       2.411   7.015  20.086  0.00  0.00    +0.000 N 
ATOM      2  C   UNL     1       2.070   5.682  20.017  0.00  0.00    +0.000 C 
ATOM      3  O   UNL     1       1.083   5.224  20.595  0.00  0.00    +0.000 OA
ATOM      4  H   UNL     1       3.219   7.399  19.601  0.00  0.00    +0.000 HD
ENDROOT
BRANCH   2   5
ATOM      5  C   UNL     1       2.964   4.843  19.208  0.00  0.00    +0.000 A 
ATOM      6  C   UNL     1       3.150   3.501  19.486  0.00  0.00    +0.000 A 
ATOM      7  S   UNL     1       4.248   2.805  18.388  0.00  0.00    +0.000 S 
ATOM      8  C   UNL     1       4.420   4.326  17.584  0.00  0.00    +0.000 A 
ATOM      9  N   UNL     1       3.706   5.311  18.113  0.00  0.00    +0.000 NA
BRANCH   8  10
ATOM     10  C   UNL     1       5.358   4.456  16.447  0.00  0.00    +0.000 A 
ATOM     11  C   UNL     1       6.610   5.060  16.644  0.00  0.00    +0.000 A 
ATOM     12  C   UNL     1       7.536   5.163  15.598  0.00  0.00    +0.000 A 
ATOM     13  C   UNL     1       7.223   4.671  14.333  0.00  0.00    +0.000 A 
ATOM     14  C   UNL     1       5.981   4.081  14.119  0.00  0.00    +0.000 A 
ATOM     15 BR   UNL     1       5.546   3.411  12.404  0.00  0.00    +0.000 Br
ATOM     16  C   UNL     1       5.054   3.976  15.158  0.00  0.00    +0.000 A 
ENDBRANCH   8  10
ENDBRANCH   2   5
BRANCH   1  19
ATOM     17  O   UNL     1       1.248   9.331  19.122  0.00  0.00    +0.000 OA
ATOM     18  C   UNL     1       1.093   9.022  20.299  0.00  0.00    +0.000 C 
ATOM     19  N   UNL     1       1.615   7.875  20.857  0.00  0.00    +0.000 N 
ATOM     20  H   UNL     1       1.483   7.665  21.849  0.00  0.00    +0.000 HD
BRANCH  18  21
ATOM     21  C   UNL     1       0.314   9.884  21.249  0.00  0.00    +0.000 A 
ATOM     22  C   UNL     1      -0.139   9.347  22.450  0.00  0.00    +0.000 A 
ATOM     23  C   UNL     1      -0.872  10.165  23.305  0.00  0.00    +0.000 A 
ATOM     24  C   UNL     1      -1.130  11.481  22.938  0.00  0.00    +0.000 A 
ATOM     25  C   UNL     1      -0.637  11.933  21.722  0.00  0.00    +0.000 A 
ATOM     26  N   UNL     1       0.081  11.171  20.864  0.00  0.00    +0.000 NA
ENDBRANCH  18  21
ENDBRANCH   1  19
TORSDOF 4
ENDMDL
MODEL 2
REMARK VINA RESULT:      -7.8      5.846      8.031
REMARK  Name = 
REMARK  4 active torsions:
REMARK  status: ('A' for Active; 'I' for Inactive)
REMARK    1  A    between atoms: C_2  and  C_19
REMARK    2  A    between atoms: N_3  and  N_4
REMARK    3  A    between atoms: C_5  and  C_7
REMARK    4  A    between atoms: C_10  and  C_11
REMARK                            x       y       z     vdW  Elec       q    Type
REMARK                         _______ _______ _______ _____ _____    ______ ____
ROOT
ATOM      1  N   UNL     1       7.795   8.299  17.871  0.00  0.00    +0.000 N 
ATOM      2  C   UNL     1       7.705   7.015  18.366  0.00  0.00    +0.000 C 
ATOM      3  O   UNL     1       8.497   6.575  19.201  0.00  0.00    +0.000 OA
ATOM      4  H   UNL     1       7.135   8.670  17.190  0.00  0.00    +0.000 HD
ENDROOT
BRANCH   2   5
ATOM      5  C   UNL     1       6.602   6.207  17.829  0.00  0.00    +0.000 A 
ATOM      6  C   UNL     1       6.516   5.899  16.484  0.00  0.00    +0.000 A 
ATOM      7  S   UNL     1       5.127   4.968  16.167  0.00  0.00    +0.000 S 
ATOM      8  C   UNL     1       4.708   5.010  17.844  0.00  0.00    +0.000 A 
ATOM      9  N   UNL     1       5.550   5.695  18.604  0.00  0.00    +0.000 NA
BRANCH   8  10
ATOM     10  C   UNL     1       3.458   4.367  18.306  0.00  0.00    +0.000 A 
ATOM     11  C   UNL     1       2.402   4.171  17.401  0.00  0.00    +0.000 A 
ATOM     12  C   UNL     1       1.221   3.530  17.796  0.00  0.00    +0.000 A 
ATOM     13  C   UNL     1       1.070   3.081  19.106  0.00  0.00    +0.000 A 
ATOM     14  C   UNL     1       2.102   3.281  20.018  0.00  0.00    +0.000 A 
ATOM     15 BR   UNL     1       1.906   2.677  21.801  0.00  0.00    +0.000 Br
ATOM     16  C   UNL     1       3.282   3.919  19.630  0.00  0.00    +0.000 A 
ENDBRANCH   8  10
ENDBRANCH   2   5
BRANCH   1  19
ATOM     17  O   UNL     1       7.871  11.038  17.504  0.00  0.00    +0.000 OA
ATOM     18  C   UNL     1       8.802  10.479  18.076  0.00  0.00    +0.000 C 
ATOM     19  N   UNL     1       8.835   9.124  18.324  0.00  0.00    +0.000 N 
ATOM     20  H   UNL     1       9.640   8.692  18.782  0.00  0.00    +0.000 HD
BRANCH  18  21
ATOM     21  C   UNL     1      10.005  11.235  18.557  0.00  0.00    +0.000 A 
ATOM     22  C   UNL     1      10.267  11.312  19.921  0.00  0.00    +0.000 A 
ATOM     23  C   UNL     1      11.382  12.033  20.341  0.00  0.00    +0.000 A 
ATOM     24  C   UNL     1      12.193  12.649  19.394  0.00  0.00    +0.000 A 
ATOM     25  C   UNL     1      11.857  12.517  18.054  0.00  0.00    +0.000 A 
ATOM     26  N   UNL     1      10.784  11.824  17.605  0.00  0.00    +0.000 NA
ENDBRANCH  18  21
ENDBRANCH   1  19
TORSDOF 4
ENDMDL
MODEL 3
REMARK VINA RESULT:      -7.3      3.651      5.134
REMARK  Name = 
REMARK  4 active torsions:
REMARK  status: ('A' for Active; 'I' for Inactive)
REMARK    1  A    between atoms: C_2  and  C_19
REMARK    2  A    between atoms: N_3  and  N_4
REMARK    3  A    between atoms: C_5  and  C_7
REMARK    4  A    between atoms: C_10  and  C_11
REMARK                            x       y       z     vdW  Elec       q    Type
REMARK                         _______ _______ _______ _____ _____    ______ ____
ROOT
ATOM      1  N   UNL     1       0.045  10.008  20.827  0.00  0.00    +0.000 N 
ATOM      2  C   UNL     1       0.689  10.297  19.644  0.00  0.00    +0.000 C 
ATOM      3  O   UNL     1       0.585  11.392  19.088  0.00  0.00    +0.000 OA
ATOM      4  H   UNL     1       0.138   9.109  21.295  0.00  0.00    +0.000 HD
ENDROOT
BRANCH   2   5
ATOM      5  C   UNL     1       1.507   9.211  19.089  0.00  0.00    +0.000 A 
ATOM      6  C   UNL     1       2.108   9.316  17.847  0.00  0.00    +0.000 A 
ATOM      7  S   UNL     1       2.972   7.898  17.475  0.00  0.00    +0.000 S 
ATOM      8  C   UNL     1       2.512   7.210  18.993  0.00  0.00    +0.000 A 
ATOM      9  N   UNL     1       1.741   7.989  19.738  0.00  0.00    +0.000 NA
BRANCH   8  10
ATOM     10  C   UNL     1       2.929   5.831  19.332  0.00  0.00    +0.000 A 
ATOM     11  C   UNL     1       4.141   5.329  18.832  0.00  0.00    +0.000 A 
ATOM     12  C   UNL     1       4.584   4.043  19.166  0.00  0.00    +0.000 A 
ATOM     13  C   UNL     1       3.818   3.232  20.000  0.00  0.00    +0.000 A 
ATOM     14  C   UNL     1       2.608   3.710  20.492  0.00  0.00    +0.000 A 
ATOM     15 BR   UNL     1       1.559   2.615  21.623  0.00  0.00    +0.000 Br
ATOM     16  C   UNL     1       2.162   4.992  20.163  0.00  0.00    +0.000 A 
ENDBRANCH   8  10
ENDBRANCH   2   5
BRANCH   1  19
ATOM     17  O   UNL     1      -0.251  10.364  23.554  0.00  0.00    +0.000 OA
ATOM     18  C   UNL     1      -0.876  11.082  22.779  0.00  0.00    +0.000 C 
ATOM     19  N   UNL     1      -0.770  10.991  21.408  0.00  0.00    +0.000 N 
ATOM     20  H   UNL     1      -1.326  11.591  20.796  0.00  0.00    +0.000 HD
BRANCH  18  21
ATOM     21  C   UNL     1      -1.829  12.133  23.267  0.00  0.00    +0.000 A 
ATOM     22  C   UNL     1      -1.405  13.455  23.358  0.00  0.00    +0.000 A 
ATOM     23  C   UNL     1      -2.305  14.408  23.828  0.00  0.00    +0.000 A 
ATOM     24  C   UNL     1      -3.589  14.014  24.191  0.00  0.00    +0.000 A 
ATOM     25  C   UNL     1      -3.926  12.674  24.065  0.00  0.00    +0.000 A 
ATOM     26  N   UNL     1      -3.082  11.718  23.610  0.00  0.00    +0.000 NA
ENDBRANCH  18  21
ENDBRANCH   1  19
TORSDOF 4
ENDMDL
MODEL 4
REMARK VINA RESULT:      -7.2      3.635      5.045
REMARK  Name = 
REMARK  4 active torsions:
REMARK  status: ('A' for Active; 'I' for Inactive)
REMARK    1  A    between atoms: C_2  and  C_19
REMARK    2  A    between atoms: N_3  and  N_4
REMARK    3  A    between atoms: C_5  and  C_7
REMARK    4  A    between atoms: C_10  and  C_11
REMARK                            x       y       z     vdW  Elec       q    Type
REMARK                         _______ _______ _______ _____ _____    ______ ____
ROOT
ATOM      1  N   UNL     1       0.650  10.401  20.907  0.00  0.00    +0.000 N 
ATOM      2  C   UNL     1       0.626  10.232  19.539  0.00  0.00    +0.000 C 
ATOM      3  O   UNL     1      -0.073  10.930  18.802  0.00  0.00    +0.000 OA
ATOM      4  H   UNL     1       1.235   9.835  21.518  0.00  0.00    +0.000 HD
ENDROOT
BRANCH   2   5
ATOM      5  C   UNL     1       1.490   9.165  19.020  0.00  0.00    +0.000 A 
ATOM      6  C   UNL     1       2.151   9.288  17.811  0.00  0.00    +0.000 A 
ATOM      7  S   UNL     1       3.058   7.888  17.475  0.00  0.00    +0.000 S 
ATOM      8  C   UNL     1       2.534   7.182  18.963  0.00  0.00    +0.000 A 
ATOM      9  N   UNL     1       1.712   7.943  19.673  0.00  0.00    +0.000 NA
BRANCH   8  10
ATOM     10  C   UNL     1       2.957   5.808  19.315  0.00  0.00    +0.000 A 
ATOM     11  C   UNL     1       4.172   5.308  18.821  0.00  0.00    +0.000 A 
ATOM     12  C   UNL     1       4.621   4.027  19.167  0.00  0.00    +0.000 A 
ATOM     13  C   UNL     1       3.858   3.219  20.006  0.00  0.00    +0.000 A 
ATOM     14  C   UNL     1       2.644   3.695  20.493  0.00  0.00    +0.000 A 
ATOM     15 BR   UNL     1       1.598   2.605  21.632  0.00  0.00    +0.000 Br
ATOM     16  C   UNL     1       2.192   4.973  20.152  0.00  0.00    +0.000 A 
ENDBRANCH   8  10
ENDBRANCH   2   5
BRANCH   1  19
ATOM     17  O   UNL     1      -0.319  10.308  23.495  0.00  0.00    +0.000 OA
ATOM     18  C   UNL     1      -0.622  11.250  22.770  0.00  0.00    +0.000 C 
ATOM     19  N   UNL     1      -0.165  11.390  21.477  0.00  0.00    +0.000 N 
ATOM     20  H   UNL     1      -0.460  12.178  20.897  0.00  0.00    +0.000 HD
BRANCH  18  21
ATOM     21  C   UNL     1      -1.535  12.346  23.235  0.00  0.00    +0.000 A 
ATOM     22  C   UNL     1      -2.904  12.114  23.310  0.00  0.00    +0.000 A 
ATOM     23  C   UNL     1      -3.730  13.152  23.731  0.00  0.00    +0.000 A 
ATOM     24  C   UNL     1      -3.168  14.381  24.060  0.00  0.00    +0.000 A 
ATOM     25  C   UNL     1      -1.791  14.523  23.959  0.00  0.00    +0.000 A 
ATOM     26  N   UNL     1      -0.955  13.538  23.556  0.00  0.00    +0.000 NA
ENDBRANCH  18  21
ENDBRANCH   1  19
TORSDOF 4
ENDMDL
MODEL 5
REMARK VINA RESULT:      -7.1      5.469     10.764
REMARK  Name = 
REMARK  4 active torsions:
REMARK  status: ('A' for Active; 'I' for Inactive)
REMARK    1  A    between atoms: C_2  and  C_19
REMARK    2  A    between atoms: N_3  and  N_4
REMARK    3  A    between atoms: C_5  and  C_7
REMARK    4  A    between atoms: C_10  and  C_11
REMARK                            x       y       z     vdW  Elec       q    Type
REMARK                         _______ _______ _______ _____ _____    ______ ____
ROOT
ATOM      1  N   UNL     1       1.352   8.521  21.280  0.00  0.00    +0.000 N 
ATOM      2  C   UNL     1       0.099   8.915  21.699  0.00  0.00    +0.000 C 
ATOM      3  O   UNL     1      -0.789   8.105  21.971  0.00  0.00    +0.000 OA
ATOM      4  H   UNL     1       2.091   9.187  21.065  0.00  0.00    +0.000 HD
ENDROOT
BRANCH   2   5
ATOM      5  C   UNL     1      -0.106  10.366  21.797  0.00  0.00    +0.000 A 
ATOM      6  C   UNL     1       0.617  11.255  21.023  0.00  0.00    +0.000 A 
ATOM      7  S   UNL     1       0.168  12.859  21.371  0.00  0.00    +0.000 S 
ATOM      8  C   UNL     1      -0.980  12.293  22.534  0.00  0.00    +0.000 A 
ATOM      9  N   UNL     1      -1.020  10.976  22.670  0.00  0.00    +0.000 NA
BRANCH   8  10
ATOM     10  C   UNL     1      -1.769  13.266  23.322  0.00  0.00    +0.000 A 
ATOM     11  C   UNL     1      -3.143  13.051  23.515  0.00  0.00    +0.000 A 
ATOM     12  C   UNL     1      -3.911  13.931  24.289  0.00  0.00    +0.000 A 
ATOM     13  C   UNL     1      -3.320  15.047  24.876  0.00  0.00    +0.000 A 
ATOM     14  C   UNL     1      -1.962  15.281  24.682  0.00  0.00    +0.000 A 
ATOM     15 BR   UNL     1      -1.150  16.796  25.474  0.00  0.00    +0.000 Br
ATOM     16  C   UNL     1      -1.191  14.407  23.912  0.00  0.00    +0.000 A 
ENDBRANCH   8  10
ENDBRANCH   2   5
BRANCH   1  19
ATOM     17  O   UNL     1       2.467   7.373  19.024  0.00  0.00    +0.000 OA
ATOM     18  C   UNL     1       2.153   6.661  19.973  0.00  0.00    +0.000 C 
ATOM     19  N   UNL     1       1.616   7.150  21.144  0.00  0.00    +0.000 N 
ATOM     20  H   UNL     1       1.346   6.521  21.903  0.00  0.00    +0.000 HD
BRANCH  18  21
ATOM     21  C   UNL     1       2.326   5.171  19.936  0.00  0.00    +0.000 A 
ATOM     22  C   UNL     1       1.346   4.352  20.485  0.00  0.00    +0.000 A 
ATOM     23  C   UNL     1       1.538   2.973  20.449  0.00  0.00    +0.000 A 
ATOM     24  C   UNL     1       2.696   2.460  19.874  0.00  0.00    +0.000 A 
ATOM     25  C   UNL     1       3.620   3.352  19.348  0.00  0.00    +0.000 A 
ATOM     26  N   UNL     1       3.469   4.697  19.361  0.00  0.00    +0.000 NA
ENDBRANCH  18  21
ENDBRANCH   1  19
TORSDOF 4
ENDMDL
MODEL 6
REMARK VINA RESULT:      -7.1      2.032      2.561
REMARK  Name = 
REMARK  4 active torsions:
REMARK  status: ('A' for Active; 'I' for Inactive)
REMARK    1  A    between atoms: C_2  and  C_19
REMARK    2  A    between atoms: N_3  and  N_4
REMARK    3  A    between atoms: C_5  and  C_7
REMARK    4  A    between atoms: C_10  and  C_11
REMARK                            x       y       z     vdW  Elec       q    Type
REMARK                         _______ _______ _______ _____ _____    ______ ____
ROOT
ATOM      1  N   UNL     1       3.099   7.678  17.846  0.00  0.00    +0.000 N 
ATOM      2  C   UNL     1       3.453   6.434  18.325  0.00  0.00    +0.000 C 
ATOM      3  O   UNL     1       2.850   5.890  19.251  0.00  0.00    +0.000 OA
ATOM      4  H   UNL     1       3.588   8.126  17.074  0.00  0.00    +0.000 HD
ENDROOT
BRANCH   2   5
ATOM      5  C   UNL     1       4.598   5.803  17.657  0.00  0.00    +0.000 A 
ATOM      6  C   UNL     1       5.675   5.312  18.372  0.00  0.00    +0.000 A 
ATOM      7  S   UNL     1       6.845   4.656  17.325  0.00  0.00    +0.000 S 
ATOM      8  C   UNL     1       5.857   5.052  15.962  0.00  0.00    +0.000 A 
ATOM      9  N   UNL     1       4.717   5.655  16.267  0.00  0.00    +0.000 NA
BRANCH   8  10
ATOM     10  C   UNL     1       6.344   4.768  14.593  0.00  0.00    +0.000 A 
ATOM     11  C   UNL     1       7.413   5.512  14.068  0.00  0.00    +0.000 A 
ATOM     12  C   UNL     1       7.923   5.243  12.792  0.00  0.00    +0.000 A 
ATOM     13  C   UNL     1       7.367   4.231  12.013  0.00  0.00    +0.000 A 
ATOM     14  C   UNL     1       6.298   3.495  12.514  0.00  0.00    +0.000 A 
ATOM     15 BR   UNL     1       5.534   2.120  11.463  0.00  0.00    +0.000 Br
ATOM     16  C   UNL     1       5.785   3.758  13.786  0.00  0.00    +0.000 A 
ENDBRANCH   8  10
ENDBRANCH   2   5
BRANCH   1  19
ATOM     17  O   UNL     1       2.477  10.331  17.380  0.00  0.00    +0.000 OA
ATOM     18  C   UNL     1       1.803   9.683  18.175  0.00  0.00    +0.000 C 
ATOM     19  N   UNL     1       2.026   8.351  18.448  0.00  0.00    +0.000 N 
ATOM     20  H   UNL     1       1.457   7.852  19.135  0.00  0.00    +0.000 HD
BRANCH  18  21
ATOM     21  C   UNL     1       0.662  10.297  18.932  0.00  0.00    +0.000 A 
ATOM     22  C   UNL     1      -0.610  10.305  18.371  0.00  0.00    +0.000 A 
ATOM     23  C   UNL     1      -1.647  10.894  19.089  0.00  0.00    +0.000 A 
ATOM     24  C   UNL     1      -1.383  11.455  20.334  0.00  0.00    +0.000 A 
ATOM     25  C   UNL     1      -0.083  11.400  20.818  0.00  0.00    +0.000 A 
ATOM     26  N   UNL     1       0.951  10.834  20.152  0.00  0.00    +0.000 NA
ENDBRANCH  18  21
ENDBRANCH   1  19
TORSDOF 4
ENDMDL
MODEL 7
REMARK VINA RESULT:      -7.0      3.532      5.117
REMARK  Name = 
REMARK  4 active torsions:
REMARK  status: ('A' for Active; 'I' for Inactive)
REMARK    1  A    between atoms: C_2  and  C_19
REMARK    2  A    between atoms: N_3  and  N_4
REMARK    3  A    between atoms: C_5  and  C_7
REMARK    4  A    between atoms: C_10  and  C_11
REMARK                            x       y       z     vdW  Elec       q    Type
REMARK                         _______ _______ _______ _____ _____    ______ ____
ROOT
ATOM      1  N   UNL     1      -0.405  10.005  20.832  0.00  0.00    +0.000 N 
ATOM      2  C   UNL     1       0.792  10.209  20.180  0.00  0.00    +0.000 C 
ATOM      3  O   UNL     1       1.307  11.324  20.082  0.00  0.00    +0.000 OA
ATOM      4  H   UNL     1      -0.828   9.083  20.924  0.00  0.00    +0.000 HD
ENDROOT
BRANCH   2   5
ATOM      5  C   UNL     1       1.412   9.007  19.608  0.00  0.00    +0.000 A 
ATOM      6  C   UNL     1       1.983   9.014  18.348  0.00  0.00    +0.000 A 
ATOM      7  S   UNL     1       2.602   7.477  17.959  0.00  0.00    +0.000 S 
ATOM      8  C   UNL     1       2.087   6.873  19.495  0.00  0.00    +0.000 A 
ATOM      9  N   UNL     1       1.471   7.765  20.258  0.00  0.00    +0.000 NA
BRANCH   8  10
ATOM     10  C   UNL     1       2.293   5.446  19.831  0.00  0.00    +0.000 A 
ATOM     11  C   UNL     1       2.012   4.991  21.129  0.00  0.00    +0.000 A 
ATOM     12  C   UNL     1       2.159   3.640  21.469  0.00  0.00    +0.000 A 
ATOM     13  C   UNL     1       2.598   2.721  20.519  0.00  0.00    +0.000 A 
ATOM     14  C   UNL     1       2.895   3.160  19.232  0.00  0.00    +0.000 A 
ATOM     15 BR   UNL     1       3.494   1.920  17.935  0.00  0.00    +0.000 Br
ATOM     16  C   UNL     1       2.749   4.506  18.887  0.00  0.00    +0.000 A 
ENDBRANCH   8  10
ENDBRANCH   2   5
BRANCH   1  19
ATOM     17  O   UNL     1      -0.400  10.618  23.528  0.00  0.00    +0.000 OA
ATOM     18  C   UNL     1      -1.029  11.327  22.748  0.00  0.00    +0.000 C 
ATOM     19  N   UNL     1      -1.066  11.110  21.388  0.00  0.00    +0.000 N 
ATOM     20  H   UNL     1      -1.621  11.710  20.774  0.00  0.00    +0.000 HD
BRANCH  18  21
ATOM     21  C   UNL     1      -1.829  12.506  23.218  0.00  0.00    +0.000 A 
ATOM     22  C   UNL     1      -3.203  12.378  23.394  0.00  0.00    +0.000 A 
ATOM     23  C   UNL     1      -3.923  13.492  23.818  0.00  0.00    +0.000 A 
ATOM     24  C   UNL     1      -3.255  14.689  24.048  0.00  0.00    +0.000 A 
ATOM     25  C   UNL     1      -1.881  14.726  23.849  0.00  0.00    +0.000 A 
ATOM     26  N   UNL     1      -1.146  13.665  23.441  0.00  0.00    +0.000 NA
ENDBRANCH  18  21
ENDBRANCH   1  19
TORSDOF 4
ENDMDL
MODEL 8
REMARK VINA RESULT:      -7.0      2.879      4.918
REMARK  Name = 
REMARK  4 active torsions:
REMARK  status: ('A' for Active; 'I' for Inactive)
REMARK    1  A    between atoms: C_2  and  C_19
REMARK    2  A    between atoms: N_3  and  N_4
REMARK    3  A    between atoms: C_5  and  C_7
REMARK    4  A    between atoms: C_10  and  C_11
REMARK                            x       y       z     vdW  Elec       q    Type
REMARK                         _______ _______ _______ _____ _____    ______ ____
ROOT
ATOM      1  N   UNL     1      -0.495  11.024  20.852  0.00  0.00    +0.000 N 
ATOM      2  C   UNL     1       0.399  10.068  21.285  0.00  0.00    +0.000 C 
ATOM      3  O   UNL     1       0.611   9.859  22.480  0.00  0.00    +0.000 OA
ATOM      4  H   UNL     1      -0.682  11.191  19.865  0.00  0.00    +0.000 HD
ENDROOT
BRANCH   2   5
ATOM      5  C   UNL     1       1.081   9.316  20.224  0.00  0.00    +0.000 A 
ATOM      6  C   UNL     1       1.209   9.820  18.943  0.00  0.00    +0.000 A 
ATOM      7  S   UNL     1       2.030   8.717  17.940  0.00  0.00    +0.000 S 
ATOM      8  C   UNL     1       2.186   7.618  19.266  0.00  0.00    +0.000 A 
ATOM      9  N   UNL     1       1.642   8.041  20.398  0.00  0.00    +0.000 NA
BRANCH   8  10
ATOM     10  C   UNL     1       2.828   6.300  19.057  0.00  0.00    +0.000 A 
ATOM     11  C   UNL     1       2.678   5.294  20.025  0.00  0.00    +0.000 A 
ATOM     12  C   UNL     1       3.239   4.024  19.840  0.00  0.00    +0.000 A 
ATOM     13  C   UNL     1       3.969   3.740  18.688  0.00  0.00    +0.000 A 
ATOM     14  C   UNL     1       4.138   4.732  17.727  0.00  0.00    +0.000 A 
ATOM     15 BR   UNL     1       5.130   4.358  16.159  0.00  0.00    +0.000 Br
ATOM     16  C   UNL     1       3.580   6.000  17.905  0.00  0.00    +0.000 A 
ENDBRANCH   8  10
ENDBRANCH   2   5
BRANCH   1  19
ATOM     17  O   UNL     1       0.466  13.402  21.884  0.00  0.00    +0.000 OA
ATOM     18  C   UNL     1      -0.606  12.959  22.285  0.00  0.00    +0.000 C 
ATOM     19  N   UNL     1      -1.171  11.796  21.808  0.00  0.00    +0.000 N 
ATOM     20  H   UNL     1      -2.055  11.447  22.185  0.00  0.00    +0.000 HD
BRANCH  18  21
ATOM     21  C   UNL     1      -1.402  13.654  23.349  0.00  0.00    +0.000 A 
ATOM     22  C   UNL     1      -2.719  13.270  23.583  0.00  0.00    +0.000 A 
ATOM     23  C   UNL     1      -3.440  13.942  24.566  0.00  0.00    +0.000 A 
ATOM     24  C   UNL     1      -2.830  14.969  25.279  0.00  0.00    +0.000 A 
ATOM     25  C   UNL     1      -1.511  15.284  24.980  0.00  0.00    +0.000 A 
ATOM     26  N   UNL     1      -0.776  14.653  24.034  0.00  0.00    +0.000 NA
ENDBRANCH  18  21
ENDBRANCH   1  19
TORSDOF 4
ENDMDL
MODEL 9
REMARK VINA RESULT:      -7.0      3.630      5.627
REMARK  Name = 
REMARK  4 active torsions:
REMARK  status: ('A' for Active; 'I' for Inactive)
REMARK    1  A    between atoms: C_2  and  C_19
REMARK    2  A    between atoms: N_3  and  N_4
REMARK    3  A    between atoms: C_5  and  C_7
REMARK    4  A    between atoms: C_10  and  C_11
REMARK                            x       y       z     vdW  Elec       q    Type
REMARK                         _______ _______ _______ _____ _____    ______ ____
ROOT
ATOM      1  N   UNL     1      -0.623  11.271  21.206  0.00  0.00    +0.000 N 
ATOM      2  C   UNL     1       0.255  10.313  21.665  0.00  0.00    +0.000 C 
ATOM      3  O   UNL     1       0.486  10.153  22.865  0.00  0.00    +0.000 OA
ATOM      4  H   UNL     1      -0.825  11.399  20.216  0.00  0.00    +0.000 HD
ENDROOT
BRANCH   2   5
ATOM      5  C   UNL     1       0.898   9.497  20.628  0.00  0.00    +0.000 A 
ATOM      6  C   UNL     1       1.041   9.953  19.330  0.00  0.00    +0.000 A 
ATOM      7  S   UNL     1       1.808   8.783  18.362  0.00  0.00    +0.000 S 
ATOM      8  C   UNL     1       1.922   7.722  19.722  0.00  0.00    +0.000 A 
ATOM      9  N   UNL     1       1.404   8.206  20.841  0.00  0.00    +0.000 NA
BRANCH   8  10
ATOM     10  C   UNL     1       2.505   6.371  19.555  0.00  0.00    +0.000 A 
ATOM     11  C   UNL     1       3.413   6.131  18.511  0.00  0.00    +0.000 A 
ATOM     12  C   UNL     1       4.013   4.876  18.349  0.00  0.00    +0.000 A 
ATOM     13  C   UNL     1       3.707   3.834  19.222  0.00  0.00    +0.000 A 
ATOM     14  C   UNL     1       2.797   4.053  20.252  0.00  0.00    +0.000 A 
ATOM     15 BR   UNL     1       2.373   2.644  21.442  0.00  0.00    +0.000 Br
ATOM     16  C   UNL     1       2.197   5.303  20.419  0.00  0.00    +0.000 A 
ENDBRANCH   8  10
ENDBRANCH   2   5
BRANCH   1  19
ATOM     17  O   UNL     1       0.400  13.684  22.088  0.00  0.00    +0.000 OA
ATOM     18  C   UNL     1      -0.667  13.279  22.539  0.00  0.00    +0.000 C 
ATOM     19  N   UNL     1      -1.261  12.102  22.139  0.00  0.00    +0.000 N 
ATOM     20  H   UNL     1      -2.139  11.787  22.556  0.00  0.00    +0.000 HD
BRANCH  18  21
ATOM     21  C   UNL     1      -1.424  14.041  23.587  0.00  0.00    +0.000 A 
ATOM     22  C   UNL     1      -2.793  13.841  23.726  0.00  0.00    +0.000 A 
ATOM     23  C   UNL     1      -3.474  14.572  24.696  0.00  0.00    +0.000 A 
ATOM     24  C   UNL     1      -2.772  15.473  25.489  0.00  0.00    +0.000 A 
ATOM     25  C   UNL     1      -1.406  15.606  25.283  0.00  0.00    +0.000 A 
ATOM     26  N   UNL     1      -0.708  14.913  24.353  0.00  0.00    +0.000 NA
ENDBRANCH  18  21
ENDBRANCH   1  19
TORSDOF 4
ENDMDL
