MODEL 1
REMARK VINA RESULT:      -6.6      0.000      0.000
REMARK  Name = 
REMARK  5 active torsions:
REMARK  status: ('A' for Active; 'I' for Inactive)
REMARK    1  A    between atoms: C_1  and  C_2
REMARK    2  A    between atoms: C_17  and  C_18
REMARK    3  A    between atoms: C_17  and  O_19
REMARK    4  A    between atoms: C_20  and  C_21
REMARK    5  A    between atoms: C_20  and  O_22
REMARK                            x       y       z     vdW  Elec       q    Type
REMARK                         _______ _______ _______ _____ _____    ______ ____
ROOT
ATOM      1  C   UNL     1       0.711   4.955  20.015  0.00  0.00    +0.000 C 
ATOM      2  C   UNL     1       1.574   3.784  19.524  0.00  0.00    +0.000 C 
ATOM      3  C   UNL     1       2.103   4.108  17.905  0.00  0.00    +0.000 C 
ATOM      4  O   UNL     1       1.268   4.296  17.016  0.00  0.00    +0.000 OA
ATOM      5  O   UNL     1       3.469   4.098  17.599  0.00  0.00    +0.000 OA
ATOM      6  C   UNL     1       4.128   5.065  16.660  0.00  0.00    +0.000 C 
ATOM      7  C   UNL     1       4.933   4.529  15.449  0.00  0.00    +0.000 C 
ATOM      8  C   UNL     1       6.151   5.473  15.266  0.00  0.00    +0.000 C 
ATOM      9  N   UNL     1       5.951   6.600  16.201  0.00  0.00    +0.000 NA
ATOM     10  C   UNL     1       7.247   7.070  16.765  0.00  0.00    +0.000 C 
ATOM     11  C   UNL     1       7.492   6.174  17.920  0.00  0.00    +0.000 C 
ATOM     12  C   UNL     1       6.397   5.447  18.182  0.00  0.00    +0.000 C 
ATOM     13  C   UNL     1       6.414   4.314  19.143  0.00  0.00    +0.000 C 
ATOM     14  O   UNL     1       5.603   4.569  20.242  0.00  0.00    +0.000 OA
ATOM     15  C   UNL     1       4.320   4.373  19.864  0.00  0.00    +0.000 C 
ATOM     16  O   UNL     1       3.643   5.395  19.652  0.00  0.00    +0.000 OA
ATOM     17  C   UNL     1       3.841   2.857  20.065  0.00  0.00    +0.000 C 
ATOM     18  C   UNL     1       3.468   1.721  19.058  0.00  0.00    +0.000 C 
ATOM     19  C   UNL     1       2.532   3.235  20.757  0.00  0.00    +0.000 C 
ATOM     20  C   UNL     1       2.000   2.082  21.643  0.00  0.00    +0.000 C 
ATOM     21  C   UNL     1       5.219   5.962  17.355  0.00  0.00    +0.000 C 
ENDROOT
BRANCH  17  22
ATOM     22  O   UNL     1       4.814   2.232  20.923  0.00  0.00    +0.000 OA
ATOM     23  H   UNL     1       5.678   2.577  20.630  0.00  0.00    +0.000 HD
ENDBRANCH  17  22
BRANCH  19  24
ATOM     24  O   UNL     1       2.873   4.182  21.811  0.00  0.00    +0.000 OA
ATOM     25  H   UNL     1       2.070   4.541  22.214  0.00  0.00    +0.000 HD
ENDBRANCH  19  24
TORSDOF 2
ENDMDL
MODEL 2
REMARK VINA RESULT:      -6.2      2.306      5.425
REMARK  Name = 
REMARK  5 active torsions:
REMARK  status: ('A' for Active; 'I' for Inactive)
REMARK    1  A    between atoms: C_1  and  C_2
REMARK    2  A    between atoms: C_17  and  C_18
REMARK    3  A    between atoms: C_17  and  O_19
REMARK    4  A    between atoms: C_20  and  C_21
REMARK    5  A    between atoms: C_20  and  O_22
REMARK                            x       y       z     vdW  Elec       q    Type
REMARK                         _______ _______ _______ _____ _____    ______ ____
ROOT
ATOM      1  C   UNL     1       4.680   7.041  15.203  0.00  0.00    +0.000 C 
ATOM      2  C   UNL     1       5.206   6.812  16.628  0.00  0.00    +0.000 C 
ATOM      3  C   UNL     1       3.888   6.932  17.746  0.00  0.00    +0.000 C 
ATOM      4  O   UNL     1       3.229   7.973  17.804  0.00  0.00    +0.000 OA
ATOM      5  O   UNL     1       3.611   5.874  18.620  0.00  0.00    +0.000 OA
ATOM      6  C   UNL     1       2.227   5.425  18.987  0.00  0.00    +0.000 C 
ATOM      7  C   UNL     1       1.810   5.372  20.479  0.00  0.00    +0.000 C 
ATOM      8  C   UNL     1       0.892   4.131  20.643  0.00  0.00    +0.000 C 
ATOM      9  N   UNL     1       0.640   3.612  19.282  0.00  0.00    +0.000 NA
ATOM     10  C   UNL     1       0.558   2.125  19.279  0.00  0.00    +0.000 C 
ATOM     11  C   UNL     1       1.967   1.679  19.173  0.00  0.00    +0.000 C 
ATOM     12  C   UNL     1       2.762   2.720  18.890  0.00  0.00    +0.000 C 
ATOM     13  C   UNL     1       4.244   2.618  18.937  0.00  0.00    +0.000 C 
ATOM     14  O   UNL     1       4.805   2.800  17.678  0.00  0.00    +0.000 OA
ATOM     15  C   UNL     1       4.796   4.124  17.410  0.00  0.00    +0.000 C 
ATOM     16  O   UNL     1       3.922   4.523  16.619  0.00  0.00    +0.000 OA
ATOM     17  C   UNL     1       6.116   4.869  17.929  0.00  0.00    +0.000 C 
ATOM     18  C   UNL     1       6.364   5.919  19.061  0.00  0.00    +0.000 C 
ATOM     19  C   UNL     1       6.354   5.619  16.619  0.00  0.00    +0.000 C 
ATOM     20  C   UNL     1       7.838   6.030  16.457  0.00  0.00    +0.000 C 
ATOM     21  C   UNL     1       1.915   3.946  18.548  0.00  0.00    +0.000 C 
ENDROOT
BRANCH  17  22
ATOM     22  O   UNL     1       7.081   3.840  18.214  0.00  0.00    +0.000 OA
ATOM     23  H   UNL     1       6.589   3.151  18.700  0.00  0.00    +0.000 HD
ENDBRANCH  17  22
BRANCH  19  24
ATOM     24  O   UNL     1       6.282   4.631  15.551  0.00  0.00    +0.000 OA
ATOM     25  H   UNL     1       6.533   5.029  14.705  0.00  0.00    +0.000 HD
ENDBRANCH  19  24
TORSDOF 2
ENDMDL
MODEL 3
REMARK VINA RESULT:      -6.2      8.763     10.574
REMARK  Name = 
REMARK  5 active torsions:
REMARK  status: ('A' for Active; 'I' for Inactive)
REMARK    1  A    between atoms: C_1  and  C_2
REMARK    2  A    between atoms: C_17  and  C_18
REMARK    3  A    between atoms: C_17  and  O_19
REMARK    4  A    between atoms: C_20  and  C_21
REMARK    5  A    between atoms: C_20  and  O_22
REMARK                            x       y       z     vdW  Elec       q    Type
REMARK                         _______ _______ _______ _____ _____    ______ ____
ROOT
ATOM      1  C   UNL     1       0.697   9.297  20.428  0.00  0.00    +0.000 C 
ATOM      2  C   UNL     1      -0.511  10.202  20.147  0.00  0.00    +0.000 C 
ATOM      3  C   UNL     1      -0.779  11.233  21.514  0.00  0.00    +0.000 C 
ATOM      4  O   UNL     1      -0.993  10.734  22.622  0.00  0.00    +0.000 OA
ATOM      5  O   UNL     1      -0.810  12.623  21.349  0.00  0.00    +0.000 OA
ATOM      6  C   UNL     1      -0.220  13.599  22.324  0.00  0.00    +0.000 C 
ATOM      7  C   UNL     1      -1.114  14.713  22.927  0.00  0.00    +0.000 C 
ATOM      8  C   UNL     1      -0.225  15.979  23.058  0.00  0.00    +0.000 C 
ATOM      9  N   UNL     1       1.153  15.560  22.726  0.00  0.00    +0.000 NA
ATOM     10  C   UNL     1       1.885  16.637  22.004  0.00  0.00    +0.000 C 
ATOM     11  C   UNL     1       1.503  16.452  20.584  0.00  0.00    +0.000 C 
ATOM     12  C   UNL     1       0.854  15.290  20.427  0.00  0.00    +0.000 C 
ATOM     13  C   UNL     1       0.165  14.936  19.158  0.00  0.00    +0.000 C 
ATOM     14  O   UNL     1       0.756  13.836  18.550  0.00  0.00    +0.000 OA
ATOM     15  C   UNL     1       0.346  12.730  19.209  0.00  0.00    +0.000 C 
ATOM     16  O   UNL     1       1.167  12.214  19.989  0.00  0.00    +0.000 OA
ATOM     17  C   UNL     1      -1.014  12.125  18.616  0.00  0.00    +0.000 C 
ATOM     18  C   UNL     1      -2.466  12.024  19.187  0.00  0.00    +0.000 C 
ATOM     19  C   UNL     1      -0.495  10.688  18.564  0.00  0.00    +0.000 C 
ATOM     20  C   UNL     1      -1.268   9.838  17.527  0.00  0.00    +0.000 C 
ATOM     21  C   UNL     1       0.942  14.465  21.710  0.00  0.00    +0.000 C 
ENDROOT
BRANCH  17  22
ATOM     22  O   UNL     1      -1.207  12.739  17.328  0.00  0.00    +0.000 OA
ATOM     23  H   UNL     1      -1.716  13.552  17.502  0.00  0.00    +0.000 HD
ENDBRANCH  17  22
BRANCH  19  24
ATOM     24  O   UNL     1       0.797  10.733  17.893  0.00  0.00    +0.000 OA
ATOM     25  H   UNL     1       1.478  11.068  18.493  0.00  0.00    +0.000 HD
ENDBRANCH  19  24
TORSDOF 2
ENDMDL
MODEL 4
REMARK VINA RESULT:      -6.1      1.525      3.362
REMARK  Name = 
REMARK  5 active torsions:
REMARK  status: ('A' for Active; 'I' for Inactive)
REMARK    1  A    between atoms: C_1  and  C_2
REMARK    2  A    between atoms: C_17  and  C_18
REMARK    3  A    between atoms: C_17  and  O_19
REMARK    4  A    between atoms: C_20  and  C_21
REMARK    5  A    between atoms: C_20  and  O_22
REMARK                            x       y       z     vdW  Elec       q    Type
REMARK                         _______ _______ _______ _____ _____    ______ ____
ROOT
ATOM      1  C   UNL     1       2.762   1.229  18.476  0.00  0.00    +0.000 C 
ATOM      2  C   UNL     1       2.811   2.384  19.486  0.00  0.00    +0.000 C 
ATOM      3  C   UNL     1       4.464   2.800  19.795  0.00  0.00    +0.000 C 
ATOM      4  O   UNL     1       5.237   1.945  20.236  0.00  0.00    +0.000 OA
ATOM      5  O   UNL     1       4.905   4.115  19.599  0.00  0.00    +0.000 OA
ATOM      6  C   UNL     1       6.240   4.476  19.019  0.00  0.00    +0.000 C 
ATOM      7  C   UNL     1       7.197   5.398  19.818  0.00  0.00    +0.000 C 
ATOM      8  C   UNL     1       7.915   6.304  18.783  0.00  0.00    +0.000 C 
ATOM      9  N   UNL     1       7.533   5.799  17.447  0.00  0.00    +0.000 NA
ATOM     10  C   UNL     1       7.391   6.913  16.469  0.00  0.00    +0.000 C 
ATOM     11  C   UNL     1       6.004   7.399  16.666  0.00  0.00    +0.000 C 
ATOM     12  C   UNL     1       5.323   6.551  17.448  0.00  0.00    +0.000 C 
ATOM     13  C   UNL     1       3.980   6.883  17.992  0.00  0.00    +0.000 C 
ATOM     14  O   UNL     1       3.004   6.034  17.486  0.00  0.00    +0.000 OA
ATOM     15  C   UNL     1       3.099   4.858  18.143  0.00  0.00    +0.000 C 
ATOM     16  O   UNL     1       3.640   3.922  17.527  0.00  0.00    +0.000 OA
ATOM     17  C   UNL     1       2.213   4.820  19.478  0.00  0.00    +0.000 C 
ATOM     18  C   UNL     1       2.584   4.778  20.996  0.00  0.00    +0.000 C 
ATOM     19  C   UNL     1       1.590   3.458  19.172  0.00  0.00    +0.000 C 
ATOM     20  C   UNL     1       0.239   3.270  19.903  0.00  0.00    +0.000 C 
ATOM     21  C   UNL     1       6.136   5.275  17.667  0.00  0.00    +0.000 C 
ENDROOT
BRANCH  17  22
ATOM     22  O   UNL     1       1.299   5.929  19.392  0.00  0.00    +0.000 OA
ATOM     23  H   UNL     1       0.794   5.914  20.227  0.00  0.00    +0.000 HD
ENDBRANCH  17  22
BRANCH  19  24
ATOM     24  O   UNL     1       1.093   3.522  17.804  0.00  0.00    +0.000 OA
ATOM     25  H   UNL     1       1.615   4.150  17.284  0.00  0.00    +0.000 HD
ENDBRANCH  19  24
TORSDOF 2
ENDMDL
MODEL 5
REMARK VINA RESULT:      -5.9      1.639      2.675
REMARK  Name = 
REMARK  5 active torsions:
REMARK  status: ('A' for Active; 'I' for Inactive)
REMARK    1  A    between atoms: C_1  and  C_2
REMARK    2  A    between atoms: C_17  and  C_18
REMARK    3  A    between atoms: C_17  and  O_19
REMARK    4  A    between atoms: C_20  and  C_21
REMARK    5  A    between atoms: C_20  and  O_22
REMARK                            x       y       z     vdW  Elec       q    Type
REMARK                         _______ _______ _______ _____ _____    ______ ____
ROOT
ATOM      1  C   UNL     1       1.988   3.750  21.661  0.00  0.00    +0.000 C 
ATOM      2  C   UNL     1       1.590   4.040  20.207  0.00  0.00    +0.000 C 
ATOM      3  C   UNL     1       2.286   5.550  19.718  0.00  0.00    +0.000 C 
ATOM      4  O   UNL     1       2.015   6.579  20.344  0.00  0.00    +0.000 OA
ATOM      5  O   UNL     1       3.104   5.611  18.583  0.00  0.00    +0.000 OA
ATOM      6  C   UNL     1       4.342   6.452  18.483  0.00  0.00    +0.000 C 
ATOM      7  C   UNL     1       4.476   7.483  17.333  0.00  0.00    +0.000 C 
ATOM      8  C   UNL     1       5.966   7.481  16.900  0.00  0.00    +0.000 C 
ATOM      9  N   UNL     1       6.685   6.636  17.877  0.00  0.00    +0.000 NA
ATOM     10  C   UNL     1       7.782   5.870  17.222  0.00  0.00    +0.000 C 
ATOM     11  C   UNL     1       7.115   4.659  16.686  0.00  0.00    +0.000 C 
ATOM     12  C   UNL     1       5.867   4.569  17.164  0.00  0.00    +0.000 C 
ATOM     13  C   UNL     1       4.890   3.581  16.637  0.00  0.00    +0.000 C 
ATOM     14  O   UNL     1       4.535   2.651  17.606  0.00  0.00    +0.000 OA
ATOM     15  C   UNL     1       3.652   3.242  18.441  0.00  0.00    +0.000 C 
ATOM     16  O   UNL     1       4.093   3.606  19.547  0.00  0.00    +0.000 OA
ATOM     17  C   UNL     1       2.134   3.076  17.956  0.00  0.00    +0.000 C 
ATOM     18  C   UNL     1       1.077   4.093  17.415  0.00  0.00    +0.000 C 
ATOM     19  C   UNL     1       1.616   2.639  19.326  0.00  0.00    +0.000 C 
ATOM     20  C   UNL     1       0.307   1.821  19.208  0.00  0.00    +0.000 C 
ATOM     21  C   UNL     1       5.652   5.607  18.265  0.00  0.00    +0.000 C 
ENDROOT
BRANCH  17  22
ATOM     22  O   UNL     1       2.136   2.039  16.957  0.00  0.00    +0.000 OA
ATOM     23  H   UNL     1       2.765   2.338  16.274  0.00  0.00    +0.000 HD
ENDBRANCH  17  22
BRANCH  19  24
ATOM     24  O   UNL     1       2.498   1.575  19.788  0.00  0.00    +0.000 OA
ATOM     25  H   UNL     1       2.350   0.768  19.276  0.00  0.00    +0.000 HD
ENDBRANCH  19  24
TORSDOF 2
ENDMDL
MODEL 6
REMARK VINA RESULT:      -5.9      9.265     11.767
REMARK  Name = 
REMARK  5 active torsions:
REMARK  status: ('A' for Active; 'I' for Inactive)
REMARK    1  A    between atoms: C_1  and  C_2
REMARK    2  A    between atoms: C_17  and  C_18
REMARK    3  A    between atoms: C_17  and  O_19
REMARK    4  A    between atoms: C_20  and  C_21
REMARK    5  A    between atoms: C_20  and  O_22
REMARK                            x       y       z     vdW  Elec       q    Type
REMARK                         _______ _______ _______ _____ _____    ______ ____
ROOT
ATOM      1  C   UNL     1      -0.290  10.274  19.130  0.00  0.00    +0.000 C 
ATOM      2  C   UNL     1      -0.358  11.800  19.280  0.00  0.00    +0.000 C 
ATOM      3  C   UNL     1      -2.018  12.297  19.301  0.00  0.00    +0.000 C 
ATOM      4  O   UNL     1      -2.747  12.029  18.343  0.00  0.00    +0.000 OA
ATOM      5  O   UNL     1      -2.512  13.048  20.375  0.00  0.00    +0.000 OA
ATOM      6  C   UNL     1      -3.873  12.861  20.976  0.00  0.00    +0.000 C 
ATOM      7  C   UNL     1      -4.845  14.066  21.061  0.00  0.00    +0.000 C 
ATOM      8  C   UNL     1      -5.621  13.924  22.397  0.00  0.00    +0.000 C 
ATOM      9  N   UNL     1      -5.252  12.606  22.958  0.00  0.00    +0.000 NA
ATOM     10  C   UNL     1      -5.175  12.655  24.444  0.00  0.00    +0.000 C 
ATOM     11  C   UNL     1      -3.803  13.142  24.725  0.00  0.00    +0.000 C 
ATOM     12  C   UNL     1      -3.072  13.139  23.602  0.00  0.00    +0.000 C 
ATOM     13  C   UNL     1      -1.730  13.774  23.531  0.00  0.00    +0.000 C 
ATOM     14  O   UNL     1      -0.735  12.833  23.300  0.00  0.00    +0.000 OA
ATOM     15  C   UNL     1      -0.770  12.507  21.989  0.00  0.00    +0.000 C 
ATOM     16  O   UNL     1      -1.291  11.414  21.703  0.00  0.00    +0.000 OA
ATOM     17  C   UNL     1       0.148  13.464  21.089  0.00  0.00    +0.000 C 
ATOM     18  C   UNL     1      -0.185  14.540  20.005  0.00  0.00    +0.000 C 
ATOM     19  C   UNL     1       0.813  12.315  20.332  0.00  0.00    +0.000 C 
ATOM     20  C   UNL     1       2.188  12.731  19.754  0.00  0.00    +0.000 C 
ATOM     21  C   UNL     1      -3.831  12.420  22.486  0.00  0.00    +0.000 C 
ENDROOT
BRANCH  17  22
ATOM     22  O   UNL     1       1.018  14.166  21.996  0.00  0.00    +0.000 OA
ATOM     23  H   UNL     1       0.574  14.126  22.864  0.00  0.00    +0.000 HD
ENDBRANCH  17  22
BRANCH  19  24
ATOM     24  O   UNL     1       1.276  11.364  21.334  0.00  0.00    +0.000 OA
ATOM     25  H   UNL     1       0.542  11.090  21.903  0.00  0.00    +0.000 HD
ENDBRANCH  19  24
TORSDOF 2
ENDMDL
MODEL 7
REMARK VINA RESULT:      -5.8      1.388      1.503
REMARK  Name = 
REMARK  5 active torsions:
REMARK  status: ('A' for Active; 'I' for Inactive)
REMARK    1  A    between atoms: C_1  and  C_2
REMARK    2  A    between atoms: C_17  and  C_18
REMARK    3  A    between atoms: C_17  and  O_19
REMARK    4  A    between atoms: C_20  and  C_21
REMARK    5  A    between atoms: C_20  and  O_22
REMARK                            x       y       z     vdW  Elec       q    Type
REMARK                         _______ _______ _______ _____ _____    ______ ____
ROOT
ATOM      1  C   UNL     1       1.002   5.229  20.451  0.00  0.00    +0.000 C 
ATOM      2  C   UNL     1       1.489   4.454  19.218  0.00  0.00    +0.000 C 
ATOM      3  C   UNL     1       2.152   5.570  18.070  0.00  0.00    +0.000 C 
ATOM      4  O   UNL     1       1.448   6.481  17.627  0.00  0.00    +0.000 OA
ATOM      5  O   UNL     1       3.462   5.401  17.604  0.00  0.00    +0.000 OA
ATOM      6  C   UNL     1       4.417   6.531  17.354  0.00  0.00    +0.000 C 
ATOM      7  C   UNL     1       5.067   6.688  15.956  0.00  0.00    +0.000 C 
ATOM      8  C   UNL     1       6.520   7.182  16.190  0.00  0.00    +0.000 C 
ATOM      9  N   UNL     1       6.636   7.475  17.634  0.00  0.00    +0.000 NA
ATOM     10  C   UNL     1       7.991   7.133  18.148  0.00  0.00    +0.000 C 
ATOM     11  C   UNL     1       7.909   5.686  18.463  0.00  0.00    +0.000 C 
ATOM     12  C   UNL     1       6.637   5.271  18.403  0.00  0.00    +0.000 C 
ATOM     13  C   UNL     1       6.273   3.831  18.460  0.00  0.00    +0.000 C 
ATOM     14  O   UNL     1       5.536   3.539  19.602  0.00  0.00    +0.000 OA
ATOM     15  C   UNL     1       4.270   3.963  19.396  0.00  0.00    +0.000 C 
ATOM     16  O   UNL     1       3.941   5.022  19.961  0.00  0.00    +0.000 OA
ATOM     17  C   UNL     1       3.347   2.847  18.709  0.00  0.00    +0.000 C 
ATOM     18  C   UNL     1       2.687   2.740  17.296  0.00  0.00    +0.000 C 
ATOM     19  C   UNL     1       2.188   3.029  19.689  0.00  0.00    +0.000 C 
ATOM     20  C   UNL     1       1.299   1.764  19.765  0.00  0.00    +0.000 C 
ATOM     21  C   UNL     1       5.701   6.472  18.263  0.00  0.00    +0.000 C 
ENDROOT
BRANCH  17  22
ATOM     22  O   UNL     1       4.052   1.598  18.840  0.00  0.00    +0.000 OA
ATOM     23  H   UNL     1       3.587   1.112  19.547  0.00  0.00    +0.000 HD
ENDBRANCH  17  22
BRANCH  19  24
ATOM     24  O   UNL     1       2.759   2.976  21.029  0.00  0.00    +0.000 OA
ATOM     25  H   UNL     1       3.652   2.603  21.000  0.00  0.00    +0.000 HD
ENDBRANCH  19  24
TORSDOF 2
ENDMDL
MODEL 8
REMARK VINA RESULT:      -5.8      9.769     12.358
REMARK  Name = 
REMARK  5 active torsions:
REMARK  status: ('A' for Active; 'I' for Inactive)
REMARK    1  A    between atoms: C_1  and  C_2
REMARK    2  A    between atoms: C_17  and  C_18
REMARK    3  A    between atoms: C_17  and  O_19
REMARK    4  A    between atoms: C_20  and  C_21
REMARK    5  A    between atoms: C_20  and  O_22
REMARK                            x       y       z     vdW  Elec       q    Type
REMARK                         _______ _______ _______ _____ _____    ______ ____
ROOT
ATOM      1  C   UNL     1      12.231  11.766  19.596  0.00  0.00    +0.000 C 
ATOM      2  C   UNL     1      10.850  12.155  19.047  0.00  0.00    +0.000 C 
ATOM      3  C   UNL     1       9.665  11.952  20.294  0.00  0.00    +0.000 C 
ATOM      4  O   UNL     1       9.510  10.844  20.815  0.00  0.00    +0.000 OA
ATOM      5  O   UNL     1       8.847  13.026  20.666  0.00  0.00    +0.000 OA
ATOM      6  C   UNL     1       8.444  13.325  22.080  0.00  0.00    +0.000 C 
ATOM      7  C   UNL     1       6.940  13.430  22.441  0.00  0.00    +0.000 C 
ATOM      8  C   UNL     1       6.810  14.557  23.500  0.00  0.00    +0.000 C 
ATOM      9  N   UNL     1       8.188  14.947  23.868  0.00  0.00    +0.000 NA
ATOM     10  C   UNL     1       8.281  16.409  24.136  0.00  0.00    +0.000 C 
ATOM     11  C   UNL     1       8.482  17.015  22.799  0.00  0.00    +0.000 C 
ATOM     12  C   UNL     1       8.736  16.062  21.892  0.00  0.00    +0.000 C 
ATOM     13  C   UNL     1       8.767  16.348  20.434  0.00  0.00    +0.000 C 
ATOM     14  O   UNL     1      10.036  16.151  19.905  0.00  0.00    +0.000 OA
ATOM     15  C   UNL     1      10.221  14.820  19.759  0.00  0.00    +0.000 C 
ATOM     16  O   UNL     1      10.942  14.264  20.607  0.00  0.00    +0.000 OA
ATOM     17  C   UNL     1       9.719  14.279  18.336  0.00  0.00    +0.000 C 
ATOM     18  C   UNL     1       8.536  13.348  17.914  0.00  0.00    +0.000 C 
ATOM     19  C   UNL     1      10.989  13.476  18.058  0.00  0.00    +0.000 C 
ATOM     20  C   UNL     1      11.196  13.240  16.542  0.00  0.00    +0.000 C 
ATOM     21  C   UNL     1       8.959  14.721  22.591  0.00  0.00    +0.000 C 
ENDROOT
BRANCH  17  22
ATOM     22  O   UNL     1       9.546  15.435  17.497  0.00  0.00    +0.000 OA
ATOM     23  H   UNL     1      10.442  15.671  17.192  0.00  0.00    +0.000 HD
ENDBRANCH  17  22
BRANCH  19  24
ATOM     24  O   UNL     1      12.113  14.373  18.295  0.00  0.00    +0.000 OA
ATOM     25  H   UNL     1      12.014  14.819  19.149  0.00  0.00    +0.000 HD
ENDBRANCH  19  24
TORSDOF 2
ENDMDL
MODEL 9
REMARK VINA RESULT:      -5.8     12.101     13.899
REMARK  Name = 
REMARK  5 active torsions:
REMARK  status: ('A' for Active; 'I' for Inactive)
REMARK    1  A    between atoms: C_1  and  C_2
REMARK    2  A    between atoms: C_17  and  C_18
REMARK    3  A    between atoms: C_17  and  O_19
REMARK    4  A    between atoms: C_20  and  C_21
REMARK    5  A    between atoms: C_20  and  O_22
REMARK                            x       y       z     vdW  Elec       q    Type
REMARK                         _______ _______ _______ _____ _____    ______ ____
ROOT
ATOM      1  C   UNL     1      -1.670  13.429  23.127  0.00  0.00    +0.000 C 
ATOM      2  C   UNL     1      -2.821  14.368  22.740  0.00  0.00    +0.000 C 
ATOM      3  C   UNL     1      -3.270  14.068  21.093  0.00  0.00    +0.000 C 
ATOM      4  O   UNL     1      -2.430  14.192  20.198  0.00  0.00    +0.000 OA
ATOM      5  O   UNL     1      -4.595  13.743  20.776  0.00  0.00    +0.000 OA
ATOM      6  C   UNL     1      -4.988  12.727  19.745  0.00  0.00    +0.000 C 
ATOM      7  C   UNL     1      -5.925  13.140  18.582  0.00  0.00    +0.000 C 
ATOM      8  C   UNL     1      -6.852  11.928  18.299  0.00  0.00    +0.000 C 
ATOM      9  N   UNL     1      -6.345  10.812  19.126  0.00  0.00    +0.000 NA
ATOM     10  C   UNL     1      -7.461   9.964  19.630  0.00  0.00    +0.000 C 
ATOM     11  C   UNL     1      -7.917  10.651  20.862  0.00  0.00    +0.000 C 
ATOM     12  C   UNL     1      -7.050  11.615  21.202  0.00  0.00    +0.000 C 
ATOM     13  C   UNL     1      -7.351  12.609  22.265  0.00  0.00    +0.000 C 
ATOM     14  O   UNL     1      -6.485  12.477  23.343  0.00  0.00    +0.000 OA
ATOM     15  C   UNL     1      -5.307  13.042  22.997  0.00  0.00    +0.000 C 
ATOM     16  O   UNL     1      -4.385  12.261  22.697  0.00  0.00    +0.000 OA
ATOM     17  C   UNL     1      -5.244  14.605  23.344  0.00  0.00    +0.000 C 
ATOM     18  C   UNL     1      -5.202  15.888  22.452  0.00  0.00    +0.000 C 
ATOM     19  C   UNL     1      -3.871  14.526  24.010  0.00  0.00    +0.000 C 
ATOM     20  C   UNL     1      -3.650  15.691  25.005  0.00  0.00    +0.000 C 
ATOM     21  C   UNL     1      -5.790  11.512  20.342  0.00  0.00    +0.000 C 
ENDROOT
BRANCH  17  22
ATOM     22  O   UNL     1      -6.334  14.866  24.248  0.00  0.00    +0.000 OA
ATOM     23  H   UNL     1      -6.175  15.765  24.592  0.00  0.00    +0.000 HD
ENDBRANCH  17  22
BRANCH  19  24
ATOM     24  O   UNL     1      -3.931  13.429  24.967  0.00  0.00    +0.000 OA
ATOM     25  H   UNL     1      -4.183  13.758  25.842  0.00  0.00    +0.000 HD
ENDBRANCH  19  24
TORSDOF 2
ENDMDL
