MODEL 1
REMARK VINA RESULT:      -6.5      0.000      0.000
REMARK  Name = 
REMARK  5 active torsions:
REMARK  status: ('A' for Active; 'I' for Inactive)
REMARK    1  A    between atoms: C_1  and  C_2
REMARK    2  A    between atoms: C_2  and  S_3
REMARK    3  A    between atoms: S_3  and  C_4
REMARK    4  A    between atoms: C_7  and  O_8
REMARK    5  A    between atoms: N_9  and  C_10
REMARK                            x       y       z     vdW  Elec       q    Type
REMARK                         _______ _______ _______ _____ _____    ______ ____
ROOT
ATOM      1  C   UNL     1       6.367   4.413  16.143  0.00  0.00    +0.000 A 
ATOM      2  N   UNL     1       7.627   4.709  16.374  0.00  0.00    +0.000 NA
ATOM      3  N   UNL     1       7.772   4.937  17.728  0.00  0.00    +0.000 NA
ATOM      4  C   UNL     1       6.599   4.809  18.265  0.00  0.00    +0.000 A 
ATOM      5  N   UNL     1       5.634   4.506  17.322  0.00  0.00    +0.000 N 
ENDROOT
BRANCH   5   6
ATOM      6  C   UNL     1       4.270   4.287  17.582  0.00  0.00    +0.000 A 
ATOM      7  C   UNL     1       3.795   2.966  17.630  0.00  0.00    +0.000 A 
ATOM      8  C   UNL     1       2.449   2.721  17.857  0.00  0.00    +0.000 A 
ATOM      9  C   UNL     1       1.568   3.789  18.011  0.00  0.00    +0.000 A 
ATOM     10  C   UNL     1       2.034   5.103  17.951  0.00  0.00    +0.000 A 
ATOM     11  C   UNL     1       3.382   5.357  17.747  0.00  0.00    +0.000 A 
ENDBRANCH   5   6
BRANCH   4  12
ATOM     12  O   UNL     1       6.398   4.841  19.579  0.00  0.00    +0.000 OA
ATOM     13  H   UNL     1       5.483   4.529  19.673  0.00  0.00    +0.000 HD
ENDBRANCH   4  12
BRANCH   1  14
ATOM     14  S   UNL     1       5.710   4.095  14.566  0.00  0.00    +0.000 S 
BRANCH  14  16
ATOM     15  C   UNL     1       6.928   3.882  12.139  0.00  0.00    +0.000 C 
ATOM     16  C   UNL     1       7.083   4.572  13.486  0.00  0.00    +0.000 C 
ENDBRANCH  14  16
ENDBRANCH   1  14
TORSDOF 4
ENDMDL
MODEL 2
REMARK VINA RESULT:      -6.4      0.082      1.254
REMARK  Name = 
REMARK  5 active torsions:
REMARK  status: ('A' for Active; 'I' for Inactive)
REMARK    1  A    between atoms: C_1  and  C_2
REMARK    2  A    between atoms: C_2  and  S_3
REMARK    3  A    between atoms: S_3  and  C_4
REMARK    4  A    between atoms: C_7  and  O_8
REMARK    5  A    between atoms: N_9  and  C_10
REMARK                            x       y       z     vdW  Elec       q    Type
REMARK                         _______ _______ _______ _____ _____    ______ ____
ROOT
ATOM      1  C   UNL     1       6.393   4.379  16.153  0.00  0.00    +0.000 A 
ATOM      2  N   UNL     1       7.648   4.672  16.415  0.00  0.00    +0.000 NA
ATOM      3  N   UNL     1       7.763   4.895  17.772  0.00  0.00    +0.000 NA
ATOM      4  C   UNL     1       6.577   4.766  18.281  0.00  0.00    +0.000 A 
ATOM      5  N   UNL     1       5.634   4.469  17.315  0.00  0.00    +0.000 N 
ENDROOT
BRANCH   5   6
ATOM      6  C   UNL     1       4.263   4.251  17.544  0.00  0.00    +0.000 A 
ATOM      7  C   UNL     1       3.427   5.360  17.747  0.00  0.00    +0.000 A 
ATOM      8  C   UNL     1       2.077   5.173  18.003  0.00  0.00    +0.000 A 
ATOM      9  C   UNL     1       1.560   3.881  18.082  0.00  0.00    +0.000 A 
ATOM     10  C   UNL     1       2.392   2.776  17.893  0.00  0.00    +0.000 A 
ATOM     11  C   UNL     1       3.738   2.955  17.615  0.00  0.00    +0.000 A 
ENDBRANCH   5   6
BRANCH   4  12
ATOM     12  O   UNL     1       6.346   4.793  19.591  0.00  0.00    +0.000 OA
ATOM     13  H   UNL     1       6.229   3.856  19.817  0.00  0.00    +0.000 HD
ENDBRANCH   4  12
BRANCH   1  14
ATOM     14  S   UNL     1       5.772   4.070  14.560  0.00  0.00    +0.000 S 
BRANCH  14  16
ATOM     15  C   UNL     1       7.024   4.016  12.142  0.00  0.00    +0.000 C 
ATOM     16  C   UNL     1       7.117   4.675  13.510  0.00  0.00    +0.000 C 
ENDBRANCH  14  16
ENDBRANCH   1  14
TORSDOF 4
ENDMDL
MODEL 3
REMARK VINA RESULT:      -6.1      1.089      1.333
REMARK  Name = 
REMARK  5 active torsions:
REMARK  status: ('A' for Active; 'I' for Inactive)
REMARK    1  A    between atoms: C_1  and  C_2
REMARK    2  A    between atoms: C_2  and  S_3
REMARK    3  A    between atoms: S_3  and  C_4
REMARK    4  A    between atoms: C_7  and  O_8
REMARK    5  A    between atoms: N_9  and  C_10
REMARK                            x       y       z     vdW  Elec       q    Type
REMARK                         _______ _______ _______ _____ _____    ______ ____
ROOT
ATOM      1  C   UNL     1       6.386   4.563  16.449  0.00  0.00    +0.000 A 
ATOM      2  N   UNL     1       7.670   4.312  16.578  0.00  0.00    +0.000 NA
ATOM      3  N   UNL     1       8.027   4.562  17.888  0.00  0.00    +0.000 NA
ATOM      4  C   UNL     1       6.964   4.987  18.499  0.00  0.00    +0.000 A 
ATOM      5  N   UNL     1       5.876   5.050  17.648  0.00  0.00    +0.000 N 
ENDROOT
BRANCH   5   6
ATOM      6  C   UNL     1       4.576   5.452  18.005  0.00  0.00    +0.000 A 
ATOM      7  C   UNL     1       3.705   4.503  18.563  0.00  0.00    +0.000 A 
ATOM      8  C   UNL     1       2.408   4.865  18.897  0.00  0.00    +0.000 A 
ATOM      9  C   UNL     1       1.968   6.164  18.653  0.00  0.00    +0.000 A 
ATOM     10  C   UNL     1       2.827   7.105  18.085  0.00  0.00    +0.000 A 
ATOM     11  C   UNL     1       4.132   6.758  17.769  0.00  0.00    +0.000 A 
ENDBRANCH   5   6
BRANCH   4  12
ATOM     12  O   UNL     1       6.922   5.203  19.810  0.00  0.00    +0.000 OA
ATOM     13  H   UNL     1       6.691   6.144  19.874  0.00  0.00    +0.000 HD
ENDBRANCH   4  12
BRANCH   1  14
ATOM     14  S   UNL     1       5.509   4.433  14.955  0.00  0.00    +0.000 S 
BRANCH  14  16
ATOM     15  C   UNL     1       6.354   3.600  12.503  0.00  0.00    +0.000 C 
ATOM     16  C   UNL     1       6.850   4.331  13.742  0.00  0.00    +0.000 C 
ENDBRANCH  14  16
ENDBRANCH   1  14
TORSDOF 4
ENDMDL
MODEL 4
REMARK VINA RESULT:      -6.0      1.071      1.903
REMARK  Name = 
REMARK  5 active torsions:
REMARK  status: ('A' for Active; 'I' for Inactive)
REMARK    1  A    between atoms: C_1  and  C_2
REMARK    2  A    between atoms: C_2  and  S_3
REMARK    3  A    between atoms: S_3  and  C_4
REMARK    4  A    between atoms: C_7  and  O_8
REMARK    5  A    between atoms: N_9  and  C_10
REMARK                            x       y       z     vdW  Elec       q    Type
REMARK                         _______ _______ _______ _____ _____    ______ ____
ROOT
ATOM      1  C   UNL     1       6.490   4.805  15.905  0.00  0.00    +0.000 A 
ATOM      2  N   UNL     1       7.729   4.398  16.066  0.00  0.00    +0.000 NA
ATOM      3  N   UNL     1       7.996   4.361  17.420  0.00  0.00    +0.000 NA
ATOM      4  C   UNL     1       6.930   4.777  18.030  0.00  0.00    +0.000 A 
ATOM      5  N   UNL     1       5.928   5.114  17.139  0.00  0.00    +0.000 N 
ENDROOT
BRANCH   5   6
ATOM      6  C   UNL     1       4.646   5.580  17.481  0.00  0.00    +0.000 A 
ATOM      7  C   UNL     1       4.414   6.964  17.503  0.00  0.00    +0.000 A 
ATOM      8  C   UNL     1       3.167   7.453  17.864  0.00  0.00    +0.000 A 
ATOM      9  C   UNL     1       2.156   6.566  18.229  0.00  0.00    +0.000 A 
ATOM     10  C   UNL     1       2.387   5.190  18.221  0.00  0.00    +0.000 A 
ATOM     11  C   UNL     1       3.624   4.692  17.839  0.00  0.00    +0.000 A 
ENDBRANCH   5   6
BRANCH   4  12
ATOM     12  O   UNL     1       6.797   4.750  19.353  0.00  0.00    +0.000 OA
ATOM     13  H   UNL     1       5.847   4.897  19.486  0.00  0.00    +0.000 HD
ENDBRANCH   4  12
BRANCH   1  14
ATOM     14  S   UNL     1       5.733   5.049  14.359  0.00  0.00    +0.000 S 
BRANCH  14  16
ATOM     15  C   UNL     1       6.982   4.025  12.166  0.00  0.00    +0.000 C 
ATOM     16  C   UNL     1       6.278   3.586  13.441  0.00  0.00    +0.000 C 
ENDBRANCH  14  16
ENDBRANCH   1  14
TORSDOF 4
ENDMDL
MODEL 5
REMARK VINA RESULT:      -6.0      2.953      5.417
REMARK  Name = 
REMARK  5 active torsions:
REMARK  status: ('A' for Active; 'I' for Inactive)
REMARK    1  A    between atoms: C_1  and  C_2
REMARK    2  A    between atoms: C_2  and  S_3
REMARK    3  A    between atoms: S_3  and  C_4
REMARK    4  A    between atoms: C_7  and  O_8
REMARK    5  A    between atoms: N_9  and  C_10
REMARK                            x       y       z     vdW  Elec       q    Type
REMARK                         _______ _______ _______ _____ _____    ______ ____
ROOT
ATOM      1  C   UNL     1       2.490   4.610  17.877  0.00  0.00    +0.000 A 
ATOM      2  N   UNL     1       1.490   3.769  17.733  0.00  0.00    +0.000 NA
ATOM      3  N   UNL     1       2.009   2.491  17.680  0.00  0.00    +0.000 NA
ATOM      4  C   UNL     1       3.299   2.599  17.758  0.00  0.00    +0.000 A 
ATOM      5  N   UNL     1       3.697   3.919  17.853  0.00  0.00    +0.000 N 
ENDROOT
BRANCH   5   6
ATOM      6  C   UNL     1       5.024   4.371  17.970  0.00  0.00    +0.000 A 
ATOM      7  C   UNL     1       5.458   4.879  19.205  0.00  0.00    +0.000 A 
ATOM      8  C   UNL     1       6.753   5.358  19.341  0.00  0.00    +0.000 A 
ATOM      9  C   UNL     1       7.609   5.358  18.242  0.00  0.00    +0.000 A 
ATOM     10  C   UNL     1       7.176   4.867  17.010  0.00  0.00    +0.000 A 
ATOM     11  C   UNL     1       5.891   4.365  16.871  0.00  0.00    +0.000 A 
ENDBRANCH   5   6
BRANCH   4  12
ATOM     12  O   UNL     1       4.108   1.548  17.861  0.00  0.00    +0.000 OA
ATOM     13  H   UNL     1       3.542   0.804  17.599  0.00  0.00    +0.000 HD
ENDBRANCH   4  12
BRANCH   1  14
ATOM     14  S   UNL     1       2.314   6.337  17.943  0.00  0.00    +0.000 S 
BRANCH  14  16
ATOM     15  C   UNL     1       1.803   5.550  20.500  0.00  0.00    +0.000 C 
ATOM     16  C   UNL     1       2.481   6.664  19.716  0.00  0.00    +0.000 C 
ENDBRANCH  14  16
ENDBRANCH   1  14
TORSDOF 4
ENDMDL
MODEL 6
REMARK VINA RESULT:      -5.9      2.750      3.643
REMARK  Name = 
REMARK  5 active torsions:
REMARK  status: ('A' for Active; 'I' for Inactive)
REMARK    1  A    between atoms: C_1  and  C_2
REMARK    2  A    between atoms: C_2  and  S_3
REMARK    3  A    between atoms: S_3  and  C_4
REMARK    4  A    between atoms: C_7  and  O_8
REMARK    5  A    between atoms: N_9  and  C_10
REMARK                            x       y       z     vdW  Elec       q    Type
REMARK                         _______ _______ _______ _____ _____    ______ ____
ROOT
ATOM      1  C   UNL     1       4.140   5.527  17.494  0.00  0.00    +0.000 A 
ATOM      2  N   UNL     1       4.412   6.691  16.947  0.00  0.00    +0.000 NA
ATOM      3  N   UNL     1       3.610   7.643  17.543  0.00  0.00    +0.000 NA
ATOM      4  C   UNL     1       2.858   7.026  18.401  0.00  0.00    +0.000 A 
ATOM      5  N   UNL     1       3.105   5.666  18.414  0.00  0.00    +0.000 N 
ENDROOT
BRANCH   5   6
ATOM      6  C   UNL     1       2.471   4.722  19.242  0.00  0.00    +0.000 A 
ATOM      7  C   UNL     1       1.481   3.895  18.689  0.00  0.00    +0.000 A 
ATOM      8  C   UNL     1       0.820   2.975  19.489  0.00  0.00    +0.000 A 
ATOM      9  C   UNL     1       1.124   2.895  20.846  0.00  0.00    +0.000 A 
ATOM     10  C   UNL     1       2.098   3.725  21.402  0.00  0.00    +0.000 A 
ATOM     11  C   UNL     1       2.780   4.632  20.604  0.00  0.00    +0.000 A 
ENDBRANCH   5   6
BRANCH   4  12
ATOM     12  O   UNL     1       2.049   7.663  19.244  0.00  0.00    +0.000 OA
ATOM     13  H   UNL     1       2.031   7.079  20.020  0.00  0.00    +0.000 HD
ENDBRANCH   4  12
BRANCH   1  14
ATOM     14  S   UNL     1       4.878   4.027  17.020  0.00  0.00    +0.000 S 
BRANCH  14  16
ATOM     15  C   UNL     1       7.476   4.623  17.580  0.00  0.00    +0.000 C 
ATOM     16  C   UNL     1       6.494   4.578  16.419  0.00  0.00    +0.000 C 
ENDBRANCH  14  16
ENDBRANCH   1  14
TORSDOF 4
ENDMDL
MODEL 7
REMARK VINA RESULT:      -5.9      2.256      3.195
REMARK  Name = 
REMARK  5 active torsions:
REMARK  status: ('A' for Active; 'I' for Inactive)
REMARK    1  A    between atoms: C_1  and  C_2
REMARK    2  A    between atoms: C_2  and  S_3
REMARK    3  A    between atoms: S_3  and  C_4
REMARK    4  A    between atoms: C_7  and  O_8
REMARK    5  A    between atoms: N_9  and  C_10
REMARK                            x       y       z     vdW  Elec       q    Type
REMARK                         _______ _______ _______ _____ _____    ______ ____
ROOT
ATOM      1  C   UNL     1       6.848   4.853  16.999  0.00  0.00    +0.000 A 
ATOM      2  N   UNL     1       7.765   4.686  16.073  0.00  0.00    +0.000 NA
ATOM      3  N   UNL     1       7.126   4.424  14.878  0.00  0.00    +0.000 NA
ATOM      4  C   UNL     1       5.852   4.406  15.123  0.00  0.00    +0.000 A 
ATOM      5  N   UNL     1       5.584   4.637  16.459  0.00  0.00    +0.000 N 
ENDROOT
BRANCH   5   6
ATOM      6  C   UNL     1       4.306   4.699  17.043  0.00  0.00    +0.000 A 
ATOM      7  C   UNL     1       3.538   3.526  17.114  0.00  0.00    +0.000 A 
ATOM      8  C   UNL     1       2.263   3.564  17.659  0.00  0.00    +0.000 A 
ATOM      9  C   UNL     1       1.740   4.774  18.110  0.00  0.00    +0.000 A 
ATOM     10  C   UNL     1       2.495   5.944  18.029  0.00  0.00    +0.000 A 
ATOM     11  C   UNL     1       3.779   5.911  17.506  0.00  0.00    +0.000 A 
ENDBRANCH   5   6
BRANCH   4  12
ATOM     12  O   UNL     1       4.933   4.303  14.167  0.00  0.00    +0.000 OA
ATOM     13  H   UNL     1       4.340   3.611  14.500  0.00  0.00    +0.000 HD
ENDBRANCH   4  12
BRANCH   1  14
ATOM     14  S   UNL     1       7.193   5.157  18.675  0.00  0.00    +0.000 S 
BRANCH  14  16
ATOM     15  C   UNL     1       7.374   7.634  17.556  0.00  0.00    +0.000 C 
ATOM     16  C   UNL     1       8.045   6.753  18.598  0.00  0.00    +0.000 C 
ENDBRANCH  14  16
ENDBRANCH   1  14
TORSDOF 4
ENDMDL
MODEL 8
REMARK VINA RESULT:      -5.9      3.026      5.582
REMARK  Name = 
REMARK  5 active torsions:
REMARK  status: ('A' for Active; 'I' for Inactive)
REMARK    1  A    between atoms: C_1  and  C_2
REMARK    2  A    between atoms: C_2  and  S_3
REMARK    3  A    between atoms: S_3  and  C_4
REMARK    4  A    between atoms: C_7  and  O_8
REMARK    5  A    between atoms: N_9  and  C_10
REMARK                            x       y       z     vdW  Elec       q    Type
REMARK                         _______ _______ _______ _____ _____    ______ ____
ROOT
ATOM      1  C   UNL     1       3.238   4.551  19.741  0.00  0.00    +0.000 A 
ATOM      2  N   UNL     1       2.642   3.862  20.688  0.00  0.00    +0.000 NA
ATOM      3  N   UNL     1       3.264   2.633  20.781  0.00  0.00    +0.000 NA
ATOM      4  C   UNL     1       4.187   2.604  19.870  0.00  0.00    +0.000 A 
ATOM      5  N   UNL     1       4.220   3.774  19.136  0.00  0.00    +0.000 N 
ENDROOT
BRANCH   5   6
ATOM      6  C   UNL     1       5.115   4.065  18.090  0.00  0.00    +0.000 A 
ATOM      7  C   UNL     1       6.353   4.648  18.403  0.00  0.00    +0.000 A 
ATOM      8  C   UNL     1       7.243   4.971  17.389  0.00  0.00    +0.000 A 
ATOM      9  C   UNL     1       6.892   4.739  16.061  0.00  0.00    +0.000 A 
ATOM     10  C   UNL     1       5.657   4.171  15.746  0.00  0.00    +0.000 A 
ATOM     11  C   UNL     1       4.771   3.824  16.755  0.00  0.00    +0.000 A 
ENDBRANCH   5   6
BRANCH   4  12
ATOM     12  O   UNL     1       5.065   1.610  19.762  0.00  0.00    +0.000 OA
ATOM     13  H   UNL     1       5.889   2.064  19.524  0.00  0.00    +0.000 HD
ENDBRANCH   4  12
BRANCH   1  14
ATOM     14  S   UNL     1       2.756   6.144  19.240  0.00  0.00    +0.000 S 
BRANCH  14  16
ATOM     15  C   UNL     1       1.530   8.174  20.579  0.00  0.00    +0.000 C 
ATOM     16  C   UNL     1       1.693   6.662  20.611  0.00  0.00    +0.000 C 
ENDBRANCH  14  16
ENDBRANCH   1  14
TORSDOF 4
ENDMDL
MODEL 9
REMARK VINA RESULT:      -5.9      2.621      3.495
REMARK  Name = 
REMARK  5 active torsions:
REMARK  status: ('A' for Active; 'I' for Inactive)
REMARK    1  A    between atoms: C_1  and  C_2
REMARK    2  A    between atoms: C_2  and  S_3
REMARK    3  A    between atoms: S_3  and  C_4
REMARK    4  A    between atoms: C_7  and  O_8
REMARK    5  A    between atoms: N_9  and  C_10
REMARK                            x       y       z     vdW  Elec       q    Type
REMARK                         _______ _______ _______ _____ _____    ______ ____
ROOT
ATOM      1  C   UNL     1       4.061   5.459  17.459  0.00  0.00    +0.000 A 
ATOM      2  N   UNL     1       4.383   6.610  16.913  0.00  0.00    +0.000 NA
ATOM      3  N   UNL     1       3.637   7.598  17.523  0.00  0.00    +0.000 NA
ATOM      4  C   UNL     1       2.867   7.015  18.389  0.00  0.00    +0.000 A 
ATOM      5  N   UNL     1       3.047   5.644  18.392  0.00  0.00    +0.000 N 
ENDROOT
BRANCH   5   6
ATOM      6  C   UNL     1       2.378   4.729  19.225  0.00  0.00    +0.000 A 
ATOM      7  C   UNL     1       2.740   4.659  20.580  0.00  0.00    +0.000 A 
ATOM      8  C   UNL     1       2.117   3.746  21.418  0.00  0.00    +0.000 A 
ATOM      9  C   UNL     1       1.152   2.883  20.904  0.00  0.00    +0.000 A 
ATOM     10  C   UNL     1       0.800   2.940  19.555  0.00  0.00    +0.000 A 
ATOM     11  C   UNL     1       1.402   3.865  18.716  0.00  0.00    +0.000 A 
ENDBRANCH   5   6
BRANCH   4  12
ATOM     12  O   UNL     1       2.102   7.686  19.245  0.00  0.00    +0.000 OA
ATOM     13  H   UNL     1       1.733   8.401  18.701  0.00  0.00    +0.000 HD
ENDBRANCH   4  12
BRANCH   1  14
ATOM     14  S   UNL     1       4.718   3.926  16.968  0.00  0.00    +0.000 S 
BRANCH  14  16
ATOM     15  C   UNL     1       6.414   4.275  14.866  0.00  0.00    +0.000 C 
ATOM     16  C   UNL     1       6.365   4.395  16.382  0.00  0.00    +0.000 C 
ENDBRANCH  14  16
ENDBRANCH   1  14
TORSDOF 4
ENDMDL
