MODEL 1
REMARK VINA RESULT:      -9.4      0.000      0.000
REMARK  Name = 
REMARK  7 active torsions:
REMARK  status: ('A' for Active; 'I' for Inactive)
REMARK    1  A    between atoms: C_1  and  O_2
REMARK    2  A    between atoms: O_2  and  C_3
REMARK    3  A    between atoms: C_6  and  C_7
REMARK    4  A    between atoms: C_7  and  C_8
REMARK    5  A    between atoms: C_15  and  C_16
REMARK    6  A    between atoms: C_18  and  C_19
REMARK    7  A    between atoms: C_22  and  C_23
REMARK                            x       y       z     vdW  Elec       q    Type
REMARK                         _______ _______ _______ _____ _____    ______ ____
ROOT
ATOM      1  C   UNL     1       5.806   4.978  17.603  0.00  0.00    +0.000 C 
ATOM      2  N   UNL     1       5.299   3.722  18.256  0.00  0.00    +0.000 N 
ATOM      3  C   UNL     1       4.077   3.490  18.789  0.00  0.00    +0.000 C 
ATOM      4  O   UNL     1       3.786   2.357  19.148  0.00  0.00    +0.000 OA
ATOM      5  C   UNL     1       3.162   4.640  18.946  0.00  0.00    +0.000 C 
ATOM      6  C   UNL     1       3.520   5.855  18.490  0.00  0.00    +0.000 C 
ATOM      7  C   UNL     1       4.787   6.175  17.744  0.00  0.00    +0.000 C 
ATOM      8  F   UNL     1       5.349   7.266  18.319  0.00  0.00    +0.000 F 
ATOM      9  F   UNL     1       4.413   6.622  16.505  0.00  0.00    +0.000 F 
ATOM     10  H   UNL     1       5.897   2.901  18.223  0.00  0.00    +0.000 HD
ENDROOT
BRANCH   6  11
ATOM     11  C   UNL     1       2.654   7.025  18.729  0.00  0.00    +0.000 A 
ATOM     12  C   UNL     1       2.272   7.831  17.649  0.00  0.00    +0.000 A 
ATOM     13  C   UNL     1       1.520   8.983  17.868  0.00  0.00    +0.000 A 
ATOM     14  C   UNL     1       1.127   9.334  19.163  0.00  0.00    +0.000 A 
ATOM     15  C   UNL     1       0.331  10.580  19.413  0.00  0.00    +0.000 C 
ATOM     16  C   UNL     1       1.483   8.507  20.236  0.00  0.00    +0.000 A 
ATOM     17  C   UNL     1       2.243   7.356  20.023  0.00  0.00    +0.000 A 
ENDBRANCH   6  11
BRANCH   1  21
ATOM     18  C   UNL     1       6.449   4.082  13.333  0.00  0.00    +0.000 A 
ATOM     19  C   UNL     1       5.343   3.558  13.993  0.00  0.00    +0.000 A 
ATOM     20  C   UNL     1       5.119   3.841  15.346  0.00  0.00    +0.000 A 
ATOM     21  C   UNL     1       6.023   4.628  16.091  0.00  0.00    +0.000 A 
ATOM     22  C   UNL     1       7.148   5.126  15.406  0.00  0.00    +0.000 A 
ATOM     23  C   UNL     1       7.355   4.863  14.044  0.00  0.00    +0.000 A 
BRANCH  18  25
ATOM     24  C   UNL     1       5.980   2.488  11.655  0.00  0.00    +0.000 C 
ATOM     25  O   UNL     1       6.558   3.736  12.017  0.00  0.00    +0.000 OA
ENDBRANCH  18  25
ENDBRANCH   1  21
BRANCH   1  26
ATOM     26  C   UNL     1       7.167   5.368  18.301  0.00  0.00    +0.000 C 
ATOM     27  F   UNL     1       8.118   4.413  18.170  0.00  0.00    +0.000 F 
ATOM     28  F   UNL     1       7.736   6.526  17.918  0.00  0.00    +0.000 F 
ATOM     29  F   UNL     1       6.972   5.501  19.645  0.00  0.00    +0.000 F 
ENDBRANCH   1  26
BRANCH   5  30
ATOM     30  C   UNL     1       1.925   4.387  19.613  0.00  0.00    +0.000 C 
ATOM     31  N   UNL     1       0.911   4.161  20.122  0.00  0.00    +0.000 NA
ENDBRANCH   5  30
TORSDOF 5
ENDMDL
MODEL 2
REMARK VINA RESULT:      -9.3      0.124      1.250
REMARK  Name = 
REMARK  7 active torsions:
REMARK  status: ('A' for Active; 'I' for Inactive)
REMARK    1  A    between atoms: C_1  and  O_2
REMARK    2  A    between atoms: O_2  and  C_3
REMARK    3  A    between atoms: C_6  and  C_7
REMARK    4  A    between atoms: C_7  and  C_8
REMARK    5  A    between atoms: C_15  and  C_16
REMARK    6  A    between atoms: C_18  and  C_19
REMARK    7  A    between atoms: C_22  and  C_23
REMARK                            x       y       z     vdW  Elec       q    Type
REMARK                         _______ _______ _______ _____ _____    ______ ____
ROOT
ATOM      1  C   UNL     1       5.851   5.026  17.560  0.00  0.00    +0.000 C 
ATOM      2  N   UNL     1       5.319   3.772  18.196  0.00  0.00    +0.000 N 
ATOM      3  C   UNL     1       4.090   3.553  18.718  0.00  0.00    +0.000 C 
ATOM      4  O   UNL     1       3.778   2.422  19.064  0.00  0.00    +0.000 OA
ATOM      5  C   UNL     1       3.193   4.716  18.882  0.00  0.00    +0.000 C 
ATOM      6  C   UNL     1       3.573   5.931  18.442  0.00  0.00    +0.000 C 
ATOM      7  C   UNL     1       4.850   6.238  17.708  0.00  0.00    +0.000 C 
ATOM      8  F   UNL     1       5.426   7.313  18.298  0.00  0.00    +0.000 F 
ATOM      9  F   UNL     1       4.492   6.704  16.472  0.00  0.00    +0.000 F 
ATOM     10  H   UNL     1       5.904   2.941  18.158  0.00  0.00    +0.000 HD
ENDROOT
BRANCH   6  11
ATOM     11  C   UNL     1       2.725   7.112  18.688  0.00  0.00    +0.000 A 
ATOM     12  C   UNL     1       2.299   7.394  19.992  0.00  0.00    +0.000 A 
ATOM     13  C   UNL     1       1.434   8.461  20.230  0.00  0.00    +0.000 A 
ATOM     14  C   UNL     1       1.000   9.266  19.173  0.00  0.00    +0.000 A 
ATOM     15  C   UNL     1       0.057  10.406  19.414  0.00  0.00    +0.000 C 
ATOM     16  C   UNL     1       1.456   9.000  17.875  0.00  0.00    +0.000 A 
ATOM     17  C   UNL     1       2.315   7.928  17.631  0.00  0.00    +0.000 A 
ENDBRANCH   6  11
BRANCH   1  21
ATOM     18  C   UNL     1       6.439   3.989  13.315  0.00  0.00    +0.000 A 
ATOM     19  C   UNL     1       7.353   4.815  13.960  0.00  0.00    +0.000 A 
ATOM     20  C   UNL     1       7.186   5.146  15.311  0.00  0.00    +0.000 A 
ATOM     21  C   UNL     1       6.072   4.689  16.047  0.00  0.00    +0.000 A 
ATOM     22  C   UNL     1       5.148   3.874  15.363  0.00  0.00    +0.000 A 
ATOM     23  C   UNL     1       5.332   3.523  14.018  0.00  0.00    +0.000 A 
BRANCH  18  25
ATOM     24  C   UNL     1       6.272   2.478  11.508  0.00  0.00    +0.000 C 
ATOM     25  O   UNL     1       6.711   3.738  12.000  0.00  0.00    +0.000 OA
ENDBRANCH  18  25
ENDBRANCH   1  21
BRANCH   1  26
ATOM     26  C   UNL     1       7.213   5.387  18.271  0.00  0.00    +0.000 C 
ATOM     27  F   UNL     1       8.146   4.413  18.146  0.00  0.00    +0.000 F 
ATOM     28  F   UNL     1       7.809   6.534  17.897  0.00  0.00    +0.000 F 
ATOM     29  F   UNL     1       7.009   5.520  19.615  0.00  0.00    +0.000 F 
ENDBRANCH   1  26
BRANCH   5  30
ATOM     30  C   UNL     1       1.947   4.476  19.538  0.00  0.00    +0.000 C 
ATOM     31  N   UNL     1       0.947   4.244  20.070  0.00  0.00    +0.000 NA
ENDBRANCH   5  30
TORSDOF 5
ENDMDL
MODEL 3
REMARK VINA RESULT:      -7.1      7.779      9.733
REMARK  Name = 
REMARK  7 active torsions:
REMARK  status: ('A' for Active; 'I' for Inactive)
REMARK    1  A    between atoms: C_1  and  O_2
REMARK    2  A    between atoms: O_2  and  C_3
REMARK    3  A    between atoms: C_6  and  C_7
REMARK    4  A    between atoms: C_7  and  C_8
REMARK    5  A    between atoms: C_15  and  C_16
REMARK    6  A    between atoms: C_18  and  C_19
REMARK    7  A    between atoms: C_22  and  C_23
REMARK                            x       y       z     vdW  Elec       q    Type
REMARK                         _______ _______ _______ _____ _____    ______ ____
ROOT
ATOM      1  C   UNL     1      -0.224  11.196  20.169  0.00  0.00    +0.000 C 
ATOM      2  N   UNL     1      -0.992  11.587  21.401  0.00  0.00    +0.000 N 
ATOM      3  C   UNL     1      -0.952  12.758  22.077  0.00  0.00    +0.000 C 
ATOM      4  O   UNL     1      -1.756  12.958  22.977  0.00  0.00    +0.000 OA
ATOM      5  C   UNL     1       0.100  13.730  21.713  0.00  0.00    +0.000 C 
ATOM      6  C   UNL     1       0.930  13.475  20.683  0.00  0.00    +0.000 C 
ATOM      7  C   UNL     1       0.858  12.276  19.776  0.00  0.00    +0.000 C 
ATOM      8  F   UNL     1       2.103  11.747  19.681  0.00  0.00    +0.000 F 
ATOM      9  F   UNL     1       0.613  12.750  18.516  0.00  0.00    +0.000 F 
ATOM     10  H   UNL     1      -1.705  10.943  21.734  0.00  0.00    +0.000 HD
ENDROOT
BRANCH   6  11
ATOM     11  C   UNL     1       2.041  14.393  20.376  0.00  0.00    +0.000 A 
ATOM     12  C   UNL     1       1.847  15.423  19.448  0.00  0.00    +0.000 A 
ATOM     13  C   UNL     1       2.908  16.251  19.088  0.00  0.00    +0.000 A 
ATOM     14  C   UNL     1       4.169  16.070  19.663  0.00  0.00    +0.000 A 
ATOM     15  C   UNL     1       5.323  16.944  19.272  0.00  0.00    +0.000 C 
ATOM     16  C   UNL     1       4.351  15.060  20.616  0.00  0.00    +0.000 A 
ATOM     17  C   UNL     1       3.293  14.223  20.973  0.00  0.00    +0.000 A 
ENDBRANCH   6  11
BRANCH   1  21
ATOM     18  C   UNL     1      -3.271  10.791  17.008  0.00  0.00    +0.000 A 
ATOM     19  C   UNL     1      -2.084  10.071  16.924  0.00  0.00    +0.000 A 
ATOM     20  C   UNL     1      -1.110  10.181  17.924  0.00  0.00    +0.000 A 
ATOM     21  C   UNL     1      -1.281  11.050  19.023  0.00  0.00    +0.000 A 
ATOM     22  C   UNL     1      -2.481  11.786  19.072  0.00  0.00    +0.000 A 
ATOM     23  C   UNL     1      -3.466  11.654  18.082  0.00  0.00    +0.000 A 
BRANCH  18  25
ATOM     24  C   UNL     1      -3.553  10.246  14.728  0.00  0.00    +0.000 C 
ATOM     25  O   UNL     1      -4.142  10.599  15.973  0.00  0.00    +0.000 OA
ENDBRANCH  18  25
ENDBRANCH   1  21
BRANCH   1  26
ATOM     26  C   UNL     1       0.495   9.822  20.465  0.00  0.00    +0.000 C 
ATOM     27  F   UNL     1      -0.371   8.839  20.807  0.00  0.00    +0.000 F 
ATOM     28  F   UNL     1       1.271   9.320  19.487  0.00  0.00    +0.000 F 
ATOM     29  F   UNL     1       1.327   9.960  21.538  0.00  0.00    +0.000 F 
ENDBRANCH   1  26
BRANCH   5  30
ATOM     30  C   UNL     1       0.190  14.908  22.516  0.00  0.00    +0.000 C 
ATOM     31  N   UNL     1       0.274  15.839  23.196  0.00  0.00    +0.000 NA
ENDBRANCH   5  30
TORSDOF 5
ENDMDL
MODEL 4
REMARK VINA RESULT:      -7.0      8.105     11.869
REMARK  Name = 
REMARK  7 active torsions:
REMARK  status: ('A' for Active; 'I' for Inactive)
REMARK    1  A    between atoms: C_1  and  O_2
REMARK    2  A    between atoms: O_2  and  C_3
REMARK    3  A    between atoms: C_6  and  C_7
REMARK    4  A    between atoms: C_7  and  C_8
REMARK    5  A    between atoms: C_15  and  C_16
REMARK    6  A    between atoms: C_18  and  C_19
REMARK    7  A    between atoms: C_22  and  C_23
REMARK                            x       y       z     vdW  Elec       q    Type
REMARK                         _______ _______ _______ _____ _____    ______ ____
ROOT
ATOM      1  C   UNL     1      -2.260  13.216  22.493  0.00  0.00    +0.000 C 
ATOM      2  N   UNL     1      -3.124  12.901  23.682  0.00  0.00    +0.000 N 
ATOM      3  C   UNL     1      -4.447  12.615  23.705  0.00  0.00    +0.000 C 
ATOM      4  O   UNL     1      -4.960  12.237  24.749  0.00  0.00    +0.000 OA
ATOM      5  C   UNL     1      -5.218  12.818  22.460  0.00  0.00    +0.000 C 
ATOM      6  C   UNL     1      -4.590  13.193  21.329  0.00  0.00    +0.000 C 
ATOM      7  C   UNL     1      -3.105  13.377  21.170  0.00  0.00    +0.000 C 
ATOM      8  F   UNL     1      -2.893  14.572  20.565  0.00  0.00    +0.000 F 
ATOM      9  F   UNL     1      -2.693  12.466  20.235  0.00  0.00    +0.000 F 
ATOM     10  H   UNL     1      -2.663  12.790  24.582  0.00  0.00    +0.000 HD
ENDROOT
BRANCH   6  11
ATOM     11  C   UNL     1      -5.365  13.489  20.110  0.00  0.00    +0.000 A 
ATOM     12  C   UNL     1      -5.469  12.517  19.107  0.00  0.00    +0.000 A 
ATOM     13  C   UNL     1      -6.131  12.808  17.916  0.00  0.00    +0.000 A 
ATOM     14  C   UNL     1      -6.710  14.065  17.721  0.00  0.00    +0.000 A 
ATOM     15  C   UNL     1      -7.411  14.397  16.437  0.00  0.00    +0.000 C 
ATOM     16  C   UNL     1      -6.633  15.023  18.740  0.00  0.00    +0.000 A 
ATOM     17  C   UNL     1      -5.963  14.739  19.931  0.00  0.00    +0.000 A 
ENDBRANCH   6  11
BRANCH   1  21
ATOM     18  C   UNL     1       0.560   9.862  21.998  0.00  0.00    +0.000 A 
ATOM     19  C   UNL     1      -0.412   9.811  22.992  0.00  0.00    +0.000 A 
ATOM     20  C   UNL     1      -1.321  10.863  23.156  0.00  0.00    +0.000 A 
ATOM     21  C   UNL     1      -1.258  12.021  22.352  0.00  0.00    +0.000 A 
ATOM     22  C   UNL     1      -0.249  12.058  21.369  0.00  0.00    +0.000 A 
ATOM     23  C   UNL     1       0.644  10.992  21.190  0.00  0.00    +0.000 A 
BRANCH  18  25
ATOM     24  C   UNL     1       1.453   8.121  20.677  0.00  0.00    +0.000 C 
ATOM     25  O   UNL     1       1.386   8.776  21.937  0.00  0.00    +0.000 OA
ENDBRANCH  18  25
ENDBRANCH   1  21
BRANCH   1  26
ATOM     26  C   UNL     1      -1.501  14.567  22.794  0.00  0.00    +0.000 C 
ATOM     27  F   UNL     1      -0.723  14.498  23.900  0.00  0.00    +0.000 F 
ATOM     28  F   UNL     1      -0.723  15.059  21.812  0.00  0.00    +0.000 F 
ATOM     29  F   UNL     1      -2.407  15.555  23.052  0.00  0.00    +0.000 F 
ENDBRANCH   1  26
BRANCH   5  30
ATOM     30  C   UNL     1      -6.629  12.617  22.542  0.00  0.00    +0.000 C 
ATOM     31  N   UNL     1      -7.771  12.464  22.646  0.00  0.00    +0.000 NA
ENDBRANCH   5  30
TORSDOF 5
ENDMDL
MODEL 5
REMARK VINA RESULT:      -7.0      7.757      9.726
REMARK  Name = 
REMARK  7 active torsions:
REMARK  status: ('A' for Active; 'I' for Inactive)
REMARK    1  A    between atoms: C_1  and  O_2
REMARK    2  A    between atoms: O_2  and  C_3
REMARK    3  A    between atoms: C_6  and  C_7
REMARK    4  A    between atoms: C_7  and  C_8
REMARK    5  A    between atoms: C_15  and  C_16
REMARK    6  A    between atoms: C_18  and  C_19
REMARK    7  A    between atoms: C_22  and  C_23
REMARK                            x       y       z     vdW  Elec       q    Type
REMARK                         _______ _______ _______ _____ _____    ______ ____
ROOT
ATOM      1  C   UNL     1      -0.233  11.152  20.149  0.00  0.00    +0.000 C 
ATOM      2  N   UNL     1      -0.991  11.552  21.384  0.00  0.00    +0.000 N 
ATOM      3  C   UNL     1      -0.942  12.727  22.054  0.00  0.00    +0.000 C 
ATOM      4  O   UNL     1      -1.740  12.936  22.958  0.00  0.00    +0.000 OA
ATOM      5  C   UNL     1       0.114  13.691  21.679  0.00  0.00    +0.000 C 
ATOM      6  C   UNL     1       0.935  13.427  20.646  0.00  0.00    +0.000 C 
ATOM      7  C   UNL     1       0.853  12.224  19.745  0.00  0.00    +0.000 C 
ATOM      8  F   UNL     1       2.094  11.688  19.645  0.00  0.00    +0.000 F 
ATOM      9  F   UNL     1       0.603  12.693  18.484  0.00  0.00    +0.000 F 
ATOM     10  H   UNL     1      -1.706  10.914  21.725  0.00  0.00    +0.000 HD
ENDROOT
BRANCH   6  11
ATOM     11  C   UNL     1       2.050  14.338  20.328  0.00  0.00    +0.000 A 
ATOM     12  C   UNL     1       3.270  14.194  20.999  0.00  0.00    +0.000 A 
ATOM     13  C   UNL     1       4.308  15.095  20.766  0.00  0.00    +0.000 A 
ATOM     14  C   UNL     1       4.144  16.137  19.849  0.00  0.00    +0.000 A 
ATOM     15  C   UNL     1       5.247  17.123  19.602  0.00  0.00    +0.000 C 
ATOM     16  C   UNL     1       2.933  16.257  19.155  0.00  0.00    +0.000 A 
ATOM     17  C   UNL     1       1.889  15.362  19.391  0.00  0.00    +0.000 A 
ENDBRANCH   6  11
BRANCH   1  21
ATOM     18  C   UNL     1      -3.159  10.730  16.878  0.00  0.00    +0.000 A 
ATOM     19  C   UNL     1      -3.414  11.606  17.928  0.00  0.00    +0.000 A 
ATOM     20  C   UNL     1      -2.491  11.759  18.970  0.00  0.00    +0.000 A 
ATOM     21  C   UNL     1      -1.298  11.006  19.010  0.00  0.00    +0.000 A 
ATOM     22  C   UNL     1      -1.075  10.108  17.947  0.00  0.00    +0.000 A 
ATOM     23  C   UNL     1      -1.990   9.976  16.893  0.00  0.00    +0.000 A 
BRANCH  18  25
ATOM     24  C   UNL     1      -3.716  10.215  14.642  0.00  0.00    +0.000 C 
ATOM     25  O   UNL     1      -4.133  10.670  15.923  0.00  0.00    +0.000 OA
ENDBRANCH  18  25
ENDBRANCH   1  21
BRANCH   1  26
ATOM     26  C   UNL     1       0.480   9.776  20.447  0.00  0.00    +0.000 C 
ATOM     27  F   UNL     1      -0.389   8.798  20.798  0.00  0.00    +0.000 F 
ATOM     28  F   UNL     1       1.250   9.266  19.468  0.00  0.00    +0.000 F 
ATOM     29  F   UNL     1       1.318   9.914  21.516  0.00  0.00    +0.000 F 
ENDBRANCH   1  26
BRANCH   5  30
ATOM     30  C   UNL     1       0.214  14.873  22.476  0.00  0.00    +0.000 C 
ATOM     31  N   UNL     1       0.323  15.812  23.142  0.00  0.00    +0.000 NA
ENDBRANCH   5  30
TORSDOF 5
ENDMDL
MODEL 6
REMARK VINA RESULT:      -7.0      2.544      6.917
REMARK  Name = 
REMARK  7 active torsions:
REMARK  status: ('A' for Active; 'I' for Inactive)
REMARK    1  A    between atoms: C_1  and  O_2
REMARK    2  A    between atoms: O_2  and  C_3
REMARK    3  A    between atoms: C_6  and  C_7
REMARK    4  A    between atoms: C_7  and  C_8
REMARK    5  A    between atoms: C_15  and  C_16
REMARK    6  A    between atoms: C_18  and  C_19
REMARK    7  A    between atoms: C_22  and  C_23
REMARK                            x       y       z     vdW  Elec       q    Type
REMARK                         _______ _______ _______ _____ _____    ______ ____
ROOT
ATOM      1  C   UNL     1       3.283   5.143  18.438  0.00  0.00    +0.000 C 
ATOM      2  N   UNL     1       4.306   4.894  19.511  0.00  0.00    +0.000 N 
ATOM      3  C   UNL     1       5.647   4.773  19.380  0.00  0.00    +0.000 C 
ATOM      4  O   UNL     1       6.345   4.719  20.383  0.00  0.00    +0.000 OA
ATOM      5  C   UNL     1       6.200   4.670  18.013  0.00  0.00    +0.000 C 
ATOM      6  C   UNL     1       5.387   4.781  16.945  0.00  0.00    +0.000 C 
ATOM      7  C   UNL     1       3.912   5.076  16.991  0.00  0.00    +0.000 C 
ATOM      8  F   UNL     1       3.279   4.180  16.195  0.00  0.00    +0.000 F 
ATOM      9  F   UNL     1       3.728   6.267  16.343  0.00  0.00    +0.000 F 
ATOM     10  H   UNL     1       3.986   4.908  20.477  0.00  0.00    +0.000 HD
ENDROOT
BRANCH   6  11
ATOM     11  C   UNL     1       5.915   4.583  15.582  0.00  0.00    +0.000 A 
ATOM     12  C   UNL     1       6.919   5.434  15.103  0.00  0.00    +0.000 A 
ATOM     13  C   UNL     1       7.374   5.311  13.792  0.00  0.00    +0.000 A 
ATOM     14  C   UNL     1       6.845   4.327  12.952  0.00  0.00    +0.000 A 
ATOM     15  C   UNL     1       7.314   4.194  11.534  0.00  0.00    +0.000 C 
ATOM     16  C   UNL     1       5.865   3.456  13.446  0.00  0.00    +0.000 A 
ATOM     17  C   UNL     1       5.400   3.581  14.756  0.00  0.00    +0.000 A 
ENDBRANCH   6  11
BRANCH   1  21
ATOM     18  C   UNL     1       1.584   9.128  19.258  0.00  0.00    +0.000 A 
ATOM     19  C   UNL     1       2.057   8.824  17.986  0.00  0.00    +0.000 A 
ATOM     20  C   UNL     1       2.590   7.560  17.706  0.00  0.00    +0.000 A 
ATOM     21  C   UNL     1       2.703   6.573  18.708  0.00  0.00    +0.000 A 
ATOM     22  C   UNL     1       2.240   6.914  19.994  0.00  0.00    +0.000 A 
ATOM     23  C   UNL     1       1.683   8.172  20.264  0.00  0.00    +0.000 A 
BRANCH  18  25
ATOM     24  C   UNL     1      -0.263  10.577  18.998  0.00  0.00    +0.000 C 
ATOM     25  O   UNL     1       1.087  10.392  19.406  0.00  0.00    +0.000 OA
ENDBRANCH  18  25
ENDBRANCH   1  21
BRANCH   1  26
ATOM     26  C   UNL     1       2.166   4.036  18.571  0.00  0.00    +0.000 C 
ATOM     27  F   UNL     1       2.598   2.806  18.205  0.00  0.00    +0.000 F 
ATOM     28  F   UNL     1       1.594   3.894  19.781  0.00  0.00    +0.000 F 
ATOM     29  F   UNL     1       1.133   4.322  17.726  0.00  0.00    +0.000 F 
ENDBRANCH   1  26
BRANCH   5  30
ATOM     30  C   UNL     1       7.603   4.429  17.906  0.00  0.00    +0.000 C 
ATOM     31  N   UNL     1       8.738   4.213  17.852  0.00  0.00    +0.000 NA
ENDBRANCH   5  30
TORSDOF 5
ENDMDL
MODEL 7
REMARK VINA RESULT:      -6.8      5.733      9.024
REMARK  Name = 
REMARK  7 active torsions:
REMARK  status: ('A' for Active; 'I' for Inactive)
REMARK    1  A    between atoms: C_1  and  O_2
REMARK    2  A    between atoms: O_2  and  C_3
REMARK    3  A    between atoms: C_6  and  C_7
REMARK    4  A    between atoms: C_7  and  C_8
REMARK    5  A    between atoms: C_15  and  C_16
REMARK    6  A    between atoms: C_18  and  C_19
REMARK    7  A    between atoms: C_22  and  C_23
REMARK                            x       y       z     vdW  Elec       q    Type
REMARK                         _______ _______ _______ _____ _____    ______ ____
ROOT
ATOM      1  C   UNL     1       0.313  11.864  19.802  0.00  0.00    +0.000 C 
ATOM      2  N   UNL     1       0.318  11.977  21.301  0.00  0.00    +0.000 N 
ATOM      3  C   UNL     1      -0.741  12.009  22.143  0.00  0.00    +0.000 C 
ATOM      4  O   UNL     1      -0.550  11.955  23.350  0.00  0.00    +0.000 OA
ATOM      5  C   UNL     1      -2.089  12.149  21.552  0.00  0.00    +0.000 C 
ATOM      6  C   UNL     1      -2.243  12.158  20.214  0.00  0.00    +0.000 C 
ATOM      7  C   UNL     1      -1.144  11.968  19.203  0.00  0.00    +0.000 C 
ATOM      8  F   UNL     1      -1.251  12.952  18.276  0.00  0.00    +0.000 F 
ATOM      9  F   UNL     1      -1.446  10.832  18.502  0.00  0.00    +0.000 F 
ATOM     10  H   UNL     1       1.217  11.931  21.773  0.00  0.00    +0.000 HD
ENDROOT
BRANCH   6  11
ATOM     11  C   UNL     1      -3.570  12.394  19.617  0.00  0.00    +0.000 A 
ATOM     12  C   UNL     1      -4.332  13.489  20.045  0.00  0.00    +0.000 A 
ATOM     13  C   UNL     1      -5.620  13.682  19.548  0.00  0.00    +0.000 A 
ATOM     14  C   UNL     1      -6.153  12.795  18.609  0.00  0.00    +0.000 A 
ATOM     15  C   UNL     1      -7.544  12.982  18.079  0.00  0.00    +0.000 C 
ATOM     16  C   UNL     1      -5.375  11.720  18.159  0.00  0.00    +0.000 A 
ATOM     17  C   UNL     1      -4.088  11.519  18.660  0.00  0.00    +0.000 A 
ENDBRANCH   6  11
BRANCH   1  21
ATOM     18  C   UNL     1       2.103   7.927  18.946  0.00  0.00    +0.000 A 
ATOM     19  C   UNL     1       2.083   8.909  17.962  0.00  0.00    +0.000 A 
ATOM     20  C   UNL     1       1.528  10.168  18.220  0.00  0.00    +0.000 A 
ATOM     21  C   UNL     1       0.936  10.467  19.466  0.00  0.00    +0.000 A 
ATOM     22  C   UNL     1       0.947   9.447  20.438  0.00  0.00    +0.000 A 
ATOM     23  C   UNL     1       1.528   8.196  20.184  0.00  0.00    +0.000 A 
BRANCH  18  25
ATOM     24  C   UNL     1       2.883   5.802  19.620  0.00  0.00    +0.000 C 
ATOM     25  O   UNL     1       2.673   6.743  18.574  0.00  0.00    +0.000 OA
ENDBRANCH  18  25
ENDBRANCH   1  21
BRANCH   1  26
ATOM     26  C   UNL     1       1.197  13.039  19.228  0.00  0.00    +0.000 C 
ATOM     27  F   UNL     1       2.488  12.972  19.631  0.00  0.00    +0.000 F 
ATOM     28  F   UNL     1       1.223  13.182  17.890  0.00  0.00    +0.000 F 
ATOM     29  F   UNL     1       0.734  14.234  19.699  0.00  0.00    +0.000 F 
ENDBRANCH   1  26
BRANCH   5  30
ATOM     30  C   UNL     1      -3.177  12.293  22.465  0.00  0.00    +0.000 C 
ATOM     31  N   UNL     1      -4.079  12.384  23.183  0.00  0.00    +0.000 NA
ENDBRANCH   5  30
TORSDOF 5
ENDMDL
MODEL 8
REMARK VINA RESULT:      -6.7      8.105     10.169
REMARK  Name = 
REMARK  7 active torsions:
REMARK  status: ('A' for Active; 'I' for Inactive)
REMARK    1  A    between atoms: C_1  and  O_2
REMARK    2  A    between atoms: O_2  and  C_3
REMARK    3  A    between atoms: C_6  and  C_7
REMARK    4  A    between atoms: C_7  and  C_8
REMARK    5  A    between atoms: C_15  and  C_16
REMARK    6  A    between atoms: C_18  and  C_19
REMARK    7  A    between atoms: C_22  and  C_23
REMARK                            x       y       z     vdW  Elec       q    Type
REMARK                         _______ _______ _______ _____ _____    ______ ____
ROOT
ATOM      1  C   UNL     1      -0.366  11.380  20.314  0.00  0.00    +0.000 C 
ATOM      2  N   UNL     1      -0.900  11.812  21.651  0.00  0.00    +0.000 N 
ATOM      3  C   UNL     1      -0.679  12.975  22.306  0.00  0.00    +0.000 C 
ATOM      4  O   UNL     1      -1.314  13.221  23.322  0.00  0.00    +0.000 OA
ATOM      5  C   UNL     1       0.360  13.881  21.772  0.00  0.00    +0.000 C 
ATOM      6  C   UNL     1       0.995  13.579  20.623  0.00  0.00    +0.000 C 
ATOM      7  C   UNL     1       0.704  12.391  19.746  0.00  0.00    +0.000 C 
ATOM      8  F   UNL     1       1.882  11.787  19.455  0.00  0.00    +0.000 F 
ATOM      9  F   UNL     1       0.290  12.886  18.539  0.00  0.00    +0.000 F 
ATOM     10  H   UNL     1      -1.589  11.212  22.098  0.00  0.00    +0.000 HD
ENDROOT
BRANCH   6  11
ATOM     11  C   UNL     1       2.098  14.428  20.136  0.00  0.00    +0.000 A 
ATOM     12  C   UNL     1       1.835  15.418  19.181  0.00  0.00    +0.000 A 
ATOM     13  C   UNL     1       2.878  16.176  18.653  0.00  0.00    +0.000 A 
ATOM     14  C   UNL     1       4.190  15.966  19.085  0.00  0.00    +0.000 A 
ATOM     15  C   UNL     1       5.324  16.764  18.512  0.00  0.00    +0.000 C 
ATOM     16  C   UNL     1       4.445  14.998  20.065  0.00  0.00    +0.000 A 
ATOM     17  C   UNL     1       3.404  14.231  20.591  0.00  0.00    +0.000 A 
ENDBRANCH   6  11
BRANCH   1  21
ATOM     18  C   UNL     1      -3.782  11.160  17.535  0.00  0.00    +0.000 A 
ATOM     19  C   UNL     1      -3.838  12.005  18.638  0.00  0.00    +0.000 A 
ATOM     20  C   UNL     1      -2.758  12.095  19.524  0.00  0.00    +0.000 A 
ATOM     21  C   UNL     1      -1.601  11.305  19.353  0.00  0.00    +0.000 A 
ATOM     22  C   UNL     1      -1.580  10.438  18.243  0.00  0.00    +0.000 A 
ATOM     23  C   UNL     1      -2.652  10.371  17.342  0.00  0.00    +0.000 A 
BRANCH  18  25
ATOM     24  C   UNL     1      -5.908  12.094  17.104  0.00  0.00    +0.000 C 
ATOM     25  O   UNL     1      -4.896  11.162  16.744  0.00  0.00    +0.000 OA
ENDBRANCH  18  25
ENDBRANCH   1  21
BRANCH   1  26
ATOM     26  C   UNL     1       0.304   9.962  20.497  0.00  0.00    +0.000 C 
ATOM     27  F   UNL     1      -0.567   9.021  20.934  0.00  0.00    +0.000 F 
ATOM     28  F   UNL     1       0.922   9.439  19.423  0.00  0.00    +0.000 F 
ATOM     29  F   UNL     1       1.271  10.032  21.459  0.00  0.00    +0.000 F 
ENDBRANCH   1  26
BRANCH   5  30
ATOM     30  C   UNL     1       0.650  15.047  22.543  0.00  0.00    +0.000 C 
ATOM     31  N   UNL     1       0.922  15.991  23.154  0.00  0.00    +0.000 NA
ENDBRANCH   5  30
TORSDOF 5
ENDMDL
MODEL 9
REMARK VINA RESULT:      -6.7      8.156     10.278
REMARK  Name = 
REMARK  7 active torsions:
REMARK  status: ('A' for Active; 'I' for Inactive)
REMARK    1  A    between atoms: C_1  and  O_2
REMARK    2  A    between atoms: O_2  and  C_3
REMARK    3  A    between atoms: C_6  and  C_7
REMARK    4  A    between atoms: C_7  and  C_8
REMARK    5  A    between atoms: C_15  and  C_16
REMARK    6  A    between atoms: C_18  and  C_19
REMARK    7  A    between atoms: C_22  and  C_23
REMARK                            x       y       z     vdW  Elec       q    Type
REMARK                         _______ _______ _______ _____ _____    ______ ____
ROOT
ATOM      1  C   UNL     1      -0.365  11.438  20.292  0.00  0.00    +0.000 C 
ATOM      2  N   UNL     1      -0.845  11.892  21.643  0.00  0.00    +0.000 N 
ATOM      3  C   UNL     1      -0.573  13.053  22.282  0.00  0.00    +0.000 C 
ATOM      4  O   UNL     1      -1.170  13.323  23.315  0.00  0.00    +0.000 OA
ATOM      5  C   UNL     1       0.473  13.927  21.711  0.00  0.00    +0.000 C 
ATOM      6  C   UNL     1       1.064  13.601  20.546  0.00  0.00    +0.000 C 
ATOM      7  C   UNL     1       0.715  12.416  19.686  0.00  0.00    +0.000 C 
ATOM      8  F   UNL     1       1.866  11.778  19.363  0.00  0.00    +0.000 F 
ATOM      9  F   UNL     1       0.277  12.914  18.488  0.00  0.00    +0.000 F 
ATOM     10  H   UNL     1      -1.536  11.314  22.114  0.00  0.00    +0.000 HD
ENDROOT
BRANCH   6  11
ATOM     11  C   UNL     1       2.174  14.416  20.019  0.00  0.00    +0.000 A 
ATOM     12  C   UNL     1       3.475  14.193  20.488  0.00  0.00    +0.000 A 
ATOM     13  C   UNL     1       4.523  15.006  20.059  0.00  0.00    +0.000 A 
ATOM     14  C   UNL     1       4.286  16.038  19.146  0.00  0.00    +0.000 A 
ATOM     15  C   UNL     1       5.402  16.930  18.689  0.00  0.00    +0.000 C 
ATOM     16  C   UNL     1       2.989  16.236  18.654  0.00  0.00    +0.000 A 
ATOM     17  C   UNL     1       1.936  15.430  19.087  0.00  0.00    +0.000 A 
ENDBRANCH   6  11
BRANCH   1  21
ATOM     18  C   UNL     1      -3.982  11.312  17.775  0.00  0.00    +0.000 A 
ATOM     19  C   UNL     1      -2.870  10.552  17.430  0.00  0.00    +0.000 A 
ATOM     20  C   UNL     1      -1.717  10.573  18.224  0.00  0.00    +0.000 A 
ATOM     21  C   UNL     1      -1.630  11.391  19.371  0.00  0.00    +0.000 A 
ATOM     22  C   UNL     1      -2.761  12.170  19.684  0.00  0.00    +0.000 A 
ATOM     23  C   UNL     1      -3.924  12.127  18.902  0.00  0.00    +0.000 A 
BRANCH  18  25
ATOM     24  C   UNL     1      -6.118  12.110  17.159  0.00  0.00    +0.000 C 
ATOM     25  O   UNL     1      -5.045  11.206  16.924  0.00  0.00    +0.000 OA
ENDBRANCH  18  25
ENDBRANCH   1  21
BRANCH   1  26
ATOM     26  C   UNL     1       0.272  10.004  20.466  0.00  0.00    +0.000 C 
ATOM     27  F   UNL     1      -0.609   9.091  20.940  0.00  0.00    +0.000 F 
ATOM     28  F   UNL     1       0.837   9.454  19.375  0.00  0.00    +0.000 F 
ATOM     29  F   UNL     1       1.273  10.054  21.392  0.00  0.00    +0.000 F 
ENDBRANCH   1  26
BRANCH   5  30
ATOM     30  C   UNL     1       0.818  15.090  22.465  0.00  0.00    +0.000 C 
ATOM     31  N   UNL     1       1.124  16.010  23.096  0.00  0.00    +0.000 NA
ENDBRANCH   5  30
TORSDOF 5
ENDMDL
