MODEL 1
REMARK VINA RESULT:      -7.4      0.000      0.000
REMARK  Name = 
REMARK  3 active torsions:
REMARK  status: ('A' for Active; 'I' for Inactive)
REMARK    1  A    between atoms: C_2  and  C_5
REMARK    2  A    between atoms: C_8  and  N_9
REMARK    3  A    between atoms: C_13  and  S_14
REMARK                            x       y       z     vdW  Elec       q    Type
REMARK                         _______ _______ _______ _____ _____    ______ ____
ROOT
ATOM      1  C   UNL     1       2.289   3.645  18.856  0.00  0.00    +0.000 A 
ATOM      2  C   UNL     1       3.052   2.704  18.191  0.00  0.00    +0.000 A 
ATOM      3  N   UNL     1       4.062   3.022  17.349  0.00  0.00    +0.000 NA
ATOM      4  C   UNL     1       4.356   4.336  17.134  0.00  0.00    +0.000 A 
ATOM      5  C   UNL     1       3.616   5.354  17.744  0.00  0.00    +0.000 A 
ATOM      6 CL   UNL     1       3.747   7.044  17.411  0.00  0.00    +0.000 Cl
ATOM      7  C   UNL     1       2.582   4.991  18.615  0.00  0.00    +0.000 A 
ENDROOT
BRANCH   4   8
ATOM      8  N   UNL     1       5.473   4.605  16.280  0.00  0.00    +0.000 N 
ATOM      9  C   UNL     1       5.506   4.504  14.898  0.00  0.00    +0.000 A 
ATOM     10  C   UNL     1       6.770   4.868  14.506  0.00  0.00    +0.000 A 
ATOM     11  N   UNL     1       7.521   5.235  15.582  0.00  0.00    +0.000 NA
ATOM     12  C   UNL     1       6.726   5.099  16.623  0.00  0.00    +0.000 A 
BRANCH  12  13
ATOM     13  S   UNL     1       7.307   5.363  18.235  0.00  0.00    +0.000 S 
ATOM     14  H   UNL     1       6.235   6.047  18.659  0.00  0.00    +0.000 HD
ENDBRANCH  12  13
ENDBRANCH   4   8
BRANCH   1  16
ATOM     15  F   UNL     1       1.600   2.450  20.812  0.00  0.00    +0.000 F 
ATOM     16  C   UNL     1       1.186   3.239  19.784  0.00  0.00    +0.000 C 
ATOM     17  F   UNL     1       0.205   2.544  19.147  0.00  0.00    +0.000 F 
ATOM     18  F   UNL     1       0.575   4.310  20.357  0.00  0.00    +0.000 F 
ENDBRANCH   1  16
TORSDOF 3
ENDMDL
MODEL 2
REMARK VINA RESULT:      -7.2      0.515      1.090
REMARK  Name = 
REMARK  3 active torsions:
REMARK  status: ('A' for Active; 'I' for Inactive)
REMARK    1  A    between atoms: C_2  and  C_5
REMARK    2  A    between atoms: C_8  and  N_9
REMARK    3  A    between atoms: C_13  and  S_14
REMARK                            x       y       z     vdW  Elec       q    Type
REMARK                         _______ _______ _______ _____ _____    ______ ____
ROOT
ATOM      1  C   UNL     1       2.442   4.039  19.281  0.00  0.00    +0.000 A 
ATOM      2  C   UNL     1       3.191   3.041  18.689  0.00  0.00    +0.000 A 
ATOM      3  N   UNL     1       4.160   3.277  17.776  0.00  0.00    +0.000 NA
ATOM      4  C   UNL     1       4.424   4.564  17.407  0.00  0.00    +0.000 A 
ATOM      5  C   UNL     1       3.693   5.633  17.935  0.00  0.00    +0.000 A 
ATOM      6 CL   UNL     1       3.783   7.279  17.417  0.00  0.00    +0.000 Cl
ATOM      7  C   UNL     1       2.702   5.355  18.885  0.00  0.00    +0.000 A 
ENDROOT
BRANCH   4   8
ATOM      8  N   UNL     1       5.500   4.751  16.482  0.00  0.00    +0.000 N 
ATOM      9  C   UNL     1       5.479   4.499  15.120  0.00  0.00    +0.000 A 
ATOM     10  C   UNL     1       6.718   4.834  14.637  0.00  0.00    +0.000 A 
ATOM     11  N   UNL     1       7.506   5.329  15.633  0.00  0.00    +0.000 NA
ATOM     12  C   UNL     1       6.756   5.298  16.715  0.00  0.00    +0.000 A 
BRANCH  12  13
ATOM     13  S   UNL     1       7.398   5.747  18.262  0.00  0.00    +0.000 S 
ATOM     14  H   UNL     1       6.705   4.843  18.968  0.00  0.00    +0.000 HD
ENDBRANCH  12  13
ENDBRANCH   4   8
BRANCH   1  16
ATOM     15  F   UNL     1       0.626   4.797  20.643  0.00  0.00    +0.000 F 
ATOM     16  C   UNL     1       1.385   3.723  20.294  0.00  0.00    +0.000 C 
ATOM     17  F   UNL     1       1.908   3.239  21.453  0.00  0.00    +0.000 F 
ATOM     18  F   UNL     1       0.514   2.777  19.852  0.00  0.00    +0.000 F 
ENDBRANCH   1  16
TORSDOF 3
ENDMDL
MODEL 3
REMARK VINA RESULT:      -6.9      1.376      1.950
REMARK  Name = 
REMARK  3 active torsions:
REMARK  status: ('A' for Active; 'I' for Inactive)
REMARK    1  A    between atoms: C_2  and  C_5
REMARK    2  A    between atoms: C_8  and  N_9
REMARK    3  A    between atoms: C_13  and  S_14
REMARK                            x       y       z     vdW  Elec       q    Type
REMARK                         _______ _______ _______ _____ _____    ______ ____
ROOT
ATOM      1  C   UNL     1       2.296   3.728  18.990  0.00  0.00    +0.000 A 
ATOM      2  C   UNL     1       3.476   3.073  18.696  0.00  0.00    +0.000 A 
ATOM      3  N   UNL     1       4.562   3.689  18.175  0.00  0.00    +0.000 NA
ATOM      4  C   UNL     1       4.505   5.027  17.918  0.00  0.00    +0.000 A 
ATOM      5  C   UNL     1       3.340   5.762  18.158  0.00  0.00    +0.000 A 
ATOM      6 CL   UNL     1       3.063   7.404  17.700  0.00  0.00    +0.000 Cl
ATOM      7  C   UNL     1       2.236   5.096  18.705  0.00  0.00    +0.000 A 
ENDROOT
BRANCH   4   8
ATOM      8  N   UNL     1       5.705   5.630  17.424  0.00  0.00    +0.000 N 
ATOM      9  C   UNL     1       6.567   6.460  18.121  0.00  0.00    +0.000 A 
ATOM     10  C   UNL     1       7.584   6.788  17.260  0.00  0.00    +0.000 A 
ATOM     11  N   UNL     1       7.419   6.161  16.060  0.00  0.00    +0.000 NA
ATOM     12  C   UNL     1       6.314   5.457  16.186  0.00  0.00    +0.000 A 
BRANCH  12  13
ATOM     13  S   UNL     1       5.661   4.569  14.848  0.00  0.00    +0.000 S 
ATOM     14  H   UNL     1       4.786   3.854  15.569  0.00  0.00    +0.000 HD
ENDBRANCH  12  13
ENDBRANCH   4   8
BRANCH   1  16
ATOM     15  F   UNL     1       0.282   3.799  20.281  0.00  0.00    +0.000 F 
ATOM     16  C   UNL     1       1.125   3.000  19.574  0.00  0.00    +0.000 C 
ATOM     17  F   UNL     1       1.505   2.007  20.424  0.00  0.00    +0.000 F 
ATOM     18  F   UNL     1       0.361   2.403  18.619  0.00  0.00    +0.000 F 
ENDBRANCH   1  16
TORSDOF 3
ENDMDL
MODEL 4
REMARK VINA RESULT:      -6.7      1.504      1.918
REMARK  Name = 
REMARK  3 active torsions:
REMARK  status: ('A' for Active; 'I' for Inactive)
REMARK    1  A    between atoms: C_2  and  C_5
REMARK    2  A    between atoms: C_8  and  N_9
REMARK    3  A    between atoms: C_13  and  S_14
REMARK                            x       y       z     vdW  Elec       q    Type
REMARK                         _______ _______ _______ _____ _____    ______ ____
ROOT
ATOM      1  C   UNL     1       2.319   3.691  19.254  0.00  0.00    +0.000 A 
ATOM      2  C   UNL     1       3.538   3.055  19.125  0.00  0.00    +0.000 A 
ATOM      3  N   UNL     1       4.658   3.670  18.681  0.00  0.00    +0.000 NA
ATOM      4  C   UNL     1       4.598   4.988  18.337  0.00  0.00    +0.000 A 
ATOM      5  C   UNL     1       3.398   5.702  18.409  0.00  0.00    +0.000 A 
ATOM      6 CL   UNL     1       3.133   7.305  17.823  0.00  0.00    +0.000 Cl
ATOM      7  C   UNL     1       2.258   5.038  18.880  0.00  0.00    +0.000 A 
ENDROOT
BRANCH   4   8
ATOM      8  N   UNL     1       5.830   5.595  17.932  0.00  0.00    +0.000 N 
ATOM      9  C   UNL     1       6.825   6.088  18.759  0.00  0.00    +0.000 A 
ATOM     10  C   UNL     1       7.820   6.562  17.942  0.00  0.00    +0.000 A 
ATOM     11  N   UNL     1       7.509   6.348  16.632  0.00  0.00    +0.000 NA
ATOM     12  C   UNL     1       6.338   5.748  16.647  0.00  0.00    +0.000 A 
BRANCH  12  13
ATOM     13  S   UNL     1       5.503   5.375  15.174  0.00  0.00    +0.000 S 
ATOM     14  H   UNL     1       6.604   5.148  14.444  0.00  0.00    +0.000 HD
ENDBRANCH  12  13
ENDBRANCH   4   8
BRANCH   1  16
ATOM     15  F   UNL     1       1.391   2.026  20.700  0.00  0.00    +0.000 F 
ATOM     16  C   UNL     1       1.110   2.966  19.758  0.00  0.00    +0.000 C 
ATOM     17  F   UNL     1       0.446   2.316  18.763  0.00  0.00    +0.000 F 
ATOM     18  F   UNL     1       0.204   3.806  20.326  0.00  0.00    +0.000 F 
ENDBRANCH   1  16
TORSDOF 3
ENDMDL
MODEL 5
REMARK VINA RESULT:      -6.7      1.045      1.468
REMARK  Name = 
REMARK  3 active torsions:
REMARK  status: ('A' for Active; 'I' for Inactive)
REMARK    1  A    between atoms: C_2  and  C_5
REMARK    2  A    between atoms: C_8  and  N_9
REMARK    3  A    between atoms: C_13  and  S_14
REMARK                            x       y       z     vdW  Elec       q    Type
REMARK                         _______ _______ _______ _____ _____    ______ ____
ROOT
ATOM      1  C   UNL     1       3.111   3.700  19.897  0.00  0.00    +0.000 A 
ATOM      2  C   UNL     1       3.944   2.803  19.256  0.00  0.00    +0.000 A 
ATOM      3  N   UNL     1       4.735   3.135  18.211  0.00  0.00    +0.000 NA
ATOM      4  C   UNL     1       4.722   4.419  17.751  0.00  0.00    +0.000 A 
ATOM      5  C   UNL     1       3.886   5.384  18.322  0.00  0.00    +0.000 A 
ATOM      6 CL   UNL     1       3.621   6.982  17.720  0.00  0.00    +0.000 Cl
ATOM      7  C   UNL     1       3.085   5.010  19.408  0.00  0.00    +0.000 A 
ENDROOT
BRANCH   4   8
ATOM      8  N   UNL     1       5.624   4.720  16.682  0.00  0.00    +0.000 N 
ATOM      9  C   UNL     1       5.501   4.335  15.357  0.00  0.00    +0.000 A 
ATOM     10  C   UNL     1       6.583   4.856  14.692  0.00  0.00    +0.000 A 
ATOM     11  N   UNL     1       7.360   5.589  15.538  0.00  0.00    +0.000 NA
ATOM     12  C   UNL     1       6.760   5.520  16.707  0.00  0.00    +0.000 A 
BRANCH  12  13
ATOM     13  S   UNL     1       7.467   6.235  18.120  0.00  0.00    +0.000 S 
ATOM     14  H   UNL     1       8.373   6.974  17.464  0.00  0.00    +0.000 HD
ENDBRANCH  12  13
ENDBRANCH   4   8
BRANCH   1  16
ATOM     15  F   UNL     1       1.070   2.735  20.690  0.00  0.00    +0.000 F 
ATOM     16  C   UNL     1       2.260   3.282  21.056  0.00  0.00    +0.000 C 
ATOM     17  F   UNL     1       1.958   4.325  21.878  0.00  0.00    +0.000 F 
ATOM     18  F   UNL     1       2.874   2.354  21.838  0.00  0.00    +0.000 F 
ENDBRANCH   1  16
TORSDOF 3
ENDMDL
MODEL 6
REMARK VINA RESULT:      -6.7      4.465      6.047
REMARK  Name = 
REMARK  3 active torsions:
REMARK  status: ('A' for Active; 'I' for Inactive)
REMARK    1  A    between atoms: C_2  and  C_5
REMARK    2  A    between atoms: C_8  and  N_9
REMARK    3  A    between atoms: C_13  and  S_14
REMARK                            x       y       z     vdW  Elec       q    Type
REMARK                         _______ _______ _______ _____ _____    ______ ____
ROOT
ATOM      1  C   UNL     1       6.198   6.250  18.225  0.00  0.00    +0.000 A 
ATOM      2  C   UNL     1       6.398   5.292  19.200  0.00  0.00    +0.000 A 
ATOM      3  N   UNL     1       5.396   4.580  19.763  0.00  0.00    +0.000 NA
ATOM      4  C   UNL     1       4.113   4.807  19.360  0.00  0.00    +0.000 A 
ATOM      5  C   UNL     1       3.817   5.779  18.399  0.00  0.00    +0.000 A 
ATOM      6 CL   UNL     1       2.237   6.307  17.941  0.00  0.00    +0.000 Cl
ATOM      7  C   UNL     1       4.879   6.494  17.830  0.00  0.00    +0.000 A 
ENDROOT
BRANCH   4   8
ATOM      8  N   UNL     1       3.106   3.980  19.951  0.00  0.00    +0.000 N 
ATOM      9  C   UNL     1       2.297   4.297  21.030  0.00  0.00    +0.000 A 
ATOM     10  C   UNL     1       1.476   3.218  21.240  0.00  0.00    +0.000 A 
ATOM     11  N   UNL     1       1.707   2.249  20.309  0.00  0.00    +0.000 NA
ATOM     12  C   UNL     1       2.658   2.731  19.536  0.00  0.00    +0.000 A 
BRANCH  12  13
ATOM     13  S   UNL     1       3.344   1.778  18.261  0.00  0.00    +0.000 S 
ATOM     14  H   UNL     1       4.088   0.996  19.056  0.00  0.00    +0.000 HD
ENDBRANCH  12  13
ENDBRANCH   4   8
BRANCH   1  16
ATOM     15  F   UNL     1       7.050   8.302  17.335  0.00  0.00    +0.000 F 
ATOM     16  C   UNL     1       7.344   7.006  17.628  0.00  0.00    +0.000 C 
ATOM     17  F   UNL     1       7.783   6.448  16.467  0.00  0.00    +0.000 F 
ATOM     18  F   UNL     1       8.423   7.045  18.455  0.00  0.00    +0.000 F 
ENDBRANCH   1  16
TORSDOF 3
ENDMDL
MODEL 7
REMARK VINA RESULT:      -6.5      1.526      1.542
REMARK  Name = 
REMARK  3 active torsions:
REMARK  status: ('A' for Active; 'I' for Inactive)
REMARK    1  A    between atoms: C_2  and  C_5
REMARK    2  A    between atoms: C_8  and  N_9
REMARK    3  A    between atoms: C_13  and  S_14
REMARK                            x       y       z     vdW  Elec       q    Type
REMARK                         _______ _______ _______ _____ _____    ______ ____
ROOT
ATOM      1  C   UNL     1       2.255   3.403  19.182  0.00  0.00    +0.000 A 
ATOM      2  C   UNL     1       2.075   3.294  17.817  0.00  0.00    +0.000 A 
ATOM      3  N   UNL     1       3.009   3.656  16.909  0.00  0.00    +0.000 NA
ATOM      4  C   UNL     1       4.198   4.160  17.347  0.00  0.00    +0.000 A 
ATOM      5  C   UNL     1       4.453   4.333  18.712  0.00  0.00    +0.000 A 
ATOM      6 CL   UNL     1       5.822   5.135  19.395  0.00  0.00    +0.000 Cl
ATOM      7  C   UNL     1       3.468   3.940  19.626  0.00  0.00    +0.000 A 
ENDROOT
BRANCH   4   8
ATOM      8  N   UNL     1       5.167   4.469  16.340  0.00  0.00    +0.000 N 
ATOM      9  C   UNL     1       5.906   3.567  15.593  0.00  0.00    +0.000 A 
ATOM     10  C   UNL     1       6.693   4.306  14.745  0.00  0.00    +0.000 A 
ATOM     11  N   UNL     1       6.447   5.637  14.899  0.00  0.00    +0.000 NA
ATOM     12  C   UNL     1       5.518   5.713  15.829  0.00  0.00    +0.000 A 
BRANCH  12  13
ATOM     13  S   UNL     1       4.968   7.247  16.423  0.00  0.00    +0.000 S 
ATOM     14  H   UNL     1       3.668   7.033  16.176  0.00  0.00    +0.000 HD
ENDBRANCH  12  13
ENDBRANCH   4   8
BRANCH   1  16
ATOM     15  F   UNL     1       1.605   2.044  21.042  0.00  0.00    +0.000 F 
ATOM     16  C   UNL     1       1.190   2.980  20.146  0.00  0.00    +0.000 C 
ATOM     17  F   UNL     1       0.107   2.445  19.517  0.00  0.00    +0.000 F 
ATOM     18  F   UNL     1       0.719   4.021  20.883  0.00  0.00    +0.000 F 
ENDBRANCH   1  16
TORSDOF 3
ENDMDL
MODEL 8
REMARK VINA RESULT:      -6.3      4.365      5.772
REMARK  Name = 
REMARK  3 active torsions:
REMARK  status: ('A' for Active; 'I' for Inactive)
REMARK    1  A    between atoms: C_2  and  C_5
REMARK    2  A    between atoms: C_8  and  N_9
REMARK    3  A    between atoms: C_13  and  S_14
REMARK                            x       y       z     vdW  Elec       q    Type
REMARK                         _______ _______ _______ _____ _____    ______ ____
ROOT
ATOM      1  C   UNL     1       6.296   6.228  17.990  0.00  0.00    +0.000 A 
ATOM      2  C   UNL     1       6.545   4.984  18.537  0.00  0.00    +0.000 A 
ATOM      3  N   UNL     1       5.575   4.085  18.818  0.00  0.00    +0.000 NA
ATOM      4  C   UNL     1       4.276   4.407  18.555  0.00  0.00    +0.000 A 
ATOM      5  C   UNL     1       3.931   5.656  18.029  0.00  0.00    +0.000 A 
ATOM      6 CL   UNL     1       2.328   6.268  17.833  0.00  0.00    +0.000 Cl
ATOM      7  C   UNL     1       4.961   6.562  17.742  0.00  0.00    +0.000 A 
ENDROOT
BRANCH   4   8
ATOM      8  N   UNL     1       3.304   3.390  18.819  0.00  0.00    +0.000 N 
ATOM      9  C   UNL     1       3.076   2.244  18.075  0.00  0.00    +0.000 A 
ATOM     10  C   UNL     1       2.066   1.559  18.702  0.00  0.00    +0.000 A 
ATOM     11  N   UNL     1       1.678   2.207  19.837  0.00  0.00    +0.000 NA
ATOM     12  C   UNL     1       2.443   3.277  19.904  0.00  0.00    +0.000 A 
BRANCH  12  13
ATOM     13  S   UNL     1       2.221   4.460  21.153  0.00  0.00    +0.000 S 
ATOM     14  H   UNL     1       3.036   5.380  20.619  0.00  0.00    +0.000 HD
ENDBRANCH  12  13
ENDBRANCH   4   8
BRANCH   1  16
ATOM     15  F   UNL     1       8.414   7.156  18.607  0.00  0.00    +0.000 F 
ATOM     16  C   UNL     1       7.408   7.185  17.691  0.00  0.00    +0.000 C 
ATOM     17  F   UNL     1       6.980   8.476  17.643  0.00  0.00    +0.000 F 
ATOM     18  F   UNL     1       7.990   6.939  16.487  0.00  0.00    +0.000 F 
ENDBRANCH   1  16
TORSDOF 3
ENDMDL
MODEL 9
REMARK VINA RESULT:      -6.3      1.726      2.233
REMARK  Name = 
REMARK  3 active torsions:
REMARK  status: ('A' for Active; 'I' for Inactive)
REMARK    1  A    between atoms: C_2  and  C_5
REMARK    2  A    between atoms: C_8  and  N_9
REMARK    3  A    between atoms: C_13  and  S_14
REMARK                            x       y       z     vdW  Elec       q    Type
REMARK                         _______ _______ _______ _____ _____    ______ ____
ROOT
ATOM      1  C   UNL     1       2.543   4.683  19.553  0.00  0.00    +0.000 A 
ATOM      2  C   UNL     1       3.297   5.773  19.162  0.00  0.00    +0.000 A 
ATOM      3  N   UNL     1       4.248   5.717  18.203  0.00  0.00    +0.000 NA
ATOM      4  C   UNL     1       4.490   4.530  17.578  0.00  0.00    +0.000 A 
ATOM      5  C   UNL     1       3.793   3.369  17.931  0.00  0.00    +0.000 A 
ATOM      6 CL   UNL     1       4.131   1.771  17.369  0.00  0.00    +0.000 Cl
ATOM      7  C   UNL     1       2.809   3.463  18.923  0.00  0.00    +0.000 A 
ENDROOT
BRANCH   4   8
ATOM      8  N   UNL     1       5.467   4.550  16.531  0.00  0.00    +0.000 N 
ATOM      9  C   UNL     1       5.229   4.453  15.170  0.00  0.00    +0.000 A 
ATOM     10  C   UNL     1       6.450   4.531  14.549  0.00  0.00    +0.000 A 
ATOM     11  N   UNL     1       7.444   4.717  15.462  0.00  0.00    +0.000 NA
ATOM     12  C   UNL     1       6.838   4.754  16.631  0.00  0.00    +0.000 A 
BRANCH  12  13
ATOM     13  S   UNL     1       7.742   4.875  18.105  0.00  0.00    +0.000 S 
ATOM     14  H   UNL     1       8.803   5.492  17.568  0.00  0.00    +0.000 HD
ENDBRANCH  12  13
ENDBRANCH   4   8
BRANCH   1  16
ATOM     15  F   UNL     1       0.318   4.201  20.292  0.00  0.00    +0.000 F 
ATOM     16  C   UNL     1       1.495   4.800  20.616  0.00  0.00    +0.000 C 
ATOM     17  F   UNL     1       1.192   6.096  20.902  0.00  0.00    +0.000 F 
ATOM     18  F   UNL     1       1.889   4.240  21.791  0.00  0.00    +0.000 F 
ENDBRANCH   1  16
TORSDOF 3
ENDMDL
