MODEL 1
REMARK VINA RESULT:      -7.4      0.000      0.000
REMARK  Name = 
REMARK  7 active torsions:
REMARK  status: ('A' for Active; 'I' for Inactive)
REMARK    1  A    between atoms: C_2  and  C_12
REMARK    2  A    between atoms: N_3  and  C_4
REMARK    3  A    between atoms: C_4  and  C_5
REMARK    4  A    between atoms: C_5  and  N_6
REMARK    5  A    between atoms: C_16  and  O_17
REMARK    6  A    between atoms: O_17  and  C_18
REMARK    7  A    between atoms: C_18  and  C_19
REMARK                            x       y       z     vdW  Elec       q    Type
REMARK                         _______ _______ _______ _____ _____    ______ ____
ROOT
ATOM      1  C   UNL     1       1.479   8.047  20.179  0.00  0.00    +0.000 A 
ATOM      2  C   UNL     1       0.818   8.307  21.372  0.00  0.00    +0.000 A 
ATOM      3  C   UNL     1       0.172   9.526  21.504  0.00  0.00    +0.000 A 
ATOM      4 CL   UNL     1      -0.667   9.856  22.976  0.00  0.00    +0.000 Cl
ATOM      5  C   UNL     1       0.185  10.440  20.451  0.00  0.00    +0.000 A 
ATOM      6  C   UNL     1       0.932  10.102  19.325  0.00  0.00    +0.000 A 
ATOM      7  N   UNL     1       1.571   8.927  19.151  0.00  0.00    +0.000 NA
ENDROOT
BRANCH   1   9
ATOM      8  O   UNL     1       1.972   5.845  20.837  0.00  0.00    +0.000 OA
ATOM      9  C   UNL     1       2.134   6.726  19.998  0.00  0.00    +0.000 C 
ATOM     10  N   UNL     1       2.926   6.567  18.870  0.00  0.00    +0.000 N 
ATOM     11  H   UNL     1       3.057   7.357  18.245  0.00  0.00    +0.000 HD
BRANCH  10  12
ATOM     12  C   UNL     1       3.659   5.330  18.764  0.00  0.00    +0.000 C 
BRANCH  12  13
ATOM     13  C   UNL     1       4.124   4.858  17.373  0.00  0.00    +0.000 C 
BRANCH  13  14
ATOM     14  N   UNL     1       5.254   5.696  16.937  0.00  0.00    +0.000 NA
ATOM     15  C   UNL     1       5.747   5.417  15.573  0.00  0.00    +0.000 C 
ATOM     16  C   UNL     1       6.756   4.268  15.499  0.00  0.00    +0.000 C 
ATOM     17  O   UNL     1       7.892   4.561  16.315  0.00  0.00    +0.000 OA
ATOM     18  C   UNL     1       7.492   4.703  17.682  0.00  0.00    +0.000 C 
ATOM     19  C   UNL     1       6.389   5.763  17.873  0.00  0.00    +0.000 C 
ENDBRANCH  13  14
ENDBRANCH  12  13
ENDBRANCH  10  12
ENDBRANCH   1   9
BRANCH   5  20
ATOM     20  O   UNL     1      -0.518  11.609  20.592  0.00  0.00    +0.000 OA
BRANCH  20  21
ATOM     21  C   UNL     1      -0.724  12.333  19.376  0.00  0.00    +0.000 C 
BRANCH  21  22
ATOM     22  C   UNL     1      -2.064  12.029  18.756  0.00  0.00    +0.000 A 
ATOM     23  C   UNL     1      -3.271  12.268  19.426  0.00  0.00    +0.000 A 
ATOM     24  C   UNL     1      -4.486  11.885  18.856  0.00  0.00    +0.000 A 
ATOM     25  C   UNL     1      -4.509  11.246  17.617  0.00  0.00    +0.000 A 
ATOM     26  C   UNL     1      -3.315  10.994  16.950  0.00  0.00    +0.000 A 
ATOM     27 CL   UNL     1      -3.330  10.185  15.432  0.00  0.00    +0.000 Cl
ATOM     28  C   UNL     1      -2.098  11.379  17.511  0.00  0.00    +0.000 A 
ENDBRANCH  21  22
ENDBRANCH  20  21
ENDBRANCH   5  20
TORSDOF 7
ENDMDL
MODEL 2
REMARK VINA RESULT:      -7.2      0.994      1.350
REMARK  Name = 
REMARK  7 active torsions:
REMARK  status: ('A' for Active; 'I' for Inactive)
REMARK    1  A    between atoms: C_2  and  C_12
REMARK    2  A    between atoms: N_3  and  C_4
REMARK    3  A    between atoms: C_4  and  C_5
REMARK    4  A    between atoms: C_5  and  N_6
REMARK    5  A    between atoms: C_16  and  O_17
REMARK    6  A    between atoms: O_17  and  C_18
REMARK    7  A    between atoms: C_18  and  C_19
REMARK                            x       y       z     vdW  Elec       q    Type
REMARK                         _______ _______ _______ _____ _____    ______ ____
ROOT
ATOM      1  C   UNL     1       2.017   7.458  19.647  0.00  0.00    +0.000 A 
ATOM      2  C   UNL     1       1.440   7.696  20.887  0.00  0.00    +0.000 A 
ATOM      3  C   UNL     1       0.799   8.910  21.082  0.00  0.00    +0.000 A 
ATOM      4 CL   UNL     1       0.063   9.213  22.613  0.00  0.00    +0.000 Cl
ATOM      5  C   UNL     1       0.733   9.838  20.044  0.00  0.00    +0.000 A 
ATOM      6  C   UNL     1       1.402   9.522  18.864  0.00  0.00    +0.000 A 
ATOM      7  N   UNL     1       2.033   8.353  18.628  0.00  0.00    +0.000 NA
ENDROOT
BRANCH   1   9
ATOM      8  O   UNL     1       3.348   5.626  20.280  0.00  0.00    +0.000 OA
ATOM      9  C   UNL     1       2.665   6.144  19.401  0.00  0.00    +0.000 C 
ATOM     10  N   UNL     1       2.470   5.571  18.153  0.00  0.00    +0.000 N 
ATOM     11  H   UNL     1       1.935   6.081  17.455  0.00  0.00    +0.000 HD
BRANCH  10  12
ATOM     12  C   UNL     1       3.203   4.361  17.875  0.00  0.00    +0.000 C 
BRANCH  12  13
ATOM     13  C   UNL     1       4.050   4.283  16.590  0.00  0.00    +0.000 C 
BRANCH  13  14
ATOM     14  N   UNL     1       5.472   4.169  16.963  0.00  0.00    +0.000 NA
ATOM     15  C   UNL     1       5.998   5.295  17.762  0.00  0.00    +0.000 C 
ATOM     16  C   UNL     1       6.460   6.490  16.923  0.00  0.00    +0.000 C 
ATOM     17  O   UNL     1       7.491   6.085  16.020  0.00  0.00    +0.000 OA
ATOM     18  C   UNL     1       6.993   5.087  15.122  0.00  0.00    +0.000 C 
ATOM     19  C   UNL     1       6.393   3.871  15.854  0.00  0.00    +0.000 C 
ENDBRANCH  13  14
ENDBRANCH  12  13
ENDBRANCH  10  12
ENDBRANCH   1   9
BRANCH   5  20
ATOM     20  O   UNL     1       0.035  11.001  20.251  0.00  0.00    +0.000 OA
BRANCH  20  21
ATOM     21  C   UNL     1      -0.179  11.787  19.076  0.00  0.00    +0.000 C 
BRANCH  21  22
ATOM     22  C   UNL     1      -1.574  11.617  18.528  0.00  0.00    +0.000 A 
ATOM     23  C   UNL     1      -2.710  12.034  19.234  0.00  0.00    +0.000 A 
ATOM     24  C   UNL     1      -3.989  11.774  18.736  0.00  0.00    +0.000 A 
ATOM     25  C   UNL     1      -4.146  11.083  17.535  0.00  0.00    +0.000 A 
ATOM     26  C   UNL     1      -3.023  10.656  16.833  0.00  0.00    +0.000 A 
ATOM     27 CL   UNL     1      -3.206   9.781  15.363  0.00  0.00    +0.000 Cl
ATOM     28  C   UNL     1      -1.744  10.917  17.322  0.00  0.00    +0.000 A 
ENDBRANCH  21  22
ENDBRANCH  20  21
ENDBRANCH   5  20
TORSDOF 7
ENDMDL
MODEL 3
REMARK VINA RESULT:      -7.2      3.533      9.582
REMARK  Name = 
REMARK  7 active torsions:
REMARK  status: ('A' for Active; 'I' for Inactive)
REMARK    1  A    between atoms: C_2  and  C_12
REMARK    2  A    between atoms: N_3  and  C_4
REMARK    3  A    between atoms: C_4  and  C_5
REMARK    4  A    between atoms: C_5  and  N_6
REMARK    5  A    between atoms: C_16  and  O_17
REMARK    6  A    between atoms: O_17  and  C_18
REMARK    7  A    between atoms: C_18  and  C_19
REMARK                            x       y       z     vdW  Elec       q    Type
REMARK                         _______ _______ _______ _____ _____    ______ ____
ROOT
ATOM      1  C   UNL     1       2.731   5.750  19.141  0.00  0.00    +0.000 A 
ATOM      2  C   UNL     1       2.486   4.419  18.831  0.00  0.00    +0.000 A 
ATOM      3  C   UNL     1       3.280   3.821  17.866  0.00  0.00    +0.000 A 
ATOM      4 CL   UNL     1       2.996   2.162  17.482  0.00  0.00    +0.000 Cl
ATOM      5  C   UNL     1       4.299   4.548  17.252  0.00  0.00    +0.000 A 
ATOM      6  C   UNL     1       4.415   5.893  17.592  0.00  0.00    +0.000 A 
ATOM      7  N   UNL     1       3.670   6.516  18.529  0.00  0.00    +0.000 NA
ENDROOT
BRANCH   1   9
ATOM      8  O   UNL     1       1.275   5.703  20.986  0.00  0.00    +0.000 OA
ATOM      9  C   UNL     1       1.925   6.397  20.209  0.00  0.00    +0.000 C 
ATOM     10  N   UNL     1       1.940   7.783  20.256  0.00  0.00    +0.000 N 
ATOM     11  H   UNL     1       2.460   8.294  19.547  0.00  0.00    +0.000 HD
BRANCH  10  12
ATOM     12  C   UNL     1       1.058   8.407  21.210  0.00  0.00    +0.000 C 
BRANCH  12  13
ATOM     13  C   UNL     1       0.840   9.930  21.135  0.00  0.00    +0.000 C 
BRANCH  13  14
ATOM     14  N   UNL     1       0.464  10.292  19.757  0.00  0.00    +0.000 NA
ATOM     15  C   UNL     1       1.276  11.368  19.152  0.00  0.00    +0.000 C 
ATOM     16  C   UNL     1       0.795  12.780  19.502  0.00  0.00    +0.000 C 
ATOM     17  O   UNL     1      -0.554  12.959  19.064  0.00  0.00    +0.000 OA
ATOM     18  C   UNL     1      -1.414  12.028  19.728  0.00  0.00    +0.000 C 
ATOM     19  C   UNL     1      -0.966  10.565  19.543  0.00  0.00    +0.000 C 
ENDBRANCH  13  14
ENDBRANCH  12  13
ENDBRANCH  10  12
ENDBRANCH   1   9
BRANCH   5  20
ATOM     20  O   UNL     1       5.107   3.905  16.349  0.00  0.00    +0.000 OA
BRANCH  20  21
ATOM     21  C   UNL     1       6.310   4.604  16.020  0.00  0.00    +0.000 C 
BRANCH  21  22
ATOM     22  C   UNL     1       6.666   4.463  14.561  0.00  0.00    +0.000 A 
ATOM     23  C   UNL     1       7.557   5.335  13.921  0.00  0.00    +0.000 A 
ATOM     24  C   UNL     1       7.788   5.230  12.548  0.00  0.00    +0.000 A 
ATOM     25  C   UNL     1       7.122   4.262  11.797  0.00  0.00    +0.000 A 
ATOM     26  C   UNL     1       6.227   3.400  12.423  0.00  0.00    +0.000 A 
ATOM     27 CL   UNL     1       5.381   2.218  11.502  0.00  0.00    +0.000 Cl
ATOM     28  C   UNL     1       5.996   3.496  13.794  0.00  0.00    +0.000 A 
ENDBRANCH  21  22
ENDBRANCH  20  21
ENDBRANCH   5  20
TORSDOF 7
ENDMDL
MODEL 4
REMARK VINA RESULT:      -7.2      2.539      3.099
REMARK  Name = 
REMARK  7 active torsions:
REMARK  status: ('A' for Active; 'I' for Inactive)
REMARK    1  A    between atoms: C_2  and  C_12
REMARK    2  A    between atoms: N_3  and  C_4
REMARK    3  A    between atoms: C_4  and  C_5
REMARK    4  A    between atoms: C_5  and  N_6
REMARK    5  A    between atoms: C_16  and  O_17
REMARK    6  A    between atoms: O_17  and  C_18
REMARK    7  A    between atoms: C_18  and  C_19
REMARK                            x       y       z     vdW  Elec       q    Type
REMARK                         _______ _______ _______ _____ _____    ______ ____
ROOT
ATOM      1  C   UNL     1       1.449   8.797  19.925  0.00  0.00    +0.000 A 
ATOM      2  C   UNL     1       1.065   8.623  21.248  0.00  0.00    +0.000 A 
ATOM      3  C   UNL     1       0.399   9.667  21.873  0.00  0.00    +0.000 A 
ATOM      4 CL   UNL     1      -0.097   9.458  23.513  0.00  0.00    +0.000 Cl
ATOM      5  C   UNL     1       0.120  10.837  21.168  0.00  0.00    +0.000 A 
ATOM      6  C   UNL     1       0.607  10.928  19.867  0.00  0.00    +0.000 A 
ATOM      7  N   UNL     1       1.253   9.938  19.217  0.00  0.00    +0.000 NA
ENDROOT
BRANCH   1   9
ATOM      8  O   UNL     1       2.202   7.684  17.996  0.00  0.00    +0.000 OA
ATOM      9  C   UNL     1       2.118   7.673  19.221  0.00  0.00    +0.000 C 
ATOM     10  N   UNL     1       2.604   6.639  20.008  0.00  0.00    +0.000 N 
ATOM     11  H   UNL     1       2.452   6.671  21.012  0.00  0.00    +0.000 HD
BRANCH  10  12
ATOM     12  C   UNL     1       3.137   5.494  19.314  0.00  0.00    +0.000 C 
BRANCH  12  13
ATOM     13  C   UNL     1       4.652   5.220  19.384  0.00  0.00    +0.000 C 
BRANCH  13  14
ATOM     14  N   UNL     1       5.307   5.865  18.232  0.00  0.00    +0.000 NA
ATOM     15  C   UNL     1       4.813   5.430  16.910  0.00  0.00    +0.000 C 
ATOM     16  C   UNL     1       5.476   4.151  16.389  0.00  0.00    +0.000 C 
ATOM     17  O   UNL     1       6.888   4.342  16.279  0.00  0.00    +0.000 OA
ATOM     18  C   UNL     1       7.446   4.631  17.566  0.00  0.00    +0.000 C 
ATOM     19  C   UNL     1       6.779   5.841  18.248  0.00  0.00    +0.000 C 
ENDBRANCH  13  14
ENDBRANCH  12  13
ENDBRANCH  10  12
ENDBRANCH   1   9
BRANCH   5  20
ATOM     20  O   UNL     1      -0.597  11.822  21.798  0.00  0.00    +0.000 OA
BRANCH  20  21
ATOM     21  C   UNL     1      -1.783  12.229  21.112  0.00  0.00    +0.000 C 
BRANCH  21  22
ATOM     22  C   UNL     1      -2.922  12.503  22.063  0.00  0.00    +0.000 A 
ATOM     23  C   UNL     1      -2.819  12.266  23.441  0.00  0.00    +0.000 A 
ATOM     24  C   UNL     1      -3.925  12.442  24.274  0.00  0.00    +0.000 A 
ATOM     25  C   UNL     1      -5.149  12.844  23.740  0.00  0.00    +0.000 A 
ATOM     26  C   UNL     1      -5.263  13.070  22.371  0.00  0.00    +0.000 A 
ATOM     27 CL   UNL     1      -6.774  13.542  21.698  0.00  0.00    +0.000 Cl
ATOM     28  C   UNL     1      -4.161  12.901  21.534  0.00  0.00    +0.000 A 
ENDBRANCH  21  22
ENDBRANCH  20  21
ENDBRANCH   5  20
TORSDOF 7
ENDMDL
MODEL 5
REMARK VINA RESULT:      -7.2      2.342      3.565
REMARK  Name = 
REMARK  7 active torsions:
REMARK  status: ('A' for Active; 'I' for Inactive)
REMARK    1  A    between atoms: C_2  and  C_12
REMARK    2  A    between atoms: N_3  and  C_4
REMARK    3  A    between atoms: C_4  and  C_5
REMARK    4  A    between atoms: C_5  and  N_6
REMARK    5  A    between atoms: C_16  and  O_17
REMARK    6  A    between atoms: O_17  and  C_18
REMARK    7  A    between atoms: C_18  and  C_19
REMARK                            x       y       z     vdW  Elec       q    Type
REMARK                         _______ _______ _______ _____ _____    ______ ____
ROOT
ATOM      1  C   UNL     1       2.208   7.923  19.016  0.00  0.00    +0.000 A 
ATOM      2  C   UNL     1       1.693   8.036  20.300  0.00  0.00    +0.000 A 
ATOM      3  C   UNL     1       0.758   9.032  20.539  0.00  0.00    +0.000 A 
ATOM      4 CL   UNL     1       0.098   9.174  22.127  0.00  0.00    +0.000 Cl
ATOM      5  C   UNL     1       0.351   9.869  19.501  0.00  0.00    +0.000 A 
ATOM      6  C   UNL     1       0.980   9.708  18.269  0.00  0.00    +0.000 A 
ATOM      7  N   UNL     1       1.889   8.751  17.990  0.00  0.00    +0.000 NA
ENDROOT
BRANCH   1   9
ATOM      8  O   UNL     1       3.752   6.800  17.644  0.00  0.00    +0.000 OA
ATOM      9  C   UNL     1       3.173   6.831  18.727  0.00  0.00    +0.000 C 
ATOM     10  N   UNL     1       3.354   5.874  19.714  0.00  0.00    +0.000 N 
ATOM     11  H   UNL     1       2.802   5.934  20.565  0.00  0.00    +0.000 HD
BRANCH  10  12
ATOM     12  C   UNL     1       4.192   4.750  19.380  0.00  0.00    +0.000 C 
BRANCH  12  13
ATOM     13  C   UNL     1       3.660   3.692  18.394  0.00  0.00    +0.000 C 
BRANCH  13  14
ATOM     14  N   UNL     1       3.217   2.510  19.155  0.00  0.00    +0.000 NA
ATOM     15  C   UNL     1       1.808   2.122  18.938  0.00  0.00    +0.000 C 
ATOM     16  C   UNL     1       0.811   2.885  19.816  0.00  0.00    +0.000 C 
ATOM     17  O   UNL     1       1.109   2.668  21.196  0.00  0.00    +0.000 OA
ATOM     18  C   UNL     1       2.420   3.158  21.498  0.00  0.00    +0.000 C 
ATOM     19  C   UNL     1       3.509   2.543  20.597  0.00  0.00    +0.000 C 
ENDBRANCH  13  14
ENDBRANCH  12  13
ENDBRANCH  10  12
ENDBRANCH   1   9
BRANCH   5  20
ATOM     20  O   UNL     1      -0.623  10.800  19.758  0.00  0.00    +0.000 OA
BRANCH  20  21
ATOM     21  C   UNL     1      -0.881  11.706  18.682  0.00  0.00    +0.000 C 
BRANCH  21  22
ATOM     22  C   UNL     1      -2.256  11.509  18.094  0.00  0.00    +0.000 A 
ATOM     23  C   UNL     1      -2.451  11.095  16.769  0.00  0.00    +0.000 A 
ATOM     24  C   UNL     1      -3.737  11.016  16.233  0.00  0.00    +0.000 A 
ATOM     25  C   UNL     1      -4.842  11.361  17.009  0.00  0.00    +0.000 A 
ATOM     26  C   UNL     1      -4.658  11.783  18.322  0.00  0.00    +0.000 A 
ATOM     27 CL   UNL     1      -6.013  12.234  19.282  0.00  0.00    +0.000 Cl
ATOM     28  C   UNL     1      -3.376  11.860  18.865  0.00  0.00    +0.000 A 
ENDBRANCH  21  22
ENDBRANCH  20  21
ENDBRANCH   5  20
TORSDOF 7
ENDMDL
MODEL 6
REMARK VINA RESULT:      -7.1      2.475      3.340
REMARK  Name = 
REMARK  7 active torsions:
REMARK  status: ('A' for Active; 'I' for Inactive)
REMARK    1  A    between atoms: C_2  and  C_12
REMARK    2  A    between atoms: N_3  and  C_4
REMARK    3  A    between atoms: C_4  and  C_5
REMARK    4  A    between atoms: C_5  and  N_6
REMARK    5  A    between atoms: C_16  and  O_17
REMARK    6  A    between atoms: O_17  and  C_18
REMARK    7  A    between atoms: C_18  and  C_19
REMARK                            x       y       z     vdW  Elec       q    Type
REMARK                         _______ _______ _______ _____ _____    ______ ____
ROOT
ATOM      1  C   UNL     1       2.324   7.572  19.196  0.00  0.00    +0.000 A 
ATOM      2  C   UNL     1       1.716   8.047  20.350  0.00  0.00    +0.000 A 
ATOM      3  C   UNL     1       0.949   9.198  20.253  0.00  0.00    +0.000 A 
ATOM      4 CL   UNL     1       0.175   9.790  21.678  0.00  0.00    +0.000 Cl
ATOM      5  C   UNL     1       0.794   9.831  19.021  0.00  0.00    +0.000 A 
ATOM      6  C   UNL     1       1.501   9.305  17.942  0.00  0.00    +0.000 A 
ATOM      7  N   UNL     1       2.253   8.186  17.988  0.00  0.00    +0.000 NA
ENDROOT
BRANCH   1   9
ATOM      8  O   UNL     1       3.983   6.090  18.435  0.00  0.00    +0.000 OA
ATOM      9  C   UNL     1       3.108   6.312  19.267  0.00  0.00    +0.000 C 
ATOM     10  N   UNL     1       2.786   5.428  20.286  0.00  0.00    +0.000 N 
ATOM     11  H   UNL     1       2.014   5.654  20.908  0.00  0.00    +0.000 HD
BRANCH  10  12
ATOM     12  C   UNL     1       3.460   4.154  20.275  0.00  0.00    +0.000 C 
BRANCH  12  13
ATOM     13  C   UNL     1       2.723   2.917  20.824  0.00  0.00    +0.000 C 
BRANCH  13  14
ATOM     14  N   UNL     1       2.228   2.115  19.691  0.00  0.00    +0.000 NA
ATOM     15  C   UNL     1       3.248   1.766  18.681  0.00  0.00    +0.000 C 
ATOM     16  C   UNL     1       3.478   2.854  17.627  0.00  0.00    +0.000 C 
ATOM     17  O   UNL     1       2.260   3.125  16.931  0.00  0.00    +0.000 OA
ATOM     18  C   UNL     1       1.268   3.605  17.845  0.00  0.00    +0.000 C 
ATOM     19  C   UNL     1       1.026   2.641  19.023  0.00  0.00    +0.000 C 
ENDBRANCH  13  14
ENDBRANCH  12  13
ENDBRANCH  10  12
ENDBRANCH   1   9
BRANCH   5  20
ATOM     20  O   UNL     1      -0.023  10.930  18.950  0.00  0.00    +0.000 OA
BRANCH  20  21
ATOM     21  C   UNL     1      -1.387  10.684  19.302  0.00  0.00    +0.000 C 
BRANCH  21  22
ATOM     22  C   UNL     1      -2.288  10.653  18.093  0.00  0.00    +0.000 A 
ATOM     23  C   UNL     1      -1.943   9.966  16.921  0.00  0.00    +0.000 A 
ATOM     24  C   UNL     1      -2.759  10.040  15.791  0.00  0.00    +0.000 A 
ATOM     25  C   UNL     1      -3.920  10.812  15.814  0.00  0.00    +0.000 A 
ATOM     26  C   UNL     1      -4.264  11.506  16.969  0.00  0.00    +0.000 A 
ATOM     27 CL   UNL     1      -5.681  12.480  17.001  0.00  0.00    +0.000 Cl
ATOM     28  C   UNL     1      -3.456  11.432  18.103  0.00  0.00    +0.000 A 
ENDBRANCH  21  22
ENDBRANCH  20  21
ENDBRANCH   5  20
TORSDOF 7
ENDMDL
MODEL 7
REMARK VINA RESULT:      -7.1      3.694      9.593
REMARK  Name = 
REMARK  7 active torsions:
REMARK  status: ('A' for Active; 'I' for Inactive)
REMARK    1  A    between atoms: C_2  and  C_12
REMARK    2  A    between atoms: N_3  and  C_4
REMARK    3  A    between atoms: C_4  and  C_5
REMARK    4  A    between atoms: C_5  and  N_6
REMARK    5  A    between atoms: C_16  and  O_17
REMARK    6  A    between atoms: O_17  and  C_18
REMARK    7  A    between atoms: C_18  and  C_19
REMARK                            x       y       z     vdW  Elec       q    Type
REMARK                         _______ _______ _______ _____ _____    ______ ____
ROOT
ATOM      1  C   UNL     1       2.737   6.823  18.526  0.00  0.00    +0.000 A 
ATOM      2  C   UNL     1       2.286   5.518  18.374  0.00  0.00    +0.000 A 
ATOM      3  C   UNL     1       3.049   4.654  17.603  0.00  0.00    +0.000 A 
ATOM      4 CL   UNL     1       2.508   3.025  17.418  0.00  0.00    +0.000 Cl
ATOM      5  C   UNL     1       4.236   5.100  17.024  0.00  0.00    +0.000 A 
ATOM      6  C   UNL     1       4.559   6.444  17.188  0.00  0.00    +0.000 A 
ATOM      7  N   UNL     1       3.852   7.319  17.933  0.00  0.00    +0.000 NA
ENDROOT
BRANCH   1   9
ATOM      8  O   UNL     1       1.668   7.416  20.533  0.00  0.00    +0.000 OA
ATOM      9  C   UNL     1       1.962   7.751  19.390  0.00  0.00    +0.000 C 
ATOM     10  N   UNL     1       1.591   8.965  18.833  0.00  0.00    +0.000 N 
ATOM     11  H   UNL     1       1.825   9.153  17.862  0.00  0.00    +0.000 HD
BRANCH  10  12
ATOM     12  C   UNL     1       0.733   9.806  19.629  0.00  0.00    +0.000 C 
BRANCH  12  13
ATOM     13  C   UNL     1       1.163  11.261  19.903  0.00  0.00    +0.000 C 
BRANCH  13  14
ATOM     14  N   UNL     1       1.123  12.017  18.639  0.00  0.00    +0.000 NA
ATOM     15  C   UNL     1       2.389  12.682  18.270  0.00  0.00    +0.000 C 
ATOM     16  C   UNL     1       2.582  14.055  18.920  0.00  0.00    +0.000 C 
ATOM     17  O   UNL     1       1.514  14.927  18.547  0.00  0.00    +0.000 OA
ATOM     18  C   UNL     1       0.265  14.399  19.005  0.00  0.00    +0.000 C 
ATOM     19  C   UNL     1       0.004  12.965  18.505  0.00  0.00    +0.000 C 
ENDBRANCH  13  14
ENDBRANCH  12  13
ENDBRANCH  10  12
ENDBRANCH   1   9
BRANCH   5  20
ATOM     20  O   UNL     1       4.997   4.200  16.321  0.00  0.00    +0.000 OA
BRANCH  20  21
ATOM     21  C   UNL     1       6.327   4.639  16.034  0.00  0.00    +0.000 C 
BRANCH  21  22
ATOM     22  C   UNL     1       6.670   4.491  14.573  0.00  0.00    +0.000 A 
ATOM     23  C   UNL     1       7.605   5.318  13.936  0.00  0.00    +0.000 A 
ATOM     24  C   UNL     1       7.825   5.212  12.561  0.00  0.00    +0.000 A 
ATOM     25  C   UNL     1       7.103   4.289  11.806  0.00  0.00    +0.000 A 
ATOM     26  C   UNL     1       6.164   3.472  12.428  0.00  0.00    +0.000 A 
ATOM     27 CL   UNL     1       5.251   2.347  11.501  0.00  0.00    +0.000 Cl
ATOM     28  C   UNL     1       5.944   3.569  13.801  0.00  0.00    +0.000 A 
ENDBRANCH  21  22
ENDBRANCH  20  21
ENDBRANCH   5  20
TORSDOF 7
ENDMDL
MODEL 8
REMARK VINA RESULT:      -7.1      3.158      9.022
REMARK  Name = 
REMARK  7 active torsions:
REMARK  status: ('A' for Active; 'I' for Inactive)
REMARK    1  A    between atoms: C_2  and  C_12
REMARK    2  A    between atoms: N_3  and  C_4
REMARK    3  A    between atoms: C_4  and  C_5
REMARK    4  A    between atoms: C_5  and  N_6
REMARK    5  A    between atoms: C_16  and  O_17
REMARK    6  A    between atoms: O_17  and  C_18
REMARK    7  A    between atoms: C_18  and  C_19
REMARK                            x       y       z     vdW  Elec       q    Type
REMARK                         _______ _______ _______ _____ _____    ______ ____
ROOT
ATOM      1  C   UNL     1       1.773   7.560  19.729  0.00  0.00    +0.000 A 
ATOM      2  C   UNL     1       1.680   6.538  20.664  0.00  0.00    +0.000 A 
ATOM      3  C   UNL     1       2.213   5.303  20.330  0.00  0.00    +0.000 A 
ATOM      4 CL   UNL     1       2.117   4.028  21.490  0.00  0.00    +0.000 Cl
ATOM      5  C   UNL     1       2.835   5.122  19.096  0.00  0.00    +0.000 A 
ATOM      6  C   UNL     1       2.815   6.196  18.210  0.00  0.00    +0.000 A 
ATOM      7  N   UNL     1       2.314   7.416  18.492  0.00  0.00    +0.000 NA
ENDROOT
BRANCH   1   9
ATOM      8  O   UNL     1       1.066   9.194  21.264  0.00  0.00    +0.000 OA
ATOM      9  C   UNL     1       1.254   8.906  20.085  0.00  0.00    +0.000 C 
ATOM     10  N   UNL     1       0.988   9.775  19.038  0.00  0.00    +0.000 N 
ATOM     11  H   UNL     1       1.117   9.450  18.084  0.00  0.00    +0.000 HD
BRANCH  10  12
ATOM     12  C   UNL     1       0.365  11.029  19.380  0.00  0.00    +0.000 C 
BRANCH  12  13
ATOM     13  C   UNL     1      -0.728  11.595  18.454  0.00  0.00    +0.000 C 
BRANCH  13  14
ATOM     14  N   UNL     1      -1.822  10.611  18.351  0.00  0.00    +0.000 NA
ATOM     15  C   UNL     1      -1.861   9.855  17.082  0.00  0.00    +0.000 C 
ATOM     16  C   UNL     1      -2.596  10.579  15.949  0.00  0.00    +0.000 C 
ATOM     17  O   UNL     1      -3.946  10.844  16.334  0.00  0.00    +0.000 OA
ATOM     18  C   UNL     1      -3.971  11.696  17.484  0.00  0.00    +0.000 C 
ATOM     19  C   UNL     1      -3.164  11.125  18.667  0.00  0.00    +0.000 C 
ENDBRANCH  13  14
ENDBRANCH  12  13
ENDBRANCH  10  12
ENDBRANCH   1   9
BRANCH   5  20
ATOM     20  O   UNL     1       3.408   3.905  18.826  0.00  0.00    +0.000 OA
BRANCH  20  21
ATOM     21  C   UNL     1       4.742   3.752  19.316  0.00  0.00    +0.000 C 
BRANCH  21  22
ATOM     22  C   UNL     1       5.739   4.535  18.498  0.00  0.00    +0.000 A 
ATOM     23  C   UNL     1       6.562   5.519  19.063  0.00  0.00    +0.000 A 
ATOM     24  C   UNL     1       7.403   6.287  18.257  0.00  0.00    +0.000 A 
ATOM     25  C   UNL     1       7.422   6.092  16.877  0.00  0.00    +0.000 A 
ATOM     26  C   UNL     1       6.600   5.125  16.306  0.00  0.00    +0.000 A 
ATOM     27 CL   UNL     1       6.598   4.892  14.601  0.00  0.00    +0.000 Cl
ATOM     28  C   UNL     1       5.762   4.350  17.106  0.00  0.00    +0.000 A 
ENDBRANCH  21  22
ENDBRANCH  20  21
ENDBRANCH   5  20
TORSDOF 7
ENDMDL
MODEL 9
REMARK VINA RESULT:      -7.1      2.383      3.314
REMARK  Name = 
REMARK  7 active torsions:
REMARK  status: ('A' for Active; 'I' for Inactive)
REMARK    1  A    between atoms: C_2  and  C_12
REMARK    2  A    between atoms: N_3  and  C_4
REMARK    3  A    between atoms: C_4  and  C_5
REMARK    4  A    between atoms: C_5  and  N_6
REMARK    5  A    between atoms: C_16  and  O_17
REMARK    6  A    between atoms: O_17  and  C_18
REMARK    7  A    between atoms: C_18  and  C_19
REMARK                            x       y       z     vdW  Elec       q    Type
REMARK                         _______ _______ _______ _____ _____    ______ ____
ROOT
ATOM      1  C   UNL     1       1.685   8.294  19.940  0.00  0.00    +0.000 A 
ATOM      2  C   UNL     1       1.353   9.418  19.195  0.00  0.00    +0.000 A 
ATOM      3  C   UNL     1       0.835  10.513  19.869  0.00  0.00    +0.000 A 
ATOM      4 CL   UNL     1       0.432  11.922  18.958  0.00  0.00    +0.000 Cl
ATOM      5  C   UNL     1       0.680  10.470  21.254  0.00  0.00    +0.000 A 
ATOM      6  C   UNL     1       0.985   9.270  21.892  0.00  0.00    +0.000 A 
ATOM      7  N   UNL     1       1.496   8.182  21.279  0.00  0.00    +0.000 NA
ENDROOT
BRANCH   1   9
ATOM      8  O   UNL     1       2.283   7.080  18.017  0.00  0.00    +0.000 OA
ATOM      9  C   UNL     1       2.289   7.128  19.244  0.00  0.00    +0.000 C 
ATOM     10  N   UNL     1       2.821   6.126  20.042  0.00  0.00    +0.000 N 
ATOM     11  H   UNL     1       2.744   6.209  21.052  0.00  0.00    +0.000 HD
BRANCH  10  12
ATOM     12  C   UNL     1       3.289   4.942  19.367  0.00  0.00    +0.000 C 
BRANCH  12  13
ATOM     13  C   UNL     1       4.796   4.619  19.390  0.00  0.00    +0.000 C 
BRANCH  13  14
ATOM     14  N   UNL     1       5.496   5.542  18.480  0.00  0.00    +0.000 NA
ATOM     15  C   UNL     1       5.188   5.357  17.047  0.00  0.00    +0.000 C 
ATOM     16  C   UNL     1       6.027   4.273  16.365  0.00  0.00    +0.000 C 
ATOM     17  O   UNL     1       7.416   4.594  16.468  0.00  0.00    +0.000 OA
ATOM     18  C   UNL     1       7.807   4.648  17.844  0.00  0.00    +0.000 C 
ATOM     19  C   UNL     1       6.953   5.630  18.669  0.00  0.00    +0.000 C 
ENDBRANCH  13  14
ENDBRANCH  12  13
ENDBRANCH  10  12
ENDBRANCH   1   9
BRANCH   5  20
ATOM     20  O   UNL     1       0.226  11.594  21.896  0.00  0.00    +0.000 OA
BRANCH  20  21
ATOM     21  C   UNL     1      -0.837  11.364  22.824  0.00  0.00    +0.000 C 
BRANCH  21  22
ATOM     22  C   UNL     1      -2.123  12.019  22.387  0.00  0.00    +0.000 A 
ATOM     23  C   UNL     1      -2.283  12.573  21.109  0.00  0.00    +0.000 A 
ATOM     24  C   UNL     1      -3.455  13.255  20.775  0.00  0.00    +0.000 A 
ATOM     25  C   UNL     1      -4.473  13.403  21.716  0.00  0.00    +0.000 A 
ATOM     26  C   UNL     1      -4.317  12.866  22.990  0.00  0.00    +0.000 A 
ATOM     27 CL   UNL     1      -5.556  13.064  24.167  0.00  0.00    +0.000 Cl
ATOM     28  C   UNL     1      -3.152  12.179  23.329  0.00  0.00    +0.000 A 
ENDBRANCH  21  22
ENDBRANCH  20  21
ENDBRANCH   5  20
TORSDOF 7
ENDMDL
