MODEL 1
REMARK VINA RESULT:      -7.4      0.000      0.000
REMARK  Name = 
REMARK  14 active torsions:
REMARK  status: ('A' for Active; 'I' for Inactive)
REMARK    1  A    between atoms: C_1  and  O_2
REMARK    2  A    between atoms: O_2  and  C_3
REMARK    3  A    between atoms: C_6  and  C_7
REMARK    4  A    between atoms: C_7  and  C_9
REMARK    5  A    between atoms: C_9  and  C_10
REMARK    6  A    between atoms: C_9  and  C_26
REMARK    7  A    between atoms: C_10  and  C_11
REMARK    8  A    between atoms: C_11  and  C_12
REMARK    9  A    between atoms: N_15  and  C_16
REMARK   10  A    between atoms: C_16  and  C_17
REMARK   11  A    between atoms: C_21  and  C_22
REMARK   12  A    between atoms: C_26  and  C_27
REMARK   13  A    between atoms: C_30  and  O_31
REMARK   14  A    between atoms: O_31  and  C_32
REMARK                            x       y       z     vdW  Elec       q    Type
REMARK                         _______ _______ _______ _____ _____    ______ ____
ROOT
ATOM      1  C   UNL     1       3.009   3.729  19.474  0.00  0.00    +0.000 C 
ENDROOT
BRANCH   1   2
ATOM      2  C   UNL     1       2.850   2.890  20.737  0.00  0.00    +0.000 C 
ATOM      3  C   UNL     1       1.553   2.882  21.506  0.00  0.00    +0.000 C 
ATOM      4  O   UNL     1       3.840   2.316  21.210  0.00  0.00    +0.000 OA
ENDBRANCH   1   2
BRANCH   1   5
ATOM      5  C   UNL     1       3.582   2.958  18.289  0.00  0.00    +0.000 C 
ATOM      6  O   UNL     1       3.032   1.941  17.866  0.00  0.00    +0.000 OA
BRANCH   5  10
ATOM      7  C   UNL     1       6.663   4.867  15.965  0.00  0.00    +0.000 A 
ATOM      8  C   UNL     1       5.748   3.984  15.379  0.00  0.00    +0.000 A 
ATOM      9  C   UNL     1       4.780   3.335  16.149  0.00  0.00    +0.000 A 
ATOM     10  C   UNL     1       4.775   3.478  17.536  0.00  0.00    +0.000 A 
ATOM     11  C   UNL     1       5.828   4.177  18.132  0.00  0.00    +0.000 A 
ATOM     12  C   UNL     1       6.761   4.905  17.364  0.00  0.00    +0.000 A 
BRANCH   7  14
ATOM     13  C   UNL     1       7.510   5.269  13.790  0.00  0.00    +0.000 C 
ATOM     14  O   UNL     1       7.425   5.679  15.165  0.00  0.00    +0.000 OA
ENDBRANCH   7  14
BRANCH  12  15
ATOM     15  O   UNL     1       7.605   5.603  18.178  0.00  0.00    +0.000 OA
ATOM     16  C   UNL     1       7.423   5.651  19.582  0.00  0.00    +0.000 C 
ENDBRANCH  12  15
ENDBRANCH   5  10
ENDBRANCH   1   5
BRANCH   1  17
ATOM     17  C   UNL     1       1.681   4.422  19.106  0.00  0.00    +0.000 C 
BRANCH  17  18
ATOM     18  C   UNL     1       1.908   5.663  18.224  0.00  0.00    +0.000 C 
BRANCH  18  19
ATOM     19  C   UNL     1       2.895   6.702  18.784  0.00  0.00    +0.000 C 
ATOM     20  C   UNL     1       2.437   7.346  20.103  0.00  0.00    +0.000 C 
ATOM     21  C   UNL     1       1.226   8.261  19.909  0.00  0.00    +0.000 C 
ATOM     22  N   UNL     1       1.496   9.337  18.945  0.00  0.00    +0.000 NA
ATOM     23  C   UNL     1       1.936   8.785  17.645  0.00  0.00    +0.000 C 
ATOM     24  C   UNL     1       3.133   7.828  17.762  0.00  0.00    +0.000 C 
BRANCH  22  25
ATOM     25  C   UNL     1       0.294  10.180  18.740  0.00  0.00    +0.000 C 
BRANCH  25  26
ATOM     26  C   UNL     1       0.542  11.678  18.790  0.00  0.00    +0.000 A 
ATOM     27  C   UNL     1      -0.524  12.572  18.980  0.00  0.00    +0.000 A 
ATOM     28  C   UNL     1      -0.297  13.961  18.981  0.00  0.00    +0.000 A 
ATOM     29  C   UNL     1       0.988  14.463  18.792  0.00  0.00    +0.000 A 
ATOM     30  C   UNL     1       2.065  13.584  18.604  0.00  0.00    +0.000 A 
ATOM     31  C   UNL     1       3.460  14.098  18.405  0.00  0.00    +0.000 C 
ATOM     32  C   UNL     1       1.827  12.202  18.597  0.00  0.00    +0.000 A 
ENDBRANCH  25  26
ENDBRANCH  22  25
ENDBRANCH  18  19
ENDBRANCH  17  18
ENDBRANCH   1  17
TORSDOF 10
ENDMDL
MODEL 2
REMARK VINA RESULT:      -7.4      1.697      2.257
REMARK  Name = 
REMARK  14 active torsions:
REMARK  status: ('A' for Active; 'I' for Inactive)
REMARK    1  A    between atoms: C_1  and  O_2
REMARK    2  A    between atoms: O_2  and  C_3
REMARK    3  A    between atoms: C_6  and  C_7
REMARK    4  A    between atoms: C_7  and  C_9
REMARK    5  A    between atoms: C_9  and  C_10
REMARK    6  A    between atoms: C_9  and  C_26
REMARK    7  A    between atoms: C_10  and  C_11
REMARK    8  A    between atoms: C_11  and  C_12
REMARK    9  A    between atoms: N_15  and  C_16
REMARK   10  A    between atoms: C_16  and  C_17
REMARK   11  A    between atoms: C_21  and  C_22
REMARK   12  A    between atoms: C_26  and  C_27
REMARK   13  A    between atoms: C_30  and  O_31
REMARK   14  A    between atoms: O_31  and  C_32
REMARK                            x       y       z     vdW  Elec       q    Type
REMARK                         _______ _______ _______ _____ _____    ______ ____
ROOT
ATOM      1  C   UNL     1       2.950   4.396  19.332  0.00  0.00    +0.000 C 
ENDROOT
BRANCH   1   2
ATOM      2  C   UNL     1       2.077   3.930  20.492  0.00  0.00    +0.000 C 
ATOM      3  C   UNL     1       0.817   3.138  20.246  0.00  0.00    +0.000 C 
ATOM      4  O   UNL     1       2.333   4.323  21.637  0.00  0.00    +0.000 OA
ENDBRANCH   1   2
BRANCH   1   5
ATOM      5  C   UNL     1       4.112   3.457  19.019  0.00  0.00    +0.000 C 
ATOM      6  O   UNL     1       4.163   2.327  19.504  0.00  0.00    +0.000 OA
BRANCH   5  10
ATOM      7  C   UNL     1       6.757   4.915  15.950  0.00  0.00    +0.000 A 
ATOM      8  C   UNL     1       5.869   3.859  15.709  0.00  0.00    +0.000 A 
ATOM      9  C   UNL     1       5.047   3.363  16.723  0.00  0.00    +0.000 A 
ATOM     10  C   UNL     1       5.170   3.847  18.025  0.00  0.00    +0.000 A 
ATOM     11  C   UNL     1       6.211   4.736  18.304  0.00  0.00    +0.000 A 
ATOM     12  C   UNL     1       6.992   5.306  17.277  0.00  0.00    +0.000 A 
BRANCH   7  14
ATOM     13  C   UNL     1       7.181   4.902  13.620  0.00  0.00    +0.000 C 
ATOM     14  O   UNL     1       7.357   5.548  14.893  0.00  0.00    +0.000 OA
ENDBRANCH   7  14
BRANCH  12  15
ATOM     15  O   UNL     1       7.849   6.236  17.791  0.00  0.00    +0.000 OA
ATOM     16  C   UNL     1       7.630   7.626  17.630  0.00  0.00    +0.000 C 
ENDBRANCH  12  15
ENDBRANCH   5  10
ENDBRANCH   1   5
BRANCH   1  17
ATOM     17  C   UNL     1       2.095   4.671  18.079  0.00  0.00    +0.000 C 
BRANCH  17  18
ATOM     18  C   UNL     1       1.731   6.162  17.950  0.00  0.00    +0.000 C 
BRANCH  18  19
ATOM     19  C   UNL     1       2.692   7.140  18.646  0.00  0.00    +0.000 C 
ATOM     20  C   UNL     1       2.218   7.597  20.035  0.00  0.00    +0.000 C 
ATOM     21  C   UNL     1       0.987   8.503  19.956  0.00  0.00    +0.000 C 
ATOM     22  N   UNL     1       1.234   9.701  19.141  0.00  0.00    +0.000 NA
ATOM     23  C   UNL     1       1.690   9.333  17.783  0.00  0.00    +0.000 C 
ATOM     24  C   UNL     1       2.907   8.395  17.781  0.00  0.00    +0.000 C 
BRANCH  22  25
ATOM     25  C   UNL     1       0.014  10.537  19.043  0.00  0.00    +0.000 C 
BRANCH  25  26
ATOM     26  C   UNL     1      -0.178  11.532  20.174  0.00  0.00    +0.000 A 
ATOM     27  C   UNL     1       0.682  12.635  20.308  0.00  0.00    +0.000 A 
ATOM     28  C   UNL     1       0.529  13.530  21.383  0.00  0.00    +0.000 A 
ATOM     29  C   UNL     1      -0.476  13.331  22.326  0.00  0.00    +0.000 A 
ATOM     30  C   UNL     1      -1.345  12.237  22.206  0.00  0.00    +0.000 A 
ATOM     31  C   UNL     1      -2.441  12.003  23.203  0.00  0.00    +0.000 C 
ATOM     32  C   UNL     1      -1.180  11.346  21.135  0.00  0.00    +0.000 A 
ENDBRANCH  25  26
ENDBRANCH  22  25
ENDBRANCH  18  19
ENDBRANCH  17  18
ENDBRANCH   1  17
TORSDOF 10
ENDMDL
MODEL 3
REMARK VINA RESULT:      -7.2      1.388      2.058
REMARK  Name = 
REMARK  14 active torsions:
REMARK  status: ('A' for Active; 'I' for Inactive)
REMARK    1  A    between atoms: C_1  and  O_2
REMARK    2  A    between atoms: O_2  and  C_3
REMARK    3  A    between atoms: C_6  and  C_7
REMARK    4  A    between atoms: C_7  and  C_9
REMARK    5  A    between atoms: C_9  and  C_10
REMARK    6  A    between atoms: C_9  and  C_26
REMARK    7  A    between atoms: C_10  and  C_11
REMARK    8  A    between atoms: C_11  and  C_12
REMARK    9  A    between atoms: N_15  and  C_16
REMARK   10  A    between atoms: C_16  and  C_17
REMARK   11  A    between atoms: C_21  and  C_22
REMARK   12  A    between atoms: C_26  and  C_27
REMARK   13  A    between atoms: C_30  and  O_31
REMARK   14  A    between atoms: O_31  and  C_32
REMARK                            x       y       z     vdW  Elec       q    Type
REMARK                         _______ _______ _______ _____ _____    ______ ____
ROOT
ATOM      1  C   UNL     1       2.919   4.119  19.904  0.00  0.00    +0.000 C 
ENDROOT
BRANCH   1   2
ATOM      2  C   UNL     1       2.801   2.935  20.856  0.00  0.00    +0.000 C 
ATOM      3  C   UNL     1       1.495   2.618  21.542  0.00  0.00    +0.000 C 
ATOM      4  O   UNL     1       3.820   2.310  21.174  0.00  0.00    +0.000 OA
ENDBRANCH   1   2
BRANCH   1   5
ATOM      5  C   UNL     1       3.347   3.733  18.490  0.00  0.00    +0.000 C 
ATOM      6  O   UNL     1       2.651   2.993  17.796  0.00  0.00    +0.000 OA
BRANCH   5  10
ATOM      7  C   UNL     1       6.693   5.941  16.920  0.00  0.00    +0.000 A 
ATOM      8  C   UNL     1       5.473   5.879  16.236  0.00  0.00    +0.000 A 
ATOM      9  C   UNL     1       4.408   5.124  16.730  0.00  0.00    +0.000 A 
ATOM     10  C   UNL     1       4.576   4.334  17.867  0.00  0.00    +0.000 A 
ATOM     11  C   UNL     1       5.858   4.225  18.412  0.00  0.00    +0.000 A 
ATOM     12  C   UNL     1       6.920   5.044  17.974  0.00  0.00    +0.000 A 
BRANCH   7  14
ATOM     13  C   UNL     1       7.700   8.024  17.427  0.00  0.00    +0.000 C 
ATOM     14  O   UNL     1       7.624   6.881  16.559  0.00  0.00    +0.000 OA
ENDBRANCH   7  14
BRANCH  12  15
ATOM     15  O   UNL     1       8.027   4.839  18.747  0.00  0.00    +0.000 OA
ATOM     16  C   UNL     1       8.224   5.525  19.970  0.00  0.00    +0.000 C 
ENDBRANCH  12  15
ENDBRANCH   5  10
ENDBRANCH   1   5
BRANCH   1  17
ATOM     17  C   UNL     1       1.618   4.946  19.892  0.00  0.00    +0.000 C 
BRANCH  17  18
ATOM     18  C   UNL     1       1.675   6.090  18.862  0.00  0.00    +0.000 C 
BRANCH  18  19
ATOM     19  C   UNL     1       2.481   7.327  19.293  0.00  0.00    +0.000 C 
ATOM     20  C   UNL     1       1.852   8.105  20.459  0.00  0.00    +0.000 C 
ATOM     21  C   UNL     1       0.554   8.807  20.052  0.00  0.00    +0.000 C 
ATOM     22  N   UNL     1       0.759   9.743  18.937  0.00  0.00    +0.000 NA
ATOM     23  C   UNL     1       1.359   9.055  17.772  0.00  0.00    +0.000 C 
ATOM     24  C   UNL     1       2.653   8.298  18.111  0.00  0.00    +0.000 C 
BRANCH  22  25
ATOM     25  C   UNL     1      -0.519  10.374  18.532  0.00  0.00    +0.000 C 
BRANCH  25  26
ATOM     26  C   UNL     1      -0.717  11.799  19.020  0.00  0.00    +0.000 A 
ATOM     27  C   UNL     1      -0.003  12.859  18.436  0.00  0.00    +0.000 A 
ATOM     28  C   UNL     1      -0.155  14.171  18.920  0.00  0.00    +0.000 A 
ATOM     29  C   UNL     1      -1.014  14.433  19.984  0.00  0.00    +0.000 A 
ATOM     30  C   UNL     1      -1.736  13.387  20.577  0.00  0.00    +0.000 A 
ATOM     31  C   UNL     1      -2.674  13.642  21.719  0.00  0.00    +0.000 C 
ATOM     32  C   UNL     1      -1.573  12.081  20.092  0.00  0.00    +0.000 A 
ENDBRANCH  25  26
ENDBRANCH  22  25
ENDBRANCH  18  19
ENDBRANCH  17  18
ENDBRANCH   1  17
TORSDOF 10
ENDMDL
MODEL 4
REMARK VINA RESULT:      -7.1      1.773      2.486
REMARK  Name = 
REMARK  14 active torsions:
REMARK  status: ('A' for Active; 'I' for Inactive)
REMARK    1  A    between atoms: C_1  and  O_2
REMARK    2  A    between atoms: O_2  and  C_3
REMARK    3  A    between atoms: C_6  and  C_7
REMARK    4  A    between atoms: C_7  and  C_9
REMARK    5  A    between atoms: C_9  and  C_10
REMARK    6  A    between atoms: C_9  and  C_26
REMARK    7  A    between atoms: C_10  and  C_11
REMARK    8  A    between atoms: C_11  and  C_12
REMARK    9  A    between atoms: N_15  and  C_16
REMARK   10  A    between atoms: C_16  and  C_17
REMARK   11  A    between atoms: C_21  and  C_22
REMARK   12  A    between atoms: C_26  and  C_27
REMARK   13  A    between atoms: C_30  and  O_31
REMARK   14  A    between atoms: O_31  and  C_32
REMARK                            x       y       z     vdW  Elec       q    Type
REMARK                         _______ _______ _______ _____ _____    ______ ____
ROOT
ATOM      1  C   UNL     1       2.874   4.322  19.477  0.00  0.00    +0.000 C 
ENDROOT
BRANCH   1   2
ATOM      2  C   UNL     1       2.118   3.810  20.698  0.00  0.00    +0.000 C 
ATOM      3  C   UNL     1       0.883   2.959  20.544  0.00  0.00    +0.000 C 
ATOM      4  O   UNL     1       2.444   4.209  21.823  0.00  0.00    +0.000 OA
ENDBRANCH   1   2
BRANCH   1   5
ATOM      5  C   UNL     1       4.077   3.466  19.092  0.00  0.00    +0.000 C 
ATOM      6  O   UNL     1       4.276   2.374  19.624  0.00  0.00    +0.000 OA
BRANCH   5  10
ATOM      7  C   UNL     1       6.308   5.038  15.762  0.00  0.00    +0.000 A 
ATOM      8  C   UNL     1       5.329   4.052  15.585  0.00  0.00    +0.000 A 
ATOM      9  C   UNL     1       4.642   3.516  16.676  0.00  0.00    +0.000 A 
ATOM     10  C   UNL     1       4.994   3.883  17.976  0.00  0.00    +0.000 A 
ATOM     11  C   UNL     1       6.119   4.691  18.152  0.00  0.00    +0.000 A 
ATOM     12  C   UNL     1       6.768   5.304  17.060  0.00  0.00    +0.000 A 
BRANCH   7  14
ATOM     13  C   UNL     1       7.207   4.903  13.575  0.00  0.00    +0.000 C 
ATOM     14  O   UNL     1       6.778   5.726  14.673  0.00  0.00    +0.000 OA
ENDBRANCH   7  14
BRANCH  12  15
ATOM     15  O   UNL     1       7.751   6.144  17.501  0.00  0.00    +0.000 OA
ATOM     16  C   UNL     1       7.964   6.388  18.880  0.00  0.00    +0.000 C 
ENDBRANCH  12  15
ENDBRANCH   5  10
ENDBRANCH   1   5
BRANCH   1  17
ATOM     17  C   UNL     1       1.918   4.519  18.283  0.00  0.00    +0.000 C 
BRANCH  17  18
ATOM     18  C   UNL     1       1.755   6.007  17.919  0.00  0.00    +0.000 C 
BRANCH  18  19
ATOM     19  C   UNL     1       2.702   6.974  18.650  0.00  0.00    +0.000 C 
ATOM     20  C   UNL     1       2.234   7.354  20.064  0.00  0.00    +0.000 C 
ATOM     21  C   UNL     1       0.981   8.233  20.041  0.00  0.00    +0.000 C 
ATOM     22  N   UNL     1       1.191   9.473  19.280  0.00  0.00    +0.000 NA
ATOM     23  C   UNL     1       1.639   9.180  17.901  0.00  0.00    +0.000 C 
ATOM     24  C   UNL     1       2.878   8.273  17.843  0.00  0.00    +0.000 C 
BRANCH  22  25
ATOM     25  C   UNL     1      -0.049  10.284  19.234  0.00  0.00    +0.000 C 
BRANCH  25  26
ATOM     26  C   UNL     1      -0.556  10.763  20.583  0.00  0.00    +0.000 A 
ATOM     27  C   UNL     1      -0.254  10.049  21.754  0.00  0.00    +0.000 A 
ATOM     28  C   UNL     1      -0.762  10.470  22.997  0.00  0.00    +0.000 A 
ATOM     29  C   UNL     1      -1.573  11.600  23.078  0.00  0.00    +0.000 A 
ATOM     30  C   UNL     1      -1.882  12.326  21.919  0.00  0.00    +0.000 A 
ATOM     31  C   UNL     1      -2.747  13.550  21.979  0.00  0.00    +0.000 C 
ATOM     32  C   UNL     1      -1.376  11.894  20.684  0.00  0.00    +0.000 A 
ENDBRANCH  25  26
ENDBRANCH  22  25
ENDBRANCH  18  19
ENDBRANCH  17  18
ENDBRANCH   1  17
TORSDOF 10
ENDMDL
MODEL 5
REMARK VINA RESULT:      -7.0      1.475      2.254
REMARK  Name = 
REMARK  14 active torsions:
REMARK  status: ('A' for Active; 'I' for Inactive)
REMARK    1  A    between atoms: C_1  and  O_2
REMARK    2  A    between atoms: O_2  and  C_3
REMARK    3  A    between atoms: C_6  and  C_7
REMARK    4  A    between atoms: C_7  and  C_9
REMARK    5  A    between atoms: C_9  and  C_10
REMARK    6  A    between atoms: C_9  and  C_26
REMARK    7  A    between atoms: C_10  and  C_11
REMARK    8  A    between atoms: C_11  and  C_12
REMARK    9  A    between atoms: N_15  and  C_16
REMARK   10  A    between atoms: C_16  and  C_17
REMARK   11  A    between atoms: C_21  and  C_22
REMARK   12  A    between atoms: C_26  and  C_27
REMARK   13  A    between atoms: C_30  and  O_31
REMARK   14  A    between atoms: O_31  and  C_32
REMARK                            x       y       z     vdW  Elec       q    Type
REMARK                         _______ _______ _______ _____ _____    ______ ____
ROOT
ATOM      1  C   UNL     1       2.874   3.840  18.617  0.00  0.00    +0.000 C 
ENDROOT
BRANCH   1   2
ATOM      2  C   UNL     1       2.013   3.185  19.690  0.00  0.00    +0.000 C 
ATOM      3  C   UNL     1       0.652   2.626  19.359  0.00  0.00    +0.000 C 
ATOM      4  O   UNL     1       2.377   3.236  20.872  0.00  0.00    +0.000 OA
ENDBRANCH   1   2
BRANCH   1   5
ATOM      5  C   UNL     1       3.920   2.908  18.012  0.00  0.00    +0.000 C 
ATOM      6  O   UNL     1       3.805   1.685  18.095  0.00  0.00    +0.000 OA
BRANCH   5  10
ATOM      7  C   UNL     1       6.829   4.857  15.506  0.00  0.00    +0.000 A 
ATOM      8  C   UNL     1       5.967   3.878  14.998  0.00  0.00    +0.000 A 
ATOM      9  C   UNL     1       5.057   3.219  15.828  0.00  0.00    +0.000 A 
ATOM     10  C   UNL     1       5.063   3.455  17.203  0.00  0.00    +0.000 A 
ATOM     11  C   UNL     1       6.075   4.261  17.730  0.00  0.00    +0.000 A 
ATOM     12  C   UNL     1       6.945   4.996  16.897  0.00  0.00    +0.000 A 
BRANCH   7  14
ATOM     13  C   UNL     1       7.711   5.117  13.323  0.00  0.00    +0.000 C 
ATOM     14  O   UNL     1       7.522   5.663  14.640  0.00  0.00    +0.000 OA
ENDBRANCH   7  14
BRANCH  12  15
ATOM     15  O   UNL     1       7.752   5.803  17.647  0.00  0.00    +0.000 OA
ATOM     16  C   UNL     1       7.527   7.197  17.754  0.00  0.00    +0.000 C 
ENDBRANCH  12  15
ENDBRANCH   5  10
ENDBRANCH   1   5
BRANCH   1  17
ATOM     17  C   UNL     1       1.996   4.485  17.526  0.00  0.00    +0.000 C 
BRANCH  17  18
ATOM     18  C   UNL     1       1.619   5.936  17.878  0.00  0.00    +0.000 C 
BRANCH  18  19
ATOM     19  C   UNL     1       2.753   6.789  18.470  0.00  0.00    +0.000 C 
ATOM     20  C   UNL     1       2.741   6.863  20.005  0.00  0.00    +0.000 C 
ATOM     21  C   UNL     1       1.550   7.665  20.536  0.00  0.00    +0.000 C 
ATOM     22  N   UNL     1       1.533   9.038  20.013  0.00  0.00    +0.000 NA
ATOM     23  C   UNL     1       1.537   9.042  18.533  0.00  0.00    +0.000 C 
ATOM     24  C   UNL     1       2.689   8.228  17.925  0.00  0.00    +0.000 C 
BRANCH  22  25
ATOM     25  C   UNL     1       0.346   9.778  20.504  0.00  0.00    +0.000 C 
BRANCH  25  26
ATOM     26  C   UNL     1      -0.438  10.520  19.436  0.00  0.00    +0.000 A 
ATOM     27  C   UNL     1      -0.216  11.889  19.210  0.00  0.00    +0.000 A 
ATOM     28  C   UNL     1      -0.975  12.584  18.250  0.00  0.00    +0.000 A 
ATOM     29  C   UNL     1      -1.955  11.922  17.515  0.00  0.00    +0.000 A 
ATOM     30  C   UNL     1      -2.188  10.556  17.727  0.00  0.00    +0.000 A 
ATOM     31  C   UNL     1      -3.233   9.816  16.944  0.00  0.00    +0.000 C 
ATOM     32  C   UNL     1      -1.431   9.873  18.690  0.00  0.00    +0.000 A 
ENDBRANCH  25  26
ENDBRANCH  22  25
ENDBRANCH  18  19
ENDBRANCH  17  18
ENDBRANCH   1  17
TORSDOF 10
ENDMDL
MODEL 6
REMARK VINA RESULT:      -7.0      1.284      1.566
REMARK  Name = 
REMARK  14 active torsions:
REMARK  status: ('A' for Active; 'I' for Inactive)
REMARK    1  A    between atoms: C_1  and  O_2
REMARK    2  A    between atoms: O_2  and  C_3
REMARK    3  A    between atoms: C_6  and  C_7
REMARK    4  A    between atoms: C_7  and  C_9
REMARK    5  A    between atoms: C_9  and  C_10
REMARK    6  A    between atoms: C_9  and  C_26
REMARK    7  A    between atoms: C_10  and  C_11
REMARK    8  A    between atoms: C_11  and  C_12
REMARK    9  A    between atoms: N_15  and  C_16
REMARK   10  A    between atoms: C_16  and  C_17
REMARK   11  A    between atoms: C_21  and  C_22
REMARK   12  A    between atoms: C_26  and  C_27
REMARK   13  A    between atoms: C_30  and  O_31
REMARK   14  A    between atoms: O_31  and  C_32
REMARK                            x       y       z     vdW  Elec       q    Type
REMARK                         _______ _______ _______ _____ _____    ______ ____
ROOT
ATOM      1  C   UNL     1       2.845   3.780  18.934  0.00  0.00    +0.000 C 
ENDROOT
BRANCH   1   2
ATOM      2  C   UNL     1       2.669   2.390  19.533  0.00  0.00    +0.000 C 
ATOM      3  C   UNL     1       3.518   1.232  19.070  0.00  0.00    +0.000 C 
ATOM      4  O   UNL     1       1.728   2.180  20.308  0.00  0.00    +0.000 OA
ENDBRANCH   1   2
BRANCH   1   5
ATOM      5  C   UNL     1       3.399   3.773  17.511  0.00  0.00    +0.000 C 
ATOM      6  O   UNL     1       2.745   3.308  16.578  0.00  0.00    +0.000 OA
BRANCH   5  10
ATOM      7  C   UNL     1       6.946   6.119  16.841  0.00  0.00    +0.000 A 
ATOM      8  C   UNL     1       5.863   6.164  15.956  0.00  0.00    +0.000 A 
ATOM      9  C   UNL     1       4.735   5.366  16.157  0.00  0.00    +0.000 A 
ATOM     10  C   UNL     1       4.712   4.432  17.192  0.00  0.00    +0.000 A 
ATOM     11  C   UNL     1       5.882   4.235  17.930  0.00  0.00    +0.000 A 
ATOM     12  C   UNL     1       6.996   5.089  17.792  0.00  0.00    +0.000 A 
BRANCH   7  14
ATOM     13  C   UNL     1       7.665   8.257  17.564  0.00  0.00    +0.000 C 
ATOM     14  O   UNL     1       7.917   7.085  16.771  0.00  0.00    +0.000 OA
ENDBRANCH   7  14
BRANCH  12  15
ATOM     15  O   UNL     1       7.956   4.770  18.709  0.00  0.00    +0.000 OA
ATOM     16  C   UNL     1       8.228   5.597  19.827  0.00  0.00    +0.000 C 
ENDBRANCH  12  15
ENDBRANCH   5  10
ENDBRANCH   1   5
BRANCH   1  17
ATOM     17  C   UNL     1       1.534   4.587  19.024  0.00  0.00    +0.000 C 
BRANCH  17  18
ATOM     18  C   UNL     1       1.644   5.941  18.298  0.00  0.00    +0.000 C 
BRANCH  18  19
ATOM     19  C   UNL     1       2.633   6.944  18.915  0.00  0.00    +0.000 C 
ATOM     20  C   UNL     1       2.143   7.572  20.230  0.00  0.00    +0.000 C 
ATOM     21  C   UNL     1       0.961   8.520  20.012  0.00  0.00    +0.000 C 
ATOM     22  N   UNL     1       1.291   9.608  19.081  0.00  0.00    +0.000 NA
ATOM     23  C   UNL     1       1.765   9.072  17.786  0.00  0.00    +0.000 C 
ATOM     24  C   UNL     1       2.934   8.085  17.927  0.00  0.00    +0.000 C 
BRANCH  22  25
ATOM     25  C   UNL     1       0.117  10.483  18.852  0.00  0.00    +0.000 C 
BRANCH  25  26
ATOM     26  C   UNL     1       0.369  11.966  19.064  0.00  0.00    +0.000 A 
ATOM     27  C   UNL     1      -0.515  12.923  18.537  0.00  0.00    +0.000 A 
ATOM     28  C   UNL     1      -0.255  14.297  18.697  0.00  0.00    +0.000 A 
ATOM     29  C   UNL     1       0.883  14.722  19.378  0.00  0.00    +0.000 A 
ATOM     30  C   UNL     1       1.774  13.781  19.913  0.00  0.00    +0.000 A 
ATOM     31  C   UNL     1       3.002  14.211  20.658  0.00  0.00    +0.000 C 
ATOM     32  C   UNL     1       1.510  12.414  19.743  0.00  0.00    +0.000 A 
ENDBRANCH  25  26
ENDBRANCH  22  25
ENDBRANCH  18  19
ENDBRANCH  17  18
ENDBRANCH   1  17
TORSDOF 10
ENDMDL
MODEL 7
REMARK VINA RESULT:      -7.0      1.589      2.743
REMARK  Name = 
REMARK  14 active torsions:
REMARK  status: ('A' for Active; 'I' for Inactive)
REMARK    1  A    between atoms: C_1  and  O_2
REMARK    2  A    between atoms: O_2  and  C_3
REMARK    3  A    between atoms: C_6  and  C_7
REMARK    4  A    between atoms: C_7  and  C_9
REMARK    5  A    between atoms: C_9  and  C_10
REMARK    6  A    between atoms: C_9  and  C_26
REMARK    7  A    between atoms: C_10  and  C_11
REMARK    8  A    between atoms: C_11  and  C_12
REMARK    9  A    between atoms: N_15  and  C_16
REMARK   10  A    between atoms: C_16  and  C_17
REMARK   11  A    between atoms: C_21  and  C_22
REMARK   12  A    between atoms: C_26  and  C_27
REMARK   13  A    between atoms: C_30  and  O_31
REMARK   14  A    between atoms: O_31  and  C_32
REMARK                            x       y       z     vdW  Elec       q    Type
REMARK                         _______ _______ _______ _____ _____    ______ ____
ROOT
ATOM      1  C   UNL     1       2.504   3.849  19.566  0.00  0.00    +0.000 C 
ENDROOT
BRANCH   1   2
ATOM      2  C   UNL     1       1.621   2.640  19.851  0.00  0.00    +0.000 C 
ATOM      3  C   UNL     1       0.636   2.139  18.824  0.00  0.00    +0.000 C 
ATOM      4  O   UNL     1       1.615   2.149  20.987  0.00  0.00    +0.000 OA
ENDBRANCH   1   2
BRANCH   1   5
ATOM      5  C   UNL     1       3.761   3.519  18.765  0.00  0.00    +0.000 C 
ATOM      6  O   UNL     1       4.055   2.355  18.495  0.00  0.00    +0.000 OA
BRANCH   5  10
ATOM      7  C   UNL     1       6.651   6.315  17.225  0.00  0.00    +0.000 A 
ATOM      8  C   UNL     1       6.357   6.248  18.593  0.00  0.00    +0.000 A 
ATOM      9  C   UNL     1       5.385   5.369  19.078  0.00  0.00    +0.000 A 
ATOM     10  C   UNL     1       4.617   4.614  18.191  0.00  0.00    +0.000 A 
ATOM     11  C   UNL     1       4.760   4.855  16.823  0.00  0.00    +0.000 A 
ATOM     12  C   UNL     1       5.791   5.675  16.320  0.00  0.00    +0.000 A 
BRANCH   7  14
ATOM     13  C   UNL     1       8.078   8.176  17.554  0.00  0.00    +0.000 C 
ATOM     14  O   UNL     1       7.771   6.986  16.808  0.00  0.00    +0.000 OA
ENDBRANCH   7  14
BRANCH  12  15
ATOM     15  O   UNL     1       5.799   5.645  14.955  0.00  0.00    +0.000 OA
ATOM     16  C   UNL     1       6.570   4.703  14.230  0.00  0.00    +0.000 C 
ENDBRANCH  12  15
ENDBRANCH   5  10
ENDBRANCH   1   5
BRANCH   1  17
ATOM     17  C   UNL     1       1.692   4.978  18.900  0.00  0.00    +0.000 C 
BRANCH  17  18
ATOM     18  C   UNL     1       1.301   6.074  19.908  0.00  0.00    +0.000 C 
BRANCH  18  19
ATOM     19  C   UNL     1       2.261   7.273  19.987  0.00  0.00    +0.000 C 
ATOM     20  C   UNL     1       1.758   8.417  20.882  0.00  0.00    +0.000 C 
ATOM     21  C   UNL     1       0.547   9.132  20.278  0.00  0.00    +0.000 C 
ATOM     22  N   UNL     1       0.840   9.687  18.949  0.00  0.00    +0.000 NA
ATOM     23  C   UNL     1       1.326   8.635  18.030  0.00  0.00    +0.000 C 
ATOM     24  C   UNL     1       2.524   7.848  18.583  0.00  0.00    +0.000 C 
BRANCH  22  25
ATOM     25  C   UNL     1      -0.360  10.334  18.368  0.00  0.00    +0.000 C 
BRANCH  25  26
ATOM     26  C   UNL     1      -0.700  11.698  18.943  0.00  0.00    +0.000 A 
ATOM     27  C   UNL     1       0.097  12.816  18.646  0.00  0.00    +0.000 A 
ATOM     28  C   UNL     1      -0.193  14.070  19.216  0.00  0.00    +0.000 A 
ATOM     29  C   UNL     1      -1.274  14.214  20.082  0.00  0.00    +0.000 A 
ATOM     30  C   UNL     1      -2.082  13.109  20.387  0.00  0.00    +0.000 A 
ATOM     31  C   UNL     1      -3.256  13.238  21.311  0.00  0.00    +0.000 C 
ATOM     32  C   UNL     1      -1.780  11.862  19.820  0.00  0.00    +0.000 A 
ENDBRANCH  25  26
ENDBRANCH  22  25
ENDBRANCH  18  19
ENDBRANCH  17  18
ENDBRANCH   1  17
TORSDOF 10
ENDMDL
MODEL 8
REMARK VINA RESULT:      -7.0      3.827      9.006
REMARK  Name = 
REMARK  14 active torsions:
REMARK  status: ('A' for Active; 'I' for Inactive)
REMARK    1  A    between atoms: C_1  and  O_2
REMARK    2  A    between atoms: O_2  and  C_3
REMARK    3  A    between atoms: C_6  and  C_7
REMARK    4  A    between atoms: C_7  and  C_9
REMARK    5  A    between atoms: C_9  and  C_10
REMARK    6  A    between atoms: C_9  and  C_26
REMARK    7  A    between atoms: C_10  and  C_11
REMARK    8  A    between atoms: C_11  and  C_12
REMARK    9  A    between atoms: N_15  and  C_16
REMARK   10  A    between atoms: C_16  and  C_17
REMARK   11  A    between atoms: C_21  and  C_22
REMARK   12  A    between atoms: C_26  and  C_27
REMARK   13  A    between atoms: C_30  and  O_31
REMARK   14  A    between atoms: O_31  and  C_32
REMARK                            x       y       z     vdW  Elec       q    Type
REMARK                         _______ _______ _______ _____ _____    ______ ____
ROOT
ATOM      1  C   UNL     1       1.924   8.451  18.346  0.00  0.00    +0.000 C 
ENDROOT
BRANCH   1   2
ATOM      2  C   UNL     1       1.828   7.761  19.701  0.00  0.00    +0.000 C 
ATOM      3  C   UNL     1       1.337   8.505  20.918  0.00  0.00    +0.000 C 
ATOM      4  O   UNL     1       2.286   6.618  19.833  0.00  0.00    +0.000 OA
ENDBRANCH   1   2
BRANCH   1   5
ATOM      5  C   UNL     1       1.363   9.870  18.335  0.00  0.00    +0.000 C 
ATOM      6  O   UNL     1       2.105  10.846  18.220  0.00  0.00    +0.000 OA
BRANCH   5  10
ATOM      7  C   UNL     1      -2.768  11.077  18.206  0.00  0.00    +0.000 A 
ATOM      8  C   UNL     1      -1.955  11.371  19.308  0.00  0.00    +0.000 A 
ATOM      9  C   UNL     1      -0.629  10.936  19.361  0.00  0.00    +0.000 A 
ATOM     10  C   UNL     1      -0.120  10.112  18.357  0.00  0.00    +0.000 A 
ATOM     11  C   UNL     1      -1.001   9.639  17.381  0.00  0.00    +0.000 A 
ATOM     12  C   UNL     1      -2.317  10.135  17.269  0.00  0.00    +0.000 A 
BRANCH   7  14
ATOM     13  C   UNL     1      -4.516  12.265  19.273  0.00  0.00    +0.000 C 
ATOM     14  O   UNL     1      -3.968  11.724  18.059  0.00  0.00    +0.000 OA
ENDBRANCH   7  14
BRANCH  12  15
ATOM     15  O   UNL     1      -2.928   9.616  16.164  0.00  0.00    +0.000 OA
ATOM     16  C   UNL     1      -2.938  10.299  14.923  0.00  0.00    +0.000 C 
ENDBRANCH  12  15
ENDBRANCH   5  10
ENDBRANCH   1   5
BRANCH   1  17
ATOM     17  C   UNL     1       3.371   8.413  17.812  0.00  0.00    +0.000 C 
BRANCH  17  18
ATOM     18  C   UNL     1       3.610   7.201  16.892  0.00  0.00    +0.000 C 
BRANCH  18  19
ATOM     19  C   UNL     1       5.071   6.733  16.784  0.00  0.00    +0.000 C 
ATOM     20  C   UNL     1       5.298   5.642  15.724  0.00  0.00    +0.000 C 
ATOM     21  C   UNL     1       4.658   4.309  16.121  0.00  0.00    +0.000 C 
ATOM     22  N   UNL     1       5.170   3.812  17.405  0.00  0.00    +0.000 NA
ATOM     23  C   UNL     1       4.977   4.814  18.477  0.00  0.00    +0.000 C 
ATOM     24  C   UNL     1       5.567   6.191  18.137  0.00  0.00    +0.000 C 
BRANCH  22  25
ATOM     25  C   UNL     1       4.502   2.546  17.788  0.00  0.00    +0.000 C 
BRANCH  25  26
ATOM     26  C   UNL     1       3.164   2.710  18.490  0.00  0.00    +0.000 A 
ATOM     27  C   UNL     1       2.009   3.032  17.758  0.00  0.00    +0.000 A 
ATOM     28  C   UNL     1       0.781   3.228  18.416  0.00  0.00    +0.000 A 
ATOM     29  C   UNL     1       0.698   3.105  19.801  0.00  0.00    +0.000 A 
ATOM     30  C   UNL     1       1.841   2.782  20.546  0.00  0.00    +0.000 A 
ATOM     31  C   UNL     1       1.779   2.637  22.038  0.00  0.00    +0.000 C 
ATOM     32  C   UNL     1       3.062   2.596  19.882  0.00  0.00    +0.000 A 
ENDBRANCH  25  26
ENDBRANCH  22  25
ENDBRANCH  18  19
ENDBRANCH  17  18
ENDBRANCH   1  17
TORSDOF 10
ENDMDL
MODEL 9
REMARK VINA RESULT:      -6.9      2.461      3.630
REMARK  Name = 
REMARK  14 active torsions:
REMARK  status: ('A' for Active; 'I' for Inactive)
REMARK    1  A    between atoms: C_1  and  O_2
REMARK    2  A    between atoms: O_2  and  C_3
REMARK    3  A    between atoms: C_6  and  C_7
REMARK    4  A    between atoms: C_7  and  C_9
REMARK    5  A    between atoms: C_9  and  C_10
REMARK    6  A    between atoms: C_9  and  C_26
REMARK    7  A    between atoms: C_10  and  C_11
REMARK    8  A    between atoms: C_11  and  C_12
REMARK    9  A    between atoms: N_15  and  C_16
REMARK   10  A    between atoms: C_16  and  C_17
REMARK   11  A    between atoms: C_21  and  C_22
REMARK   12  A    between atoms: C_26  and  C_27
REMARK   13  A    between atoms: C_30  and  O_31
REMARK   14  A    between atoms: O_31  and  C_32
REMARK                            x       y       z     vdW  Elec       q    Type
REMARK                         _______ _______ _______ _____ _____    ______ ____
ROOT
ATOM      1  C   UNL     1       2.245   5.557  18.789  0.00  0.00    +0.000 C 
ENDROOT
BRANCH   1   2
ATOM      2  C   UNL     1       1.540   4.321  18.242  0.00  0.00    +0.000 C 
ATOM      3  C   UNL     1       1.527   3.028  19.018  0.00  0.00    +0.000 C 
ATOM      4  O   UNL     1       1.090   4.342  17.090  0.00  0.00    +0.000 OA
ENDBRANCH   1   2
BRANCH   1   5
ATOM      5  C   UNL     1       3.701   5.314  19.177  0.00  0.00    +0.000 C 
ATOM      6  O   UNL     1       4.013   5.045  20.337  0.00  0.00    +0.000 OA
BRANCH   5  10
ATOM      7  C   UNL     1       6.396   5.379  15.819  0.00  0.00    +0.000 A 
ATOM      8  C   UNL     1       5.650   4.237  16.136  0.00  0.00    +0.000 A 
ATOM      9  C   UNL     1       4.813   4.210  17.253  0.00  0.00    +0.000 A 
ATOM     10  C   UNL     1       4.783   5.292  18.133  0.00  0.00    +0.000 A 
ATOM     11  C   UNL     1       5.696   6.330  17.934  0.00  0.00    +0.000 A 
ATOM     12  C   UNL     1       6.486   6.408  16.768  0.00  0.00    +0.000 A 
BRANCH   7  14
ATOM     13  C   UNL     1       6.817   4.331  13.737  0.00  0.00    +0.000 C 
ATOM     14  O   UNL     1       7.002   5.472  14.593  0.00  0.00    +0.000 OA
ENDBRANCH   7  14
BRANCH  12  15
ATOM     15  O   UNL     1       7.194   7.575  16.751  0.00  0.00    +0.000 OA
ATOM     16  C   UNL     1       7.970   7.998  17.858  0.00  0.00    +0.000 C 
ENDBRANCH  12  15
ENDBRANCH   5  10
ENDBRANCH   1   5
BRANCH   1  17
ATOM     17  C   UNL     1       2.113   6.742  17.811  0.00  0.00    +0.000 C 
BRANCH  17  18
ATOM     18  C   UNL     1       2.036   8.090  18.552  0.00  0.00    +0.000 C 
BRANCH  18  19
ATOM     19  C   UNL     1       1.417   9.249  17.753  0.00  0.00    +0.000 C 
ATOM     20  C   UNL     1       2.049  10.618  18.051  0.00  0.00    +0.000 C 
ATOM     21  C   UNL     1       1.719  11.111  19.462  0.00  0.00    +0.000 C 
ATOM     22  N   UNL     1       0.271  11.218  19.685  0.00  0.00    +0.000 NA
ATOM     23  C   UNL     1      -0.403   9.928  19.421  0.00  0.00    +0.000 C 
ATOM     24  C   UNL     1      -0.094   9.352  18.031  0.00  0.00    +0.000 C 
BRANCH  22  25
ATOM     25  C   UNL     1      -0.022  11.653  21.072  0.00  0.00    +0.000 C 
BRANCH  25  26
ATOM     26  C   UNL     1      -1.455  12.090  21.321  0.00  0.00    +0.000 A 
ATOM     27  C   UNL     1      -2.236  12.606  20.273  0.00  0.00    +0.000 A 
ATOM     28  C   UNL     1      -3.548  13.052  20.517  0.00  0.00    +0.000 A 
ATOM     29  C   UNL     1      -4.085  12.989  21.800  0.00  0.00    +0.000 A 
ATOM     30  C   UNL     1      -3.320  12.475  22.857  0.00  0.00    +0.000 A 
ATOM     31  C   UNL     1      -3.877  12.388  24.247  0.00  0.00    +0.000 C 
ATOM     32  C   UNL     1      -2.011  12.039  22.606  0.00  0.00    +0.000 A 
ENDBRANCH  25  26
ENDBRANCH  22  25
ENDBRANCH  18  19
ENDBRANCH  17  18
ENDBRANCH   1  17
TORSDOF 10
ENDMDL
