MODEL 1
REMARK VINA RESULT:      -7.5      0.000      0.000
REMARK  Name = 
REMARK  6 active torsions:
REMARK  status: ('A' for Active; 'I' for Inactive)
REMARK    1  A    between atoms: C_1  and  C_2
REMARK    2  A    between atoms: C_5  and  C_6
REMARK    3  A    between atoms: C_8  and  C_9
REMARK    4  A    between atoms: C_12  and  N_13
REMARK    5  A    between atoms: N_16  and  C_17
REMARK    6  A    between atoms: C_17  and  C_18
REMARK                            x       y       z     vdW  Elec       q    Type
REMARK                         _______ _______ _______ _____ _____    ______ ____
ROOT
ATOM      1  C   UNL     1       4.714   5.062  16.774  0.00  0.00    +0.000 A 
ATOM      2  N   UNL     1       4.595   3.984  17.626  0.00  0.00    +0.000 NA
ATOM      3  C   UNL     1       3.797   4.094  18.720  0.00  0.00    +0.000 A 
ATOM      4  C   UNL     1       3.834   2.984  19.728  0.00  0.00    +0.000 C 
ATOM      5  C   UNL     1       3.123   5.262  18.956  0.00  0.00    +0.000 A 
ATOM      6  C   UNL     1       3.361   6.363  18.163  0.00  0.00    +0.000 A 
ATOM      7  C   UNL     1       4.130   6.318  17.016  0.00  0.00    +0.000 A 
ATOM      8  C   UNL     1       2.819   7.517  18.893  0.00  0.00    +0.000 C 
ATOM      9  O   UNL     1       2.879   8.661  18.493  0.00  0.00    +0.000 OA
ATOM     10  N   UNL     1       2.299   7.043  20.064  0.00  0.00    +0.000 N 
ATOM     11  C   UNL     1       2.202   5.685  19.998  0.00  0.00    +0.000 C 
ATOM     12  O   UNL     1       1.441   4.938  20.584  0.00  0.00    +0.000 OA
ENDROOT
BRANCH   1  17
ATOM     13  C   UNL     1       6.825   3.778  12.522  0.00  0.00    +0.000 C 
ATOM     14  C   UNL     1       6.585   4.375  13.850  0.00  0.00    +0.000 A 
ATOM     15  N   UNL     1       7.428   5.244  14.422  0.00  0.00    +0.000 NA
ATOM     16  O   UNL     1       6.774   5.578  15.615  0.00  0.00    +0.000 OA
ATOM     17  C   UNL     1       5.608   4.865  15.634  0.00  0.00    +0.000 A 
ATOM     18  N   UNL     1       5.453   4.098  14.570  0.00  0.00    +0.000 NA
ENDBRANCH   1  17
BRANCH   7  19
ATOM     19  N   UNL     1       4.084   7.356  16.074  0.00  0.00    +0.000 N 
ATOM     20  H   UNL     1       3.396   7.229  15.330  0.00  0.00    +0.000 HD
ATOM     21  H   UNL     1       4.075   8.295  16.478  0.00  0.00    +0.000 HD
ENDBRANCH   7  19
BRANCH  10  22
ATOM     22  C   UNL     1       1.715   7.875  21.100  0.00  0.00    +0.000 C 
BRANCH  22  23
ATOM     23  C   UNL     1       0.325   8.527  20.821  0.00  0.00    +0.000 C 
ATOM     24  C   UNL     1       0.351   9.898  20.137  0.00  0.00    +0.000 C 
ATOM     25  C   UNL     1       0.677  11.039  21.095  0.00  0.00    +0.000 C 
ATOM     26  N   UNL     1      -0.169  11.086  22.283  0.00  0.00    +0.000 NA
ATOM     27  C   UNL     1      -0.410   9.804  22.938  0.00  0.00    +0.000 C 
ATOM     28  C   UNL     1      -0.639   8.612  22.010  0.00  0.00    +0.000 C 
ATOM     29  H   UNL     1      -1.065  11.510  22.047  0.00  0.00    +0.000 HD
ENDBRANCH  22  23
ENDBRANCH  10  22
TORSDOF 4
ENDMDL
MODEL 2
REMARK VINA RESULT:      -7.5      2.898      8.731
REMARK  Name = 
REMARK  6 active torsions:
REMARK  status: ('A' for Active; 'I' for Inactive)
REMARK    1  A    between atoms: C_1  and  C_2
REMARK    2  A    between atoms: C_5  and  C_6
REMARK    3  A    between atoms: C_8  and  C_9
REMARK    4  A    between atoms: C_12  and  N_13
REMARK    5  A    between atoms: N_16  and  C_17
REMARK    6  A    between atoms: C_17  and  C_18
REMARK                            x       y       z     vdW  Elec       q    Type
REMARK                         _______ _______ _______ _____ _____    ______ ____
ROOT
ATOM      1  C   UNL     1       0.070  10.604  20.680  0.00  0.00    +0.000 A 
ATOM      2  N   UNL     1       0.716  11.302  19.681  0.00  0.00    +0.000 NA
ATOM      3  C   UNL     1       1.516  10.624  18.816  0.00  0.00    +0.000 A 
ATOM      4  C   UNL     1       2.353  11.425  17.863  0.00  0.00    +0.000 C 
ATOM      5  C   UNL     1       1.663   9.269  18.944  0.00  0.00    +0.000 A 
ATOM      6  C   UNL     1       1.112   8.619  20.027  0.00  0.00    +0.000 A 
ATOM      7  C   UNL     1       0.260   9.233  20.925  0.00  0.00    +0.000 A 
ATOM      8  C   UNL     1       1.764   7.304  20.089  0.00  0.00    +0.000 C 
ATOM      9  O   UNL     1       1.535   6.474  20.944  0.00  0.00    +0.000 OA
ATOM     10  N   UNL     1       2.657   7.250  19.056  0.00  0.00    +0.000 N 
ATOM     11  C   UNL     1       2.410   8.275  18.192  0.00  0.00    +0.000 C 
ATOM     12  O   UNL     1       2.645   8.351  17.000  0.00  0.00    +0.000 OA
ENDROOT
BRANCH   1  17
ATOM     13  C   UNL     1      -3.336  13.493  22.737  0.00  0.00    +0.000 C 
ATOM     14  C   UNL     1      -2.157  12.628  22.541  0.00  0.00    +0.000 A 
ATOM     15  N   UNL     1      -1.395  12.194  23.553  0.00  0.00    +0.000 NA
ATOM     16  O   UNL     1      -0.456  11.376  22.912  0.00  0.00    +0.000 OA
ATOM     17  C   UNL     1      -0.753  11.413  21.578  0.00  0.00    +0.000 A 
ATOM     18  N   UNL     1      -1.789  12.183  21.300  0.00  0.00    +0.000 NA
ENDBRANCH   1  17
BRANCH   7  19
ATOM     19  N   UNL     1      -0.525   8.477  21.807  0.00  0.00    +0.000 N 
ATOM     20  H   UNL     1      -1.521   8.456  21.583  0.00  0.00    +0.000 HD
ATOM     21  H   UNL     1      -0.143   7.558  22.035  0.00  0.00    +0.000 HD
ENDBRANCH   7  19
BRANCH  10  22
ATOM     22  C   UNL     1       3.549   6.134  18.799  0.00  0.00    +0.000 C 
BRANCH  22  23
ATOM     23  C   UNL     1       3.128   5.091  17.717  0.00  0.00    +0.000 C 
ATOM     24  C   UNL     1       1.695   4.559  17.819  0.00  0.00    +0.000 C 
ATOM     25  C   UNL     1       1.529   3.489  18.893  0.00  0.00    +0.000 C 
ATOM     26  N   UNL     1       2.470   2.380  18.786  0.00  0.00    +0.000 NA
ATOM     27  C   UNL     1       3.856   2.752  18.520  0.00  0.00    +0.000 C 
ATOM     28  C   UNL     1       4.064   3.892  17.525  0.00  0.00    +0.000 C 
ATOM     29  H   UNL     1       2.157   1.734  18.063  0.00  0.00    +0.000 HD
ENDBRANCH  22  23
ENDBRANCH  10  22
TORSDOF 4
ENDMDL
MODEL 3
REMARK VINA RESULT:      -7.4      2.715      9.065
REMARK  Name = 
REMARK  6 active torsions:
REMARK  status: ('A' for Active; 'I' for Inactive)
REMARK    1  A    between atoms: C_1  and  C_2
REMARK    2  A    between atoms: C_5  and  C_6
REMARK    3  A    between atoms: C_8  and  C_9
REMARK    4  A    between atoms: C_12  and  N_13
REMARK    5  A    between atoms: N_16  and  C_17
REMARK    6  A    between atoms: C_17  and  C_18
REMARK                            x       y       z     vdW  Elec       q    Type
REMARK                         _______ _______ _______ _____ _____    ______ ____
ROOT
ATOM      1  C   UNL     1       0.005  11.194  21.079  0.00  0.00    +0.000 A 
ATOM      2  N   UNL     1       0.611  11.851  20.030  0.00  0.00    +0.000 NA
ATOM      3  C   UNL     1       1.308  11.128  19.114  0.00  0.00    +0.000 A 
ATOM      4  C   UNL     1       2.114  11.878  18.096  0.00  0.00    +0.000 C 
ATOM      5  C   UNL     1       1.392   9.767  19.243  0.00  0.00    +0.000 A 
ATOM      6  C   UNL     1       0.888   9.153  20.368  0.00  0.00    +0.000 A 
ATOM      7  C   UNL     1       0.139   9.816  21.322  0.00  0.00    +0.000 A 
ATOM      8  C   UNL     1       1.473   7.805  20.394  0.00  0.00    +0.000 C 
ATOM      9  O   UNL     1       1.263   6.992  21.271  0.00  0.00    +0.000 OA
ATOM     10  N   UNL     1       2.282   7.698  19.299  0.00  0.00    +0.000 N 
ATOM     11  C   UNL     1       2.028   8.731  18.447  0.00  0.00    +0.000 C 
ATOM     12  O   UNL     1       2.178   8.789  17.240  0.00  0.00    +0.000 OA
ENDROOT
BRANCH   1  17
ATOM     13  C   UNL     1      -3.273  13.349  24.045  0.00  0.00    +0.000 C 
ATOM     14  C   UNL     1      -2.029  13.029  23.320  0.00  0.00    +0.000 A 
ATOM     15  N   UNL     1      -0.864  13.645  23.563  0.00  0.00    +0.000 NA
ATOM     16  O   UNL     1       0.025  12.987  22.703  0.00  0.00    +0.000 OA
ATOM     17  C   UNL     1      -0.706  12.050  22.029  0.00  0.00    +0.000 A 
ATOM     18  N   UNL     1      -1.982  12.046  22.368  0.00  0.00    +0.000 NA
ENDBRANCH   1  17
BRANCH   7  19
ATOM     19  N   UNL     1      -0.619   9.107  22.265  0.00  0.00    +0.000 N 
ATOM     20  H   UNL     1      -0.500   8.093  22.235  0.00  0.00    +0.000 HD
ATOM     21  H   UNL     1      -0.585   9.491  23.211  0.00  0.00    +0.000 HD
ENDBRANCH   7  19
BRANCH  10  22
ATOM     22  C   UNL     1       3.093   6.534  18.987  0.00  0.00    +0.000 C 
BRANCH  22  23
ATOM     23  C   UNL     1       2.398   5.138  18.975  0.00  0.00    +0.000 C 
ATOM     24  C   UNL     1       2.934   4.111  19.978  0.00  0.00    +0.000 C 
ATOM     25  C   UNL     1       4.232   3.453  19.524  0.00  0.00    +0.000 C 
ATOM     26  N   UNL     1       4.174   2.867  18.189  0.00  0.00    +0.000 NA
ATOM     27  C   UNL     1       3.528   3.686  17.168  0.00  0.00    +0.000 C 
ATOM     28  C   UNL     1       2.280   4.447  17.611  0.00  0.00    +0.000 C 
ATOM     29  H   UNL     1       3.704   1.964  18.233  0.00  0.00    +0.000 HD
ENDBRANCH  22  23
ENDBRANCH  10  22
TORSDOF 4
ENDMDL
MODEL 4
REMARK VINA RESULT:      -7.2      2.773      8.342
REMARK  Name = 
REMARK  6 active torsions:
REMARK  status: ('A' for Active; 'I' for Inactive)
REMARK    1  A    between atoms: C_1  and  C_2
REMARK    2  A    between atoms: C_5  and  C_6
REMARK    3  A    between atoms: C_8  and  C_9
REMARK    4  A    between atoms: C_12  and  N_13
REMARK    5  A    between atoms: N_16  and  C_17
REMARK    6  A    between atoms: C_17  and  C_18
REMARK                            x       y       z     vdW  Elec       q    Type
REMARK                         _______ _______ _______ _____ _____    ______ ____
ROOT
ATOM      1  C   UNL     1       0.415  11.622  19.838  0.00  0.00    +0.000 A 
ATOM      2  N   UNL     1      -0.126  10.907  20.886  0.00  0.00    +0.000 NA
ATOM      3  C   UNL     1       0.236   9.608  21.054  0.00  0.00    +0.000 A 
ATOM      4  C   UNL     1      -0.505   8.801  22.077  0.00  0.00    +0.000 C 
ATOM      5  C   UNL     1       1.129   9.034  20.188  0.00  0.00    +0.000 A 
ATOM      6  C   UNL     1       1.551   9.730  19.077  0.00  0.00    +0.000 A 
ATOM      7  C   UNL     1       1.255  11.061  18.860  0.00  0.00    +0.000 A 
ATOM      8  C   UNL     1       2.153   8.736  18.178  0.00  0.00    +0.000 C 
ATOM      9  O   UNL     1       2.610   9.000  17.085  0.00  0.00    +0.000 OA
ATOM     10  N   UNL     1       2.053   7.522  18.796  0.00  0.00    +0.000 N 
ATOM     11  C   UNL     1       1.719   7.708  20.105  0.00  0.00    +0.000 C 
ATOM     12  O   UNL     1       1.944   6.996  21.066  0.00  0.00    +0.000 OA
ENDROOT
BRANCH   1  17
ATOM     13  C   UNL     1      -0.354  16.310  18.567  0.00  0.00    +0.000 C 
ATOM     14  C   UNL     1      -0.444  15.004  19.247  0.00  0.00    +0.000 A 
ATOM     15  N   UNL     1      -1.380  14.721  20.162  0.00  0.00    +0.000 NA
ATOM     16  O   UNL     1      -1.119  13.381  20.476  0.00  0.00    +0.000 OA
ATOM     17  C   UNL     1      -0.045  13.005  19.719  0.00  0.00    +0.000 A 
ATOM     18  N   UNL     1       0.414  13.978  18.952  0.00  0.00    +0.000 NA
ENDBRANCH   1  17
BRANCH   7  19
ATOM     19  N   UNL     1       1.958  11.811  17.906  0.00  0.00    +0.000 N 
ATOM     20  H   UNL     1       1.647  11.678  16.942  0.00  0.00    +0.000 HD
ATOM     21  H   UNL     1       2.095  12.793  18.154  0.00  0.00    +0.000 HD
ENDBRANCH   7  19
BRANCH  10  22
ATOM     22  C   UNL     1       2.482   6.264  18.212  0.00  0.00    +0.000 C 
BRANCH  22  23
ATOM     23  C   UNL     1       4.013   5.972  18.141  0.00  0.00    +0.000 C 
ATOM     24  C   UNL     1       4.506   5.272  16.871  0.00  0.00    +0.000 C 
ATOM     25  C   UNL     1       4.235   3.772  16.871  0.00  0.00    +0.000 C 
ATOM     26  N   UNL     1       4.727   3.072  18.053  0.00  0.00    +0.000 NA
ATOM     27  C   UNL     1       4.465   3.728  19.330  0.00  0.00    +0.000 C 
ATOM     28  C   UNL     1       4.625   5.247  19.346  0.00  0.00    +0.000 C 
ATOM     29  H   UNL     1       5.730   2.914  17.963  0.00  0.00    +0.000 HD
ENDBRANCH  22  23
ENDBRANCH  10  22
TORSDOF 4
ENDMDL
MODEL 5
REMARK VINA RESULT:      -7.2      1.776      7.755
REMARK  Name = 
REMARK  6 active torsions:
REMARK  status: ('A' for Active; 'I' for Inactive)
REMARK    1  A    between atoms: C_1  and  C_2
REMARK    2  A    between atoms: C_5  and  C_6
REMARK    3  A    between atoms: C_8  and  C_9
REMARK    4  A    between atoms: C_12  and  N_13
REMARK    5  A    between atoms: N_16  and  C_17
REMARK    6  A    between atoms: C_17  and  C_18
REMARK                            x       y       z     vdW  Elec       q    Type
REMARK                         _______ _______ _______ _____ _____    ______ ____
ROOT
ATOM      1  C   UNL     1       1.597   7.591  20.470  0.00  0.00    +0.000 A 
ATOM      2  N   UNL     1       1.371   6.384  21.096  0.00  0.00    +0.000 NA
ATOM      3  C   UNL     1       1.968   5.266  20.606  0.00  0.00    +0.000 A 
ATOM      4  C   UNL     1       1.559   3.943  21.182  0.00  0.00    +0.000 C 
ATOM      5  C   UNL     1       2.783   5.355  19.508  0.00  0.00    +0.000 A 
ATOM      6  C   UNL     1       2.886   6.547  18.827  0.00  0.00    +0.000 A 
ATOM      7  C   UNL     1       2.338   7.731  19.284  0.00  0.00    +0.000 A 
ATOM      8  C   UNL     1       3.482   6.222  17.524  0.00  0.00    +0.000 C 
ATOM      9  O   UNL     1       3.694   7.040  16.652  0.00  0.00    +0.000 OA
ATOM     10  N   UNL     1       3.693   4.873  17.504  0.00  0.00    +0.000 N 
ATOM     11  C   UNL     1       3.562   4.377  18.768  0.00  0.00    +0.000 C 
ATOM     12  O   UNL     1       4.064   3.385  19.261  0.00  0.00    +0.000 OA
ENDROOT
BRANCH   1  17
ATOM     13  C   UNL     1      -1.226  11.519  21.358  0.00  0.00    +0.000 C 
ATOM     14  C   UNL     1      -0.271  10.407  21.523  0.00  0.00    +0.000 A 
ATOM     15  N   UNL     1       0.259  10.069  22.706  0.00  0.00    +0.000 NA
ATOM     16  O   UNL     1       1.039   8.949  22.393  0.00  0.00    +0.000 OA
ATOM     17  C   UNL     1       0.900   8.738  21.050  0.00  0.00    +0.000 A 
ATOM     18  N   UNL     1       0.109   9.621  20.467  0.00  0.00    +0.000 NA
ENDBRANCH   1  17
BRANCH   7  19
ATOM     19  N   UNL     1       2.732   8.964  18.745  0.00  0.00    +0.000 N 
ATOM     20  H   UNL     1       3.188   9.594  19.406  0.00  0.00    +0.000 HD
ATOM     21  H   UNL     1       3.216   8.900  17.847  0.00  0.00    +0.000 HD
ENDBRANCH   7  19
BRANCH  10  22
ATOM     22  C   UNL     1       4.219   4.139  16.367  0.00  0.00    +0.000 C 
BRANCH  22  23
ATOM     23  C   UNL     1       5.723   3.725  16.393  0.00  0.00    +0.000 C 
ATOM     24  C   UNL     1       6.635   4.560  17.299  0.00  0.00    +0.000 C 
ATOM     25  C   UNL     1       7.029   5.898  16.682  0.00  0.00    +0.000 C 
ATOM     26  N   UNL     1       7.606   5.796  15.346  0.00  0.00    +0.000 NA
ATOM     27  C   UNL     1       6.918   4.892  14.428  0.00  0.00    +0.000 C 
ATOM     28  C   UNL     1       6.415   3.582  15.032  0.00  0.00    +0.000 C 
ATOM     29  H   UNL     1       8.583   5.514  15.416  0.00  0.00    +0.000 HD
ENDBRANCH  22  23
ENDBRANCH  10  22
TORSDOF 4
ENDMDL
MODEL 6
REMARK VINA RESULT:      -6.9      0.984      1.361
REMARK  Name = 
REMARK  6 active torsions:
REMARK  status: ('A' for Active; 'I' for Inactive)
REMARK    1  A    between atoms: C_1  and  C_2
REMARK    2  A    between atoms: C_5  and  C_6
REMARK    3  A    between atoms: C_8  and  C_9
REMARK    4  A    between atoms: C_12  and  N_13
REMARK    5  A    between atoms: N_16  and  C_17
REMARK    6  A    between atoms: C_17  and  C_18
REMARK                            x       y       z     vdW  Elec       q    Type
REMARK                         _______ _______ _______ _____ _____    ______ ____
ROOT
ATOM      1  C   UNL     1       4.662   4.982  17.433  0.00  0.00    +0.000 A 
ATOM      2  N   UNL     1       4.508   3.914  18.292  0.00  0.00    +0.000 NA
ATOM      3  C   UNL     1       3.549   3.975  19.253  0.00  0.00    +0.000 A 
ATOM      4  C   UNL     1       3.527   2.892  20.290  0.00  0.00    +0.000 C 
ATOM      5  C   UNL     1       2.753   5.085  19.350  0.00  0.00    +0.000 A 
ATOM      6  C   UNL     1       3.014   6.186  18.566  0.00  0.00    +0.000 A 
ATOM      7  C   UNL     1       3.947   6.186  17.547  0.00  0.00    +0.000 A 
ATOM      8  C   UNL     1       2.275   7.303  19.172  0.00  0.00    +0.000 C 
ATOM      9  O   UNL     1       2.299   8.440  18.749  0.00  0.00    +0.000 OA
ATOM     10  N   UNL     1       1.628   6.808  20.268  0.00  0.00    +0.000 N 
ATOM     11  C   UNL     1       1.655   5.445  20.232  0.00  0.00    +0.000 C 
ATOM     12  O   UNL     1       0.879   4.646  20.723  0.00  0.00    +0.000 OA
ENDROOT
BRANCH   1  17
ATOM     13  C   UNL     1       7.432   4.896  13.371  0.00  0.00    +0.000 C 
ATOM     14  C   UNL     1       6.986   4.778  14.772  0.00  0.00    +0.000 A 
ATOM     15  N   UNL     1       7.821   4.504  15.783  0.00  0.00    +0.000 NA
ATOM     16  O   UNL     1       6.984   4.551  16.904  0.00  0.00    +0.000 OA
ATOM     17  C   UNL     1       5.730   4.841  16.444  0.00  0.00    +0.000 A 
ATOM     18  N   UNL     1       5.680   4.979  15.132  0.00  0.00    +0.000 NA
ENDBRANCH   1  17
BRANCH   7  19
ATOM     19  N   UNL     1       3.955   7.198  16.576  0.00  0.00    +0.000 N 
ATOM     20  H   UNL     1       3.056   7.364  16.123  0.00  0.00    +0.000 HD
ATOM     21  H   UNL     1       4.428   8.058  16.863  0.00  0.00    +0.000 HD
ENDBRANCH   7  19
BRANCH  10  22
ATOM     22  C   UNL     1       0.828   7.606  21.180  0.00  0.00    +0.000 C 
BRANCH  22  23
ATOM     23  C   UNL     1       1.403   8.977  21.653  0.00  0.00    +0.000 C 
ATOM     24  C   UNL     1       1.409   9.218  23.166  0.00  0.00    +0.000 C 
ATOM     25  C   UNL     1       0.043   9.619  23.713  0.00  0.00    +0.000 C 
ATOM     26  N   UNL     1      -0.571  10.750  23.027  0.00  0.00    +0.000 NA
ATOM     27  C   UNL     1      -0.495  10.722  21.569  0.00  0.00    +0.000 C 
ATOM     28  C   UNL     1       0.825  10.227  20.979  0.00  0.00    +0.000 C 
ATOM     29  H   UNL     1      -0.156  11.619  23.362  0.00  0.00    +0.000 HD
ENDBRANCH  22  23
ENDBRANCH  10  22
TORSDOF 4
ENDMDL
MODEL 7
REMARK VINA RESULT:      -6.9      3.148      7.995
REMARK  Name = 
REMARK  6 active torsions:
REMARK  status: ('A' for Active; 'I' for Inactive)
REMARK    1  A    between atoms: C_1  and  C_2
REMARK    2  A    between atoms: C_5  and  C_6
REMARK    3  A    between atoms: C_8  and  C_9
REMARK    4  A    between atoms: C_12  and  N_13
REMARK    5  A    between atoms: N_16  and  C_17
REMARK    6  A    between atoms: C_17  and  C_18
REMARK                            x       y       z     vdW  Elec       q    Type
REMARK                         _______ _______ _______ _____ _____    ______ ____
ROOT
ATOM      1  C   UNL     1       0.557  11.004  19.705  0.00  0.00    +0.000 A 
ATOM      2  N   UNL     1      -0.011  10.313  20.755  0.00  0.00    +0.000 NA
ATOM      3  C   UNL     1       0.370   9.028  20.980  0.00  0.00    +0.000 A 
ATOM      4  C   UNL     1      -0.395   8.240  22.001  0.00  0.00    +0.000 C 
ATOM      5  C   UNL     1       1.307   8.444  20.170  0.00  0.00    +0.000 A 
ATOM      6  C   UNL     1       1.759   9.112  19.053  0.00  0.00    +0.000 A 
ATOM      7  C   UNL     1       1.446  10.430  18.780  0.00  0.00    +0.000 A 
ATOM      8  C   UNL     1       2.416   8.102  18.212  0.00  0.00    +0.000 C 
ATOM      9  O   UNL     1       2.910   8.340  17.129  0.00  0.00    +0.000 OA
ATOM     10  N   UNL     1       2.315   6.908  18.866  0.00  0.00    +0.000 N 
ATOM     11  C   UNL     1       1.926   7.129  20.154  0.00  0.00    +0.000 C 
ATOM     12  O   UNL     1       2.126   6.454  21.146  0.00  0.00    +0.000 OA
ENDROOT
BRANCH   1  17
ATOM     13  C   UNL     1      -0.076  15.723  18.475  0.00  0.00    +0.000 C 
ATOM     14  C   UNL     1      -0.282  14.378  19.045  0.00  0.00    +0.000 A 
ATOM     15  N   UNL     1      -1.420  14.008  19.647  0.00  0.00    +0.000 NA
ATOM     16  O   UNL     1      -1.185  12.664  19.963  0.00  0.00    +0.000 OA
ATOM     17  C   UNL     1       0.076  12.373  19.523  0.00  0.00    +0.000 A 
ATOM     18  N   UNL     1       0.677  13.404  18.959  0.00  0.00    +0.000 NA
ENDBRANCH   1  17
BRANCH   7  19
ATOM     19  N   UNL     1       2.171  11.162  17.830  0.00  0.00    +0.000 N 
ATOM     20  H   UNL     1       2.119  10.797  16.877  0.00  0.00    +0.000 HD
ATOM     21  H   UNL     1       2.040  12.174  17.883  0.00  0.00    +0.000 HD
ENDBRANCH   7  19
BRANCH  10  22
ATOM     22  C   UNL     1       2.791   5.640  18.342  0.00  0.00    +0.000 C 
BRANCH  22  23
ATOM     23  C   UNL     1       1.738   4.530  18.037  0.00  0.00    +0.000 C 
ATOM     24  C   UNL     1       1.109   3.847  19.255  0.00  0.00    +0.000 C 
ATOM     25  C   UNL     1       2.014   2.794  19.884  0.00  0.00    +0.000 C 
ATOM     26  N   UNL     1       2.512   1.792  18.947  0.00  0.00    +0.000 NA
ATOM     27  C   UNL     1       2.990   2.306  17.668  0.00  0.00    +0.000 C 
ATOM     28  C   UNL     1       2.167   3.436  17.052  0.00  0.00    +0.000 C 
ATOM     29  H   UNL     1       1.786   1.097  18.774  0.00  0.00    +0.000 HD
ENDBRANCH  22  23
ENDBRANCH  10  22
TORSDOF 4
ENDMDL
MODEL 8
REMARK VINA RESULT:      -6.7      6.588     10.535
REMARK  Name = 
REMARK  6 active torsions:
REMARK  status: ('A' for Active; 'I' for Inactive)
REMARK    1  A    between atoms: C_1  and  C_2
REMARK    2  A    between atoms: C_5  and  C_6
REMARK    3  A    between atoms: C_8  and  C_9
REMARK    4  A    between atoms: C_12  and  N_13
REMARK    5  A    between atoms: N_16  and  C_17
REMARK    6  A    between atoms: C_17  and  C_18
REMARK                            x       y       z     vdW  Elec       q    Type
REMARK                         _______ _______ _______ _____ _____    ______ ____
ROOT
ATOM      1  C   UNL     1      -1.091  13.361  22.673  0.00  0.00    +0.000 A 
ATOM      2  N   UNL     1      -0.926  12.124  23.258  0.00  0.00    +0.000 NA
ATOM      3  C   UNL     1      -0.625  11.057  22.472  0.00  0.00    +0.000 A 
ATOM      4  C   UNL     1      -0.639   9.697  23.101  0.00  0.00    +0.000 C 
ATOM      5  C   UNL     1      -0.485  11.227  21.120  0.00  0.00    +0.000 A 
ATOM      6  C   UNL     1      -0.783  12.444  20.548  0.00  0.00    +0.000 A 
ATOM      7  C   UNL     1      -1.061  13.580  21.284  0.00  0.00    +0.000 A 
ATOM      8  C   UNL     1      -0.922  12.194  19.107  0.00  0.00    +0.000 C 
ATOM      9  O   UNL     1      -1.211  13.049  18.295  0.00  0.00    +0.000 OA
ATOM     10  N   UNL     1      -0.706  10.860  18.908  0.00  0.00    +0.000 N 
ATOM     11  C   UNL     1      -0.159  10.319  20.033  0.00  0.00    +0.000 C 
ATOM     12  O   UNL     1       0.557   9.342  20.148  0.00  0.00    +0.000 OA
ENDROOT
BRANCH   1  17
ATOM     13  C   UNL     1      -1.166  16.823  26.165  0.00  0.00    +0.000 C 
ATOM     14  C   UNL     1      -1.556  15.948  25.042  0.00  0.00    +0.000 A 
ATOM     15  N   UNL     1      -2.683  16.120  24.341  0.00  0.00    +0.000 NA
ATOM     16  O   UNL     1      -2.602  15.121  23.363  0.00  0.00    +0.000 OA
ATOM     17  C   UNL     1      -1.434  14.448  23.589  0.00  0.00    +0.000 A 
ATOM     18  N   UNL     1      -0.759  14.916  24.623  0.00  0.00    +0.000 NA
ENDBRANCH   1  17
BRANCH   7  19
ATOM     19  N   UNL     1      -1.038  14.849  20.690  0.00  0.00    +0.000 N 
ATOM     20  H   UNL     1      -0.365  14.953  19.929  0.00  0.00    +0.000 HD
ATOM     21  H   UNL     1      -1.959  15.233  20.471  0.00  0.00    +0.000 HD
ENDBRANCH   7  19
BRANCH  10  22
ATOM     22  C   UNL     1      -0.807  10.194  17.622  0.00  0.00    +0.000 C 
BRANCH  22  23
ATOM     23  C   UNL     1      -2.188   9.594  17.213  0.00  0.00    +0.000 C 
ATOM     24  C   UNL     1      -2.599   9.788  15.750  0.00  0.00    +0.000 C 
ATOM     25  C   UNL     1      -3.137  11.185  15.460  0.00  0.00    +0.000 C 
ATOM     26  N   UNL     1      -4.216  11.609  16.345  0.00  0.00    +0.000 NA
ATOM     27  C   UNL     1      -4.018  11.326  17.763  0.00  0.00    +0.000 C 
ATOM     28  C   UNL     1      -3.384   9.975  18.093  0.00  0.00    +0.000 C 
ATOM     29  H   UNL     1      -5.092  11.184  16.043  0.00  0.00    +0.000 HD
ENDBRANCH  22  23
ENDBRANCH  10  22
TORSDOF 4
ENDMDL
MODEL 9
REMARK VINA RESULT:      -6.7      3.325      6.092
REMARK  Name = 
REMARK  6 active torsions:
REMARK  status: ('A' for Active; 'I' for Inactive)
REMARK    1  A    between atoms: C_1  and  C_2
REMARK    2  A    between atoms: C_5  and  C_6
REMARK    3  A    between atoms: C_8  and  C_9
REMARK    4  A    between atoms: C_12  and  N_13
REMARK    5  A    between atoms: N_16  and  C_17
REMARK    6  A    between atoms: C_17  and  C_18
REMARK                            x       y       z     vdW  Elec       q    Type
REMARK                         _______ _______ _______ _____ _____    ______ ____
ROOT
ATOM      1  C   UNL     1       1.805   7.518  20.021  0.00  0.00    +0.000 A 
ATOM      2  N   UNL     1       1.132   7.816  21.187  0.00  0.00    +0.000 NA
ATOM      3  C   UNL     1       0.540   9.033  21.314  0.00  0.00    +0.000 A 
ATOM      4  C   UNL     1      -0.017   9.404  22.655  0.00  0.00    +0.000 C 
ATOM      5  C   UNL     1       0.617   9.936  20.287  0.00  0.00    +0.000 A 
ATOM      6  C   UNL     1       1.404   9.662  19.190  0.00  0.00    +0.000 A 
ATOM      7  C   UNL     1       2.004   8.436  18.976  0.00  0.00    +0.000 A 
ATOM      8  C   UNL     1       1.591  10.942  18.493  0.00  0.00    +0.000 C 
ATOM      9  O   UNL     1       2.259  11.075  17.489  0.00  0.00    +0.000 OA
ATOM     10  N   UNL     1       0.916  11.891  19.207  0.00  0.00    +0.000 N 
ATOM     11  C   UNL     1       0.093  11.279  20.105  0.00  0.00    +0.000 C 
ATOM     12  O   UNL     1      -0.943  11.684  20.600  0.00  0.00    +0.000 OA
ENDROOT
BRANCH   1  17
ATOM     13  C   UNL     1       4.722   3.632  19.262  0.00  0.00    +0.000 C 
ATOM     14  C   UNL     1       3.608   4.488  19.711  0.00  0.00    +0.000 A 
ATOM     15  N   UNL     1       2.656   4.064  20.553  0.00  0.00    +0.000 NA
ATOM     16  O   UNL     1       1.867   5.207  20.737  0.00  0.00    +0.000 OA
ATOM     17  C   UNL     1       2.428   6.195  19.978  0.00  0.00    +0.000 A 
ATOM     18  N   UNL     1       3.499   5.795  19.317  0.00  0.00    +0.000 NA
ENDBRANCH   1  17
BRANCH   7  19
ATOM     19  N   UNL     1       2.516   8.094  17.717  0.00  0.00    +0.000 N 
ATOM     20  H   UNL     1       2.918   7.156  17.658  0.00  0.00    +0.000 HD
ATOM     21  H   UNL     1       1.902   8.320  16.933  0.00  0.00    +0.000 HD
ENDBRANCH   7  19
BRANCH  10  22
ATOM     22  C   UNL     1       0.898  13.306  18.882  0.00  0.00    +0.000 C 
BRANCH  22  23
ATOM     23  C   UNL     1       1.953  14.230  19.564  0.00  0.00    +0.000 C 
ATOM     24  C   UNL     1       1.521  15.680  19.805  0.00  0.00    +0.000 C 
ATOM     25  C   UNL     1       1.598  16.543  18.551  0.00  0.00    +0.000 C 
ATOM     26  N   UNL     1       2.893  16.510  17.877  0.00  0.00    +0.000 NA
ATOM     27  C   UNL     1       3.495  15.188  17.733  0.00  0.00    +0.000 C 
ATOM     28  C   UNL     1       3.349  14.253  18.932  0.00  0.00    +0.000 C 
ATOM     29  H   UNL     1       3.547  17.120  18.365  0.00  0.00    +0.000 HD
ENDBRANCH  22  23
ENDBRANCH  10  22
TORSDOF 4
ENDMDL
