MODEL 1
REMARK VINA RESULT:      -7.8      0.000      0.000
REMARK  Name = 
REMARK  5 active torsions:
REMARK  status: ('A' for Active; 'I' for Inactive)
REMARK    1  A    between atoms: C_1  and  O_2
REMARK    2  A    between atoms: O_2  and  C_3
REMARK    3  A    between atoms: C_6  and  C_7
REMARK    4  A    between atoms: C_20  and  O_21
REMARK    5  A    between atoms: O_21  and  C_22
REMARK                            x       y       z     vdW  Elec       q    Type
REMARK                         _______ _______ _______ _____ _____    ______ ____
ROOT
ATOM      1  C   UNL     1       3.074   6.387  18.114  0.00  0.00    +0.000 A 
ATOM      2  N   UNL     1       4.355   6.817  17.934  0.00  0.00    +0.000 NA
ATOM      3  C   UNL     1       5.272   6.050  17.309  0.00  0.00    +0.000 A 
ATOM      4  C   UNL     1       6.575   6.510  17.219  0.00  0.00    +0.000 A 
ATOM      5  C   UNL     1       7.557   5.808  16.518  0.00  0.00    +0.000 A 
ATOM      6  C   UNL     1       7.243   4.600  15.909  0.00  0.00    +0.000 A 
ATOM      7  C   UNL     1       5.965   4.065  16.077  0.00  0.00    +0.000 A 
ATOM      8  C   UNL     1       4.989   4.781  16.798  0.00  0.00    +0.000 A 
ATOM      9  C   UNL     1       3.716   4.309  17.126  0.00  0.00    +0.000 A 
ATOM     10  C   UNL     1       2.725   5.088  17.760  0.00  0.00    +0.000 A 
ATOM     11  C   UNL     1       1.715   4.197  18.345  0.00  0.00    +0.000 A 
ATOM     12  C   UNL     1       0.816   4.544  19.331  0.00  0.00    +0.000 A 
ATOM     13  C   UNL     1       1.014   3.945  20.566  0.00  0.00    +0.000 A 
ATOM     14  C   UNL     1       1.883   2.853  20.690  0.00  0.00    +0.000 A 
ATOM     15  C   UNL     1       2.371   2.207  19.557  0.00  0.00    +0.000 A 
ATOM     16  C   UNL     1       2.274   2.903  18.365  0.00  0.00    +0.000 A 
ATOM     17  C   UNL     1       3.381   2.883  17.372  0.00  0.00    +0.000 C 
ATOM     18  O   UNL     1       3.948   1.872  16.999  0.00  0.00    +0.000 OA
ENDROOT
BRANCH   1  22
ATOM     19  C   UNL     1       0.886   9.616  19.974  0.00  0.00    +0.000 A 
ATOM     20  C   UNL     1       1.016   9.550  18.589  0.00  0.00    +0.000 A 
ATOM     21  C   UNL     1       1.693   8.491  17.979  0.00  0.00    +0.000 A 
ATOM     22  C   UNL     1       2.200   7.418  18.726  0.00  0.00    +0.000 A 
ATOM     23  C   UNL     1       1.961   7.448  20.116  0.00  0.00    +0.000 A 
ATOM     24  C   UNL     1       1.339   8.547  20.740  0.00  0.00    +0.000 A 
BRANCH  19  26
ATOM     25  C   UNL     1       0.873  12.006  20.005  0.00  0.00    +0.000 C 
ATOM     26  O   UNL     1       0.312  10.770  20.423  0.00  0.00    +0.000 OA
ENDBRANCH  19  26
ENDBRANCH   1  22
BRANCH  14  27
ATOM     27  O   UNL     1       2.229   2.529  21.970  0.00  0.00    +0.000 OA
ATOM     28  C   UNL     1       1.163   2.102  22.820  0.00  0.00    +0.000 C 
ENDBRANCH  14  27
TORSDOF 3
ENDMDL
MODEL 2
REMARK VINA RESULT:      -7.8      0.797      1.303
REMARK  Name = 
REMARK  5 active torsions:
REMARK  status: ('A' for Active; 'I' for Inactive)
REMARK    1  A    between atoms: C_1  and  O_2
REMARK    2  A    between atoms: O_2  and  C_3
REMARK    3  A    between atoms: C_6  and  C_7
REMARK    4  A    between atoms: C_20  and  O_21
REMARK    5  A    between atoms: O_21  and  C_22
REMARK                            x       y       z     vdW  Elec       q    Type
REMARK                         _______ _______ _______ _____ _____    ______ ____
ROOT
ATOM      1  C   UNL     1       3.076   6.417  18.213  0.00  0.00    +0.000 A 
ATOM      2  N   UNL     1       4.362   6.741  17.894  0.00  0.00    +0.000 NA
ATOM      3  C   UNL     1       5.120   5.932  17.125  0.00  0.00    +0.000 A 
ATOM      4  C   UNL     1       6.440   6.279  16.894  0.00  0.00    +0.000 A 
ATOM      5  C   UNL     1       7.260   5.533  16.044  0.00  0.00    +0.000 A 
ATOM      6  C   UNL     1       6.761   4.396  15.424  0.00  0.00    +0.000 A 
ATOM      7  C   UNL     1       5.467   3.968  15.725  0.00  0.00    +0.000 A 
ATOM      8  C   UNL     1       4.657   4.725  16.595  0.00  0.00    +0.000 A 
ATOM      9  C   UNL     1       3.394   4.351  17.057  0.00  0.00    +0.000 A 
ATOM     10  C   UNL     1       2.565   5.177  17.845  0.00  0.00    +0.000 A 
ATOM     11  C   UNL     1       1.552   4.347  18.509  0.00  0.00    +0.000 A 
ATOM     12  C   UNL     1       0.815   4.715  19.614  0.00  0.00    +0.000 A 
ATOM     13  C   UNL     1       1.101   4.031  20.786  0.00  0.00    +0.000 A 
ATOM     14  C   UNL     1       1.871   2.860  20.750  0.00  0.00    +0.000 A 
ATOM     15  C   UNL     1       2.155   2.240  19.536  0.00  0.00    +0.000 A 
ATOM     16  C   UNL     1       1.983   3.010  18.399  0.00  0.00    +0.000 A 
ATOM     17  C   UNL     1       2.955   2.948  17.275  0.00  0.00    +0.000 C 
ATOM     18  O   UNL     1       3.374   1.914  16.788  0.00  0.00    +0.000 OA
ENDROOT
BRANCH   1  22
ATOM     19  C   UNL     1       0.694   9.320  20.350  0.00  0.00    +0.000 A 
ATOM     20  C   UNL     1       1.330   8.284  21.029  0.00  0.00    +0.000 A 
ATOM     21  C   UNL     1       2.129   7.360  20.349  0.00  0.00    +0.000 A 
ATOM     22  C   UNL     1       2.385   7.484  18.976  0.00  0.00    +0.000 A 
ATOM     23  C   UNL     1       1.822   8.604  18.328  0.00  0.00    +0.000 A 
ATOM     24  C   UNL     1       0.961   9.495  18.996  0.00  0.00    +0.000 A 
BRANCH  19  26
ATOM     25  C   UNL     1      -0.349   9.652  22.475  0.00  0.00    +0.000 C 
ATOM     26  O   UNL     1      -0.149  10.058  21.129  0.00  0.00    +0.000 OA
ENDBRANCH  19  26
ENDBRANCH   1  22
BRANCH  14  27
ATOM     27  O   UNL     1       2.335   2.433  21.960  0.00  0.00    +0.000 OA
ATOM     28  C   UNL     1       3.540   1.666  21.935  0.00  0.00    +0.000 C 
ENDBRANCH  14  27
TORSDOF 3
ENDMDL
MODEL 3
REMARK VINA RESULT:      -7.7      6.799     10.038
REMARK  Name = 
REMARK  5 active torsions:
REMARK  status: ('A' for Active; 'I' for Inactive)
REMARK    1  A    between atoms: C_1  and  O_2
REMARK    2  A    between atoms: O_2  and  C_3
REMARK    3  A    between atoms: C_6  and  C_7
REMARK    4  A    between atoms: C_20  and  O_21
REMARK    5  A    between atoms: O_21  and  C_22
REMARK                            x       y       z     vdW  Elec       q    Type
REMARK                         _______ _______ _______ _____ _____    ______ ____
ROOT
ATOM      1  C   UNL     1      -3.033  12.787  20.891  0.00  0.00    +0.000 A 
ATOM      2  N   UNL     1      -1.850  12.138  21.086  0.00  0.00    +0.000 NA
ATOM      3  C   UNL     1      -1.298  11.379  20.117  0.00  0.00    +0.000 A 
ATOM      4  C   UNL     1      -0.132  10.686  20.397  0.00  0.00    +0.000 A 
ATOM      5  C   UNL     1       0.538   9.946  19.420  0.00  0.00    +0.000 A 
ATOM      6  C   UNL     1       0.021   9.871  18.134  0.00  0.00    +0.000 A 
ATOM      7  C   UNL     1      -1.207  10.472  17.856  0.00  0.00    +0.000 A 
ATOM      8  C   UNL     1      -1.877  11.205  18.857  0.00  0.00    +0.000 A 
ATOM      9  C   UNL     1      -3.152  11.759  18.739  0.00  0.00    +0.000 A 
ATOM     10  C   UNL     1      -3.753  12.574  19.721  0.00  0.00    +0.000 A 
ATOM     11  C   UNL     1      -5.204  12.610  19.494  0.00  0.00    +0.000 A 
ATOM     12  C   UNL     1      -6.150  12.982  20.424  0.00  0.00    +0.000 A 
ATOM     13  C   UNL     1      -6.975  11.967  20.885  0.00  0.00    +0.000 A 
ATOM     14  C   UNL     1      -7.017  10.734  20.220  0.00  0.00    +0.000 A 
ATOM     15  C   UNL     1      -6.425  10.588  18.968  0.00  0.00    +0.000 A 
ATOM     16  C   UNL     1      -5.504  11.556  18.608  0.00  0.00    +0.000 A 
ATOM     17  C   UNL     1      -4.245  11.194  17.905  0.00  0.00    +0.000 C 
ATOM     18  O   UNL     1      -4.188  10.456  16.938  0.00  0.00    +0.000 OA
ENDROOT
BRANCH   1  22
ATOM     19  C   UNL     1      -3.717  15.348  24.304  0.00  0.00    +0.000 A 
ATOM     20  C   UNL     1      -3.723  15.868  23.012  0.00  0.00    +0.000 A 
ATOM     21  C   UNL     1      -3.536  15.041  21.901  0.00  0.00    +0.000 A 
ATOM     22  C   UNL     1      -3.412  13.650  22.036  0.00  0.00    +0.000 A 
ATOM     23  C   UNL     1      -3.521  13.131  23.343  0.00  0.00    +0.000 A 
ATOM     24  C   UNL     1      -3.641  13.969  24.469  0.00  0.00    +0.000 A 
BRANCH  19  26
ATOM     25  C   UNL     1      -4.722  17.351  25.133  0.00  0.00    +0.000 C 
ATOM     26  O   UNL     1      -3.785  16.295  25.283  0.00  0.00    +0.000 OA
ENDBRANCH  19  26
ENDBRANCH   1  22
BRANCH  14  27
ATOM     27  O   UNL     1      -7.624   9.724  20.908  0.00  0.00    +0.000 OA
ATOM     28  C   UNL     1      -7.458   8.410  20.370  0.00  0.00    +0.000 C 
ENDBRANCH  14  27
TORSDOF 3
ENDMDL
MODEL 4
REMARK VINA RESULT:      -7.6      6.753     10.103
REMARK  Name = 
REMARK  5 active torsions:
REMARK  status: ('A' for Active; 'I' for Inactive)
REMARK    1  A    between atoms: C_1  and  O_2
REMARK    2  A    between atoms: O_2  and  C_3
REMARK    3  A    between atoms: C_6  and  C_7
REMARK    4  A    between atoms: C_20  and  O_21
REMARK    5  A    between atoms: O_21  and  C_22
REMARK                            x       y       z     vdW  Elec       q    Type
REMARK                         _______ _______ _______ _____ _____    ______ ____
ROOT
ATOM      1  C   UNL     1      -3.038  12.888  20.742  0.00  0.00    +0.000 A 
ATOM      2  N   UNL     1      -1.850  12.273  21.005  0.00  0.00    +0.000 NA
ATOM      3  C   UNL     1      -1.270  11.452  20.106  0.00  0.00    +0.000 A 
ATOM      4  C   UNL     1      -0.100  10.800  20.458  0.00  0.00    +0.000 A 
ATOM      5  C   UNL     1       0.599   9.999  19.551  0.00  0.00    +0.000 A 
ATOM      6  C   UNL     1       0.107   9.821  18.265  0.00  0.00    +0.000 A 
ATOM      7  C   UNL     1      -1.124  10.381  17.921  0.00  0.00    +0.000 A 
ATOM      8  C   UNL     1      -1.822  11.176  18.852  0.00  0.00    +0.000 A 
ATOM      9  C   UNL     1      -3.103  11.701  18.671  0.00  0.00    +0.000 A 
ATOM     10  C   UNL     1      -3.733  12.577  19.578  0.00  0.00    +0.000 A 
ATOM     11  C   UNL     1      -5.180  12.574  19.324  0.00  0.00    +0.000 A 
ATOM     12  C   UNL     1      -6.149  12.999  20.207  0.00  0.00    +0.000 A 
ATOM     13  C   UNL     1      -6.968  12.009  20.728  0.00  0.00    +0.000 A 
ATOM     14  C   UNL     1      -6.980  10.730  20.156  0.00  0.00    +0.000 A 
ATOM     15  C   UNL     1      -6.363  10.500  18.930  0.00  0.00    +0.000 A 
ATOM     16  C   UNL     1      -5.449  11.452  18.514  0.00  0.00    +0.000 A 
ATOM     17  C   UNL     1      -4.172  11.059  17.863  0.00  0.00    +0.000 C 
ATOM     18  O   UNL     1      -4.087  10.251  16.955  0.00  0.00    +0.000 OA
ENDROOT
BRANCH   1  22
ATOM     19  C   UNL     1      -4.638  15.606  23.696  0.00  0.00    +0.000 A 
ATOM     20  C   UNL     1      -4.493  14.250  23.981  0.00  0.00    +0.000 A 
ATOM     21  C   UNL     1      -3.946  13.371  23.043  0.00  0.00    +0.000 A 
ATOM     22  C   UNL     1      -3.451  13.828  21.813  0.00  0.00    +0.000 A 
ATOM     23  C   UNL     1      -3.504  15.220  21.589  0.00  0.00    +0.000 A 
ATOM     24  C   UNL     1      -4.118  16.097  22.503  0.00  0.00    +0.000 A 
BRANCH  19  26
ATOM     25  C   UNL     1      -4.690  17.477  25.181  0.00  0.00    +0.000 C 
ATOM     26  O   UNL     1      -5.302  16.307  24.659  0.00  0.00    +0.000 OA
ENDBRANCH  19  26
ENDBRANCH   1  22
BRANCH  14  27
ATOM     27  O   UNL     1      -7.585   9.764  20.907  0.00  0.00    +0.000 OA
ATOM     28  C   UNL     1      -7.478   8.427  20.415  0.00  0.00    +0.000 C 
ENDBRANCH  14  27
TORSDOF 3
ENDMDL
MODEL 5
REMARK VINA RESULT:      -7.2      7.065      9.729
REMARK  Name = 
REMARK  5 active torsions:
REMARK  status: ('A' for Active; 'I' for Inactive)
REMARK    1  A    between atoms: C_1  and  O_2
REMARK    2  A    between atoms: O_2  and  C_3
REMARK    3  A    between atoms: C_6  and  C_7
REMARK    4  A    between atoms: C_20  and  O_21
REMARK    5  A    between atoms: O_21  and  C_22
REMARK                            x       y       z     vdW  Elec       q    Type
REMARK                         _______ _______ _______ _____ _____    ______ ____
ROOT
ATOM      1  C   UNL     1      -2.690  12.342  20.375  0.00  0.00    +0.000 A 
ATOM      2  N   UNL     1      -3.517  12.276  19.292  0.00  0.00    +0.000 NA
ATOM      3  C   UNL     1      -3.217  11.506  18.227  0.00  0.00    +0.000 A 
ATOM      4  C   UNL     1      -4.058  11.535  17.127  0.00  0.00    +0.000 A 
ATOM      5  C   UNL     1      -3.855  10.704  16.022  0.00  0.00    +0.000 A 
ATOM      6  C   UNL     1      -2.771   9.838  15.998  0.00  0.00    +0.000 A 
ATOM      7  C   UNL     1      -1.851   9.867  17.047  0.00  0.00    +0.000 A 
ATOM      8  C   UNL     1      -2.064  10.720  18.149  0.00  0.00    +0.000 A 
ATOM      9  C   UNL     1      -1.170  10.921  19.203  0.00  0.00    +0.000 A 
ATOM     10  C   UNL     1      -1.456  11.702  20.342  0.00  0.00    +0.000 A 
ATOM     11  C   UNL     1      -0.196  12.062  21.006  0.00  0.00    +0.000 A 
ATOM     12  C   UNL     1      -0.033  13.091  21.908  0.00  0.00    +0.000 A 
ATOM     13  C   UNL     1       0.731  14.162  21.471  0.00  0.00    +0.000 A 
ATOM     14  C   UNL     1       1.508  14.048  20.311  0.00  0.00    +0.000 A 
ATOM     15  C   UNL     1       1.714  12.804  19.719  0.00  0.00    +0.000 A 
ATOM     16  C   UNL     1       0.839  11.797  20.088  0.00  0.00    +0.000 A 
ATOM     17  C   UNL     1       0.308  10.837  19.084  0.00  0.00    +0.000 C 
ATOM     18  O   UNL     1       0.994  10.253  18.265  0.00  0.00    +0.000 OA
ENDROOT
BRANCH   1  22
ATOM     19  C   UNL     1      -3.918  14.770  23.732  0.00  0.00    +0.000 A 
ATOM     20  C   UNL     1      -3.732  15.338  22.474  0.00  0.00    +0.000 A 
ATOM     21  C   UNL     1      -3.368  14.553  21.376  0.00  0.00    +0.000 A 
ATOM     22  C   UNL     1      -3.250  13.160  21.479  0.00  0.00    +0.000 A 
ATOM     23  C   UNL     1      -3.551  12.592  22.735  0.00  0.00    +0.000 A 
ATOM     24  C   UNL     1      -3.851  13.386  23.858  0.00  0.00    +0.000 A 
BRANCH  19  26
ATOM     25  C   UNL     1      -3.099  16.575  25.067  0.00  0.00    +0.000 C 
ATOM     26  O   UNL     1      -4.146  15.680  24.723  0.00  0.00    +0.000 OA
ENDBRANCH  19  26
ENDBRANCH   1  22
BRANCH  14  27
ATOM     27  O   UNL     1       1.981  15.227  19.810  0.00  0.00    +0.000 OA
ATOM     28  C   UNL     1       1.086  15.955  18.968  0.00  0.00    +0.000 C 
ENDBRANCH  14  27
TORSDOF 3
ENDMDL
MODEL 6
REMARK VINA RESULT:      -7.2      5.680      8.998
REMARK  Name = 
REMARK  5 active torsions:
REMARK  status: ('A' for Active; 'I' for Inactive)
REMARK    1  A    between atoms: C_1  and  O_2
REMARK    2  A    between atoms: O_2  and  C_3
REMARK    3  A    between atoms: C_6  and  C_7
REMARK    4  A    between atoms: C_20  and  O_21
REMARK    5  A    between atoms: O_21  and  C_22
REMARK                            x       y       z     vdW  Elec       q    Type
REMARK                         _______ _______ _______ _____ _____    ______ ____
ROOT
ATOM      1  C   UNL     1      -1.831  12.039  20.746  0.00  0.00    +0.000 A 
ATOM      2  N   UNL     1      -0.845  11.166  21.102  0.00  0.00    +0.000 NA
ATOM      3  C   UNL     1      -0.203  10.419  20.181  0.00  0.00    +0.000 A 
ATOM      4  C   UNL     1       0.738   9.499  20.610  0.00  0.00    +0.000 A 
ATOM      5  C   UNL     1       1.499   8.749  19.710  0.00  0.00    +0.000 A 
ATOM      6  C   UNL     1       1.301   8.899  18.344  0.00  0.00    +0.000 A 
ATOM      7  C   UNL     1       0.285   9.741  17.891  0.00  0.00    +0.000 A 
ATOM      8  C   UNL     1      -0.483  10.481  18.813  0.00  0.00    +0.000 A 
ATOM      9  C   UNL     1      -1.590  11.270  18.497  0.00  0.00    +0.000 A 
ATOM     10  C   UNL     1      -2.274  12.080  19.428  0.00  0.00    +0.000 A 
ATOM     11  C   UNL     1      -3.604  12.404  18.897  0.00  0.00    +0.000 A 
ATOM     12  C   UNL     1      -4.676  12.850  19.640  0.00  0.00    +0.000 A 
ATOM     13  C   UNL     1      -5.736  11.964  19.762  0.00  0.00    +0.000 A 
ATOM     14  C   UNL     1      -5.809  10.832  18.939  0.00  0.00    +0.000 A 
ATOM     15  C   UNL     1      -4.964  10.704  17.839  0.00  0.00    +0.000 A 
ATOM     16  C   UNL     1      -3.844  11.518  17.828  0.00  0.00    +0.000 A 
ATOM     17  C   UNL     1      -2.525  11.002  17.374  0.00  0.00    +0.000 C 
ATOM     18  O   UNL     1      -2.354  10.366  16.350  0.00  0.00    +0.000 OA
ENDROOT
BRANCH   1  22
ATOM     19  C   UNL     1      -2.950  14.237  24.294  0.00  0.00    +0.000 A 
ATOM     20  C   UNL     1      -2.282  14.868  23.247  0.00  0.00    +0.000 A 
ATOM     21  C   UNL     1      -1.947  14.172  22.082  0.00  0.00    +0.000 A 
ATOM     22  C   UNL     1      -2.335  12.838  21.889  0.00  0.00    +0.000 A 
ATOM     23  C   UNL     1      -3.107  12.251  22.914  0.00  0.00    +0.000 A 
ATOM     24  C   UNL     1      -3.386  12.928  24.116  0.00  0.00    +0.000 A 
BRANCH  19  26
ATOM     25  C   UNL     1      -1.927  15.584  25.982  0.00  0.00    +0.000 C 
ATOM     26  O   UNL     1      -3.093  15.012  25.408  0.00  0.00    +0.000 OA
ENDBRANCH  19  26
ENDBRANCH   1  22
BRANCH  14  27
ATOM     27  O   UNL     1      -6.712   9.887  19.330  0.00  0.00    +0.000 OA
ATOM     28  C   UNL     1      -7.519  10.220  20.461  0.00  0.00    +0.000 C 
ENDBRANCH  14  27
TORSDOF 3
ENDMDL
MODEL 7
REMARK VINA RESULT:      -7.2      5.617      9.148
REMARK  Name = 
REMARK  5 active torsions:
REMARK  status: ('A' for Active; 'I' for Inactive)
REMARK    1  A    between atoms: C_1  and  O_2
REMARK    2  A    between atoms: O_2  and  C_3
REMARK    3  A    between atoms: C_6  and  C_7
REMARK    4  A    between atoms: C_20  and  O_21
REMARK    5  A    between atoms: O_21  and  C_22
REMARK                            x       y       z     vdW  Elec       q    Type
REMARK                         _______ _______ _______ _____ _____    ______ ____
ROOT
ATOM      1  C   UNL     1      -1.863  12.073  21.432  0.00  0.00    +0.000 A 
ATOM      2  N   UNL     1      -1.082  11.188  22.116  0.00  0.00    +0.000 NA
ATOM      3  C   UNL     1      -0.302  10.297  21.470  0.00  0.00    +0.000 A 
ATOM      4  C   UNL     1       0.413   9.376  22.216  0.00  0.00    +0.000 A 
ATOM      5  C   UNL     1       1.302   8.477  21.622  0.00  0.00    +0.000 A 
ATOM      6  C   UNL     1       1.466   8.476  20.243  0.00  0.00    +0.000 A 
ATOM      7  C   UNL     1       0.677   9.322  19.462  0.00  0.00    +0.000 A 
ATOM      8  C   UNL     1      -0.225  10.214  20.077  0.00  0.00    +0.000 A 
ATOM      9  C   UNL     1      -1.140  11.029  19.410  0.00  0.00    +0.000 A 
ATOM     10  C   UNL     1      -1.957  11.986  20.048  0.00  0.00    +0.000 A 
ATOM     11  C   UNL     1      -3.077  12.329  19.161  0.00  0.00    +0.000 A 
ATOM     12  C   UNL     1      -4.255  12.927  19.555  0.00  0.00    +0.000 A 
ATOM     13  C   UNL     1      -5.388  12.132  19.486  0.00  0.00    +0.000 A 
ATOM     14  C   UNL     1      -5.357  10.917  18.787  0.00  0.00    +0.000 A 
ATOM     15  C   UNL     1      -4.280  10.606  17.961  0.00  0.00    +0.000 A 
ATOM     16  C   UNL     1      -3.123  11.339  18.160  0.00  0.00    +0.000 A 
ATOM     17  C   UNL     1      -1.786  10.690  18.115  0.00  0.00    +0.000 C 
ATOM     18  O   UNL     1      -1.424   9.927  17.238  0.00  0.00    +0.000 OA
ENDROOT
BRANCH   1  22
ATOM     19  C   UNL     1      -3.562  14.828  24.296  0.00  0.00    +0.000 A 
ATOM     20  C   UNL     1      -2.842  15.296  23.200  0.00  0.00    +0.000 A 
ATOM     21  C   UNL     1      -2.318  14.412  22.251  0.00  0.00    +0.000 A 
ATOM     22  C   UNL     1      -2.560  13.033  22.323  0.00  0.00    +0.000 A 
ATOM     23  C   UNL     1      -3.385  12.591  23.378  0.00  0.00    +0.000 A 
ATOM     24  C   UNL     1      -3.857  13.471  24.372  0.00  0.00    +0.000 A 
BRANCH  19  26
ATOM     25  C   UNL     1      -4.815  16.802  24.790  0.00  0.00    +0.000 C 
ATOM     26  O   UNL     1      -3.896  15.798  25.195  0.00  0.00    +0.000 OA
ENDBRANCH  19  26
ENDBRANCH   1  22
BRANCH  14  27
ATOM     27  O   UNL     1      -6.413  10.085  19.023  0.00  0.00    +0.000 OA
ATOM     28  C   UNL     1      -7.257  10.437  20.121  0.00  0.00    +0.000 C 
ENDBRANCH  14  27
TORSDOF 3
ENDMDL
MODEL 8
REMARK VINA RESULT:      -7.1      6.895      9.658
REMARK  Name = 
REMARK  5 active torsions:
REMARK  status: ('A' for Active; 'I' for Inactive)
REMARK    1  A    between atoms: C_1  and  O_2
REMARK    2  A    between atoms: O_2  and  C_3
REMARK    3  A    between atoms: C_6  and  C_7
REMARK    4  A    between atoms: C_20  and  O_21
REMARK    5  A    between atoms: O_21  and  C_22
REMARK                            x       y       z     vdW  Elec       q    Type
REMARK                         _______ _______ _______ _____ _____    ______ ____
ROOT
ATOM      1  C   UNL     1      -2.533  12.316  20.083  0.00  0.00    +0.000 A 
ATOM      2  N   UNL     1      -3.395  12.265  19.028  0.00  0.00    +0.000 NA
ATOM      3  C   UNL     1      -3.166  11.457  17.973  0.00  0.00    +0.000 A 
ATOM      4  C   UNL     1      -4.039  11.501  16.898  0.00  0.00    +0.000 A 
ATOM      5  C   UNL     1      -3.910  10.637  15.809  0.00  0.00    +0.000 A 
ATOM      6  C   UNL     1      -2.870   9.718  15.774  0.00  0.00    +0.000 A 
ATOM      7  C   UNL     1      -1.918   9.727  16.793  0.00  0.00    +0.000 A 
ATOM      8  C   UNL     1      -2.055  10.615  17.880  0.00  0.00    +0.000 A 
ATOM      9  C   UNL     1      -1.120  10.796  18.901  0.00  0.00    +0.000 A 
ATOM     10  C   UNL     1      -1.332  11.616  20.029  0.00  0.00    +0.000 A 
ATOM     11  C   UNL     1      -0.037  11.930  20.646  0.00  0.00    +0.000 A 
ATOM     12  C   UNL     1       0.204  12.969  21.517  0.00  0.00    +0.000 A 
ATOM     13  C   UNL     1       1.003  13.992  21.031  0.00  0.00    +0.000 A 
ATOM     14  C   UNL     1       1.738  13.814  19.851  0.00  0.00    +0.000 A 
ATOM     15  C   UNL     1       1.866  12.548  19.284  0.00  0.00    +0.000 A 
ATOM     16  C   UNL     1       0.956  11.594  19.703  0.00  0.00    +0.000 A 
ATOM     17  C   UNL     1       0.348  10.637  18.740  0.00  0.00    +0.000 C 
ATOM     18  O   UNL     1       0.980  10.002  17.915  0.00  0.00    +0.000 OA
ENDROOT
BRANCH   1  22
ATOM     19  C   UNL     1      -4.333  14.838  23.095  0.00  0.00    +0.000 A 
ATOM     20  C   UNL     1      -4.205  13.467  23.300  0.00  0.00    +0.000 A 
ATOM     21  C   UNL     1      -3.594  12.649  22.344  0.00  0.00    +0.000 A 
ATOM     22  C   UNL     1      -3.019  13.184  21.183  0.00  0.00    +0.000 A 
ATOM     23  C   UNL     1      -3.060  14.588  21.048  0.00  0.00    +0.000 A 
ATOM     24  C   UNL     1      -3.735  15.405  21.975  0.00  0.00    +0.000 A 
BRANCH  19  26
ATOM     25  C   UNL     1      -4.427  16.496  24.814  0.00  0.00    +0.000 C 
ATOM     26  O   UNL     1      -5.062  15.477  24.055  0.00  0.00    +0.000 OA
ENDBRANCH  19  26
ENDBRANCH   1  22
BRANCH  14  27
ATOM     27  O   UNL     1       2.251  14.956  19.308  0.00  0.00    +0.000 OA
ATOM     28  C   UNL     1       1.337  16.044  19.155  0.00  0.00    +0.000 C 
ENDBRANCH  14  27
TORSDOF 3
ENDMDL
MODEL 9
REMARK VINA RESULT:      -7.1      5.359      9.088
REMARK  Name = 
REMARK  5 active torsions:
REMARK  status: ('A' for Active; 'I' for Inactive)
REMARK    1  A    between atoms: C_1  and  O_2
REMARK    2  A    between atoms: O_2  and  C_3
REMARK    3  A    between atoms: C_6  and  C_7
REMARK    4  A    between atoms: C_20  and  O_21
REMARK    5  A    between atoms: O_21  and  C_22
REMARK                            x       y       z     vdW  Elec       q    Type
REMARK                         _______ _______ _______ _____ _____    ______ ____
ROOT
ATOM      1  C   UNL     1      -1.244  11.899  21.788  0.00  0.00    +0.000 A 
ATOM      2  N   UNL     1      -0.544  10.833  22.272  0.00  0.00    +0.000 NA
ATOM      3  C   UNL     1       0.087   9.974  21.446  0.00  0.00    +0.000 A 
ATOM      4  C   UNL     1       0.720   8.870  21.992  0.00  0.00    +0.000 A 
ATOM      5  C   UNL     1       1.461   7.983  21.207  0.00  0.00    +0.000 A 
ATOM      6  C   UNL     1       1.553   8.184  19.836  0.00  0.00    +0.000 A 
ATOM      7  C   UNL     1       0.836   9.227  19.250  0.00  0.00    +0.000 A 
ATOM      8  C   UNL     1       0.083  10.106  20.055  0.00  0.00    +0.000 A 
ATOM      9  C   UNL     1      -0.758  11.116  19.585  0.00  0.00    +0.000 A 
ATOM     10  C   UNL     1      -1.418  12.045  20.416  0.00  0.00    +0.000 A 
ATOM     11  C   UNL     1      -2.530  12.651  19.672  0.00  0.00    +0.000 A 
ATOM     12  C   UNL     1      -3.604  13.308  20.233  0.00  0.00    +0.000 A 
ATOM     13  C   UNL     1      -4.829  12.668  20.122  0.00  0.00    +0.000 A 
ATOM     14  C   UNL     1      -4.983  11.585  19.246  0.00  0.00    +0.000 A 
ATOM     15  C   UNL     1      -3.995  11.289  18.309  0.00  0.00    +0.000 A 
ATOM     16  C   UNL     1      -2.748  11.845  18.537  0.00  0.00    +0.000 A 
ATOM     17  C   UNL     1      -1.505  11.063  18.301  0.00  0.00    +0.000 C 
ATOM     18  O   UNL     1      -1.285  10.414  17.295  0.00  0.00    +0.000 OA
ENDROOT
BRANCH   1  22
ATOM     19  C   UNL     1      -2.973  14.687  24.601  0.00  0.00    +0.000 A 
ATOM     20  C   UNL     1      -3.593  13.468  24.335  0.00  0.00    +0.000 A 
ATOM     21  C   UNL     1      -3.022  12.547  23.452  0.00  0.00    +0.000 A 
ATOM     22  C   UNL     1      -1.772  12.777  22.860  0.00  0.00    +0.000 A 
ATOM     23  C   UNL     1      -1.109  13.967  23.228  0.00  0.00    +0.000 A 
ATOM     24  C   UNL     1      -1.712  14.927  24.064  0.00  0.00    +0.000 A 
BRANCH  19  26
ATOM     25  C   UNL     1      -4.474  16.541  24.742  0.00  0.00    +0.000 C 
ATOM     26  O   UNL     1      -3.713  15.527  25.381  0.00  0.00    +0.000 OA
ENDBRANCH  19  26
ENDBRANCH   1  22
BRANCH  14  27
ATOM     27  O   UNL     1      -6.120  10.851  19.424  0.00  0.00    +0.000 OA
ATOM     28  C   UNL     1      -7.122  11.438  20.257  0.00  0.00    +0.000 C 
ENDBRANCH  14  27
TORSDOF 3
ENDMDL
