MODEL 1
REMARK VINA RESULT:      -6.5      0.000      0.000
REMARK  Name = 
REMARK  12 active torsions:
REMARK  status: ('A' for Active; 'I' for Inactive)
REMARK    1  A    between atoms: C_1  and  O_2
REMARK    2  A    between atoms: O_2  and  C_3
REMARK    3  A    between atoms: C_3  and  C_4
REMARK    4  A    between atoms: C_4  and  C_5
REMARK    5  A    between atoms: C_5  and  C_6
REMARK    6  A    between atoms: C_6  and  C_7
REMARK    7  A    between atoms: C_7  and  C_13
REMARK    8  A    between atoms: N_8  and  O_9
REMARK    9  A    between atoms: O_9  and  C_10
REMARK   10  A    between atoms: C_10  and  C_11
REMARK   11  A    between atoms: C_11  and  N_12
REMARK   12  A    between atoms: C_16  and  C_17
REMARK                            x       y       z     vdW  Elec       q    Type
REMARK                         _______ _______ _______ _____ _____    ______ ____
ROOT
ATOM      1  C   UNL     1       4.110   5.448  18.137  0.00  0.00    +0.000 C 
ATOM      2  N   UNL     1       5.365   5.525  18.501  0.00  0.00    +0.000 NA
ENDROOT
BRANCH   1   3
ATOM      3  C   UNL     1       3.192   6.601  18.485  0.00  0.00    +0.000 A 
ATOM      4  C   UNL     1       2.956   7.667  17.609  0.00  0.00    +0.000 A 
ATOM      5  C   UNL     1       2.160   8.750  17.993  0.00  0.00    +0.000 A 
ATOM      6  C   UNL     1       1.571   8.798  19.261  0.00  0.00    +0.000 A 
ATOM      7  C   UNL     1       1.779   7.721  20.133  0.00  0.00    +0.000 A 
ATOM      8  C   UNL     1       2.584   6.635  19.750  0.00  0.00    +0.000 A 
BRANCH   6   9
ATOM      9  C   UNL     1       0.725   9.981  19.667  0.00  0.00    +0.000 C 
ATOM     10  F   UNL     1      -0.544   9.931  19.182  0.00  0.00    +0.000 F 
ATOM     11  F   UNL     1       0.602  10.095  21.021  0.00  0.00    +0.000 F 
ATOM     12  F   UNL     1       1.240  11.164  19.236  0.00  0.00    +0.000 F 
ENDBRANCH   6   9
ENDBRANCH   1   3
BRANCH   1  13
ATOM     13  C   UNL     1       3.561   4.252  17.336  0.00  0.00    +0.000 C 
BRANCH  13  14
ATOM     14  C   UNL     1       2.092   3.973  17.651  0.00  0.00    +0.000 C 
BRANCH  14  15
ATOM     15  C   UNL     1       1.872   2.630  18.350  0.00  0.00    +0.000 C 
BRANCH  15  16
ATOM     16  C   UNL     1       2.958   2.429  19.401  0.00  0.00    +0.000 C 
BRANCH  16  18
ATOM     17  C   UNL     1       1.366   2.799  21.074  0.00  0.00    +0.000 C 
ATOM     18  O   UNL     1       2.654   3.162  20.583  0.00  0.00    +0.000 OA
ENDBRANCH  16  18
ENDBRANCH  15  16
ENDBRANCH  14  15
ENDBRANCH  13  14
ENDBRANCH   1  13
BRANCH   2  19
ATOM     19  O   UNL     1       6.094   4.424  18.037  0.00  0.00    +0.000 OA
BRANCH  19  20
ATOM     20  C   UNL     1       7.488   4.727  17.992  0.00  0.00    +0.000 C 
BRANCH  20  21
ATOM     21  C   UNL     1       7.718   5.881  18.975  0.00  0.00    +0.000 C 
BRANCH  21  22
ATOM     22  N   UNL     1       8.014   5.453  20.342  0.00  0.00    +0.000 NA
ATOM     23  H   UNL     1       7.812   6.216  20.989  0.00  0.00    +0.000 HD
ATOM     24  H   UNL     1       9.016   5.279  20.421  0.00  0.00    +0.000 HD
ENDBRANCH  21  22
ENDBRANCH  20  21
ENDBRANCH  19  20
ENDBRANCH   2  19
TORSDOF 11
ENDMDL
MODEL 2
REMARK VINA RESULT:      -6.5      4.451      6.108
REMARK  Name = 
REMARK  12 active torsions:
REMARK  status: ('A' for Active; 'I' for Inactive)
REMARK    1  A    between atoms: C_1  and  O_2
REMARK    2  A    between atoms: O_2  and  C_3
REMARK    3  A    between atoms: C_3  and  C_4
REMARK    4  A    between atoms: C_4  and  C_5
REMARK    5  A    between atoms: C_5  and  C_6
REMARK    6  A    between atoms: C_6  and  C_7
REMARK    7  A    between atoms: C_7  and  C_13
REMARK    8  A    between atoms: N_8  and  O_9
REMARK    9  A    between atoms: O_9  and  C_10
REMARK   10  A    between atoms: C_10  and  C_11
REMARK   11  A    between atoms: C_11  and  N_12
REMARK   12  A    between atoms: C_16  and  C_17
REMARK                            x       y       z     vdW  Elec       q    Type
REMARK                         _______ _______ _______ _____ _____    ______ ____
ROOT
ATOM      1  C   UNL     1       2.451   6.304  19.967  0.00  0.00    +0.000 C 
ATOM      2  N   UNL     1       2.030   7.544  19.943  0.00  0.00    +0.000 NA
ENDROOT
BRANCH   1   3
ATOM      3  C   UNL     1       3.584   5.915  19.041  0.00  0.00    +0.000 A 
ATOM      4  C   UNL     1       3.643   6.333  17.706  0.00  0.00    +0.000 A 
ATOM      5  C   UNL     1       4.664   5.894  16.859  0.00  0.00    +0.000 A 
ATOM      6  C   UNL     1       5.661   5.028  17.322  0.00  0.00    +0.000 A 
ATOM      7  C   UNL     1       5.625   4.628  18.664  0.00  0.00    +0.000 A 
ATOM      8  C   UNL     1       4.595   5.063  19.514  0.00  0.00    +0.000 A 
BRANCH   6   9
ATOM      9  C   UNL     1       6.751   4.550  16.392  0.00  0.00    +0.000 C 
ATOM     10  F   UNL     1       7.883   4.162  17.039  0.00  0.00    +0.000 F 
ATOM     11  F   UNL     1       6.365   3.479  15.642  0.00  0.00    +0.000 F 
ATOM     12  F   UNL     1       7.140   5.507  15.508  0.00  0.00    +0.000 F 
ENDBRANCH   6   9
ENDBRANCH   1   3
BRANCH   1  13
ATOM     13  C   UNL     1       1.861   5.258  20.932  0.00  0.00    +0.000 C 
BRANCH  13  14
ATOM     14  C   UNL     1       0.976   4.243  20.210  0.00  0.00    +0.000 C 
BRANCH  14  15
ATOM     15  C   UNL     1       1.379   2.793  20.483  0.00  0.00    +0.000 C 
BRANCH  15  16
ATOM     16  C   UNL     1       1.415   2.026  19.165  0.00  0.00    +0.000 C 
BRANCH  16  18
ATOM     17  C   UNL     1       2.702   2.688  17.328  0.00  0.00    +0.000 C 
ATOM     18  O   UNL     1       2.723   2.053  18.604  0.00  0.00    +0.000 OA
ENDBRANCH  16  18
ENDBRANCH  15  16
ENDBRANCH  14  15
ENDBRANCH  13  14
ENDBRANCH   1  13
BRANCH   2  19
ATOM     19  O   UNL     1       1.040   7.760  20.908  0.00  0.00    +0.000 OA
BRANCH  19  20
ATOM     20  C   UNL     1       0.902   9.154  21.183  0.00  0.00    +0.000 C 
BRANCH  20  21
ATOM     21  C   UNL     1       0.994   9.312  22.705  0.00  0.00    +0.000 C 
BRANCH  21  22
ATOM     22  N   UNL     1      -0.074  10.123  23.288  0.00  0.00    +0.000 NA
ATOM     23  H   UNL     1       0.024  10.137  24.304  0.00  0.00    +0.000 HD
ATOM     24  H   UNL     1      -0.969   9.670  23.102  0.00  0.00    +0.000 HD
ENDBRANCH  21  22
ENDBRANCH  20  21
ENDBRANCH  19  20
ENDBRANCH   2  19
TORSDOF 11
ENDMDL
MODEL 3
REMARK VINA RESULT:      -6.5      1.276      1.376
REMARK  Name = 
REMARK  12 active torsions:
REMARK  status: ('A' for Active; 'I' for Inactive)
REMARK    1  A    between atoms: C_1  and  O_2
REMARK    2  A    between atoms: O_2  and  C_3
REMARK    3  A    between atoms: C_3  and  C_4
REMARK    4  A    between atoms: C_4  and  C_5
REMARK    5  A    between atoms: C_5  and  C_6
REMARK    6  A    between atoms: C_6  and  C_7
REMARK    7  A    between atoms: C_7  and  C_13
REMARK    8  A    between atoms: N_8  and  O_9
REMARK    9  A    between atoms: O_9  and  C_10
REMARK   10  A    between atoms: C_10  and  C_11
REMARK   11  A    between atoms: C_11  and  N_12
REMARK   12  A    between atoms: C_16  and  C_17
REMARK                            x       y       z     vdW  Elec       q    Type
REMARK                         _______ _______ _______ _____ _____    ______ ____
ROOT
ATOM      1  C   UNL     1       3.628   6.033  17.792  0.00  0.00    +0.000 C 
ATOM      2  N   UNL     1       4.740   6.433  17.226  0.00  0.00    +0.000 NA
ENDROOT
BRANCH   1   3
ATOM      3  C   UNL     1       2.733   7.075  18.428  0.00  0.00    +0.000 A 
ATOM      4  C   UNL     1       2.243   8.180  17.720  0.00  0.00    +0.000 A 
ATOM      5  C   UNL     1       1.479   9.161  18.358  0.00  0.00    +0.000 A 
ATOM      6  C   UNL     1       1.176   9.065  19.721  0.00  0.00    +0.000 A 
ATOM      7  C   UNL     1       1.638   7.948  20.429  0.00  0.00    +0.000 A 
ATOM      8  C   UNL     1       2.412   6.965  19.790  0.00  0.00    +0.000 A 
BRANCH   6   9
ATOM      9  C   UNL     1       0.361  10.140  20.400  0.00  0.00    +0.000 C 
ATOM     10  F   UNL     1      -0.502  10.775  19.563  0.00  0.00    +0.000 F 
ATOM     11  F   UNL     1      -0.401   9.651  21.420  0.00  0.00    +0.000 F 
ATOM     12  F   UNL     1       1.135  11.117  20.944  0.00  0.00    +0.000 F 
ENDBRANCH   6   9
ENDBRANCH   1   3
BRANCH   1  13
ATOM     13  C   UNL     1       3.195   4.555  17.789  0.00  0.00    +0.000 C 
BRANCH  13  14
ATOM     14  C   UNL     1       1.674   4.401  17.773  0.00  0.00    +0.000 C 
BRANCH  14  15
ATOM     15  C   UNL     1       1.180   3.233  18.630  0.00  0.00    +0.000 C 
BRANCH  15  16
ATOM     16  C   UNL     1       0.858   3.742  20.031  0.00  0.00    +0.000 C 
BRANCH  16  18
ATOM     17  C   UNL     1       2.443   2.799  21.468  0.00  0.00    +0.000 C 
ATOM     18  O   UNL     1       1.098   2.728  21.000  0.00  0.00    +0.000 OA
ENDBRANCH  16  18
ENDBRANCH  15  16
ENDBRANCH  14  15
ENDBRANCH  13  14
ENDBRANCH   1  13
BRANCH   2  19
ATOM     19  O   UNL     1       5.411   5.366  16.620  0.00  0.00    +0.000 OA
BRANCH  19  20
ATOM     20  C   UNL     1       6.804   5.651  16.501  0.00  0.00    +0.000 C 
BRANCH  20  21
ATOM     21  C   UNL     1       7.519   4.788  17.548  0.00  0.00    +0.000 C 
BRANCH  21  22
ATOM     22  N   UNL     1       6.621   4.146  18.508  0.00  0.00    +0.000 NA
ATOM     23  H   UNL     1       5.973   3.534  18.012  0.00  0.00    +0.000 HD
ATOM     24  H   UNL     1       6.043   4.864  18.948  0.00  0.00    +0.000 HD
ENDBRANCH  21  22
ENDBRANCH  20  21
ENDBRANCH  19  20
ENDBRANCH   2  19
TORSDOF 11
ENDMDL
MODEL 4
REMARK VINA RESULT:      -6.5      4.021      6.255
REMARK  Name = 
REMARK  12 active torsions:
REMARK  status: ('A' for Active; 'I' for Inactive)
REMARK    1  A    between atoms: C_1  and  O_2
REMARK    2  A    between atoms: O_2  and  C_3
REMARK    3  A    between atoms: C_3  and  C_4
REMARK    4  A    between atoms: C_4  and  C_5
REMARK    5  A    between atoms: C_5  and  C_6
REMARK    6  A    between atoms: C_6  and  C_7
REMARK    7  A    between atoms: C_7  and  C_13
REMARK    8  A    between atoms: N_8  and  O_9
REMARK    9  A    between atoms: O_9  and  C_10
REMARK   10  A    between atoms: C_10  and  C_11
REMARK   11  A    between atoms: C_11  and  N_12
REMARK   12  A    between atoms: C_16  and  C_17
REMARK                            x       y       z     vdW  Elec       q    Type
REMARK                         _______ _______ _______ _____ _____    ______ ____
ROOT
ATOM      1  C   UNL     1       5.579   5.314  16.529  0.00  0.00    +0.000 C 
ATOM      2  N   UNL     1       6.010   4.659  15.481  0.00  0.00    +0.000 NA
ENDROOT
BRANCH   1   3
ATOM      3  C   UNL     1       4.380   4.765  17.273  0.00  0.00    +0.000 A 
ATOM      4  C   UNL     1       3.434   5.592  17.890  0.00  0.00    +0.000 A 
ATOM      5  C   UNL     1       2.379   5.051  18.630  0.00  0.00    +0.000 A 
ATOM      6  C   UNL     1       2.235   3.666  18.772  0.00  0.00    +0.000 A 
ATOM      7  C   UNL     1       3.161   2.831  18.134  0.00  0.00    +0.000 A 
ATOM      8  C   UNL     1       4.225   3.375  17.395  0.00  0.00    +0.000 A 
BRANCH   6   9
ATOM      9  C   UNL     1       1.098   3.095  19.587  0.00  0.00    +0.000 C 
ATOM     10  F   UNL     1       1.508   2.245  20.566  0.00  0.00    +0.000 F 
ATOM     11  F   UNL     1       0.369   4.062  20.214  0.00  0.00    +0.000 F 
ATOM     12  F   UNL     1       0.216   2.390  18.830  0.00  0.00    +0.000 F 
ENDBRANCH   6   9
ENDBRANCH   1   3
BRANCH   1  13
ATOM     13  C   UNL     1       6.279   6.586  17.044  0.00  0.00    +0.000 C 
BRANCH  13  14
ATOM     14  C   UNL     1       7.342   6.273  18.096  0.00  0.00    +0.000 C 
BRANCH  14  15
ATOM     15  C   UNL     1       8.190   7.489  18.474  0.00  0.00    +0.000 C 
BRANCH  15  16
ATOM     16  C   UNL     1       7.779   8.675  17.606  0.00  0.00    +0.000 C 
BRANCH  16  18
ATOM     17  C   UNL     1       9.107   9.753  19.201  0.00  0.00    +0.000 C 
ATOM     18  O   UNL     1       8.615   9.798  17.864  0.00  0.00    +0.000 OA
ENDBRANCH  16  18
ENDBRANCH  15  16
ENDBRANCH  14  15
ENDBRANCH  13  14
ENDBRANCH   1  13
BRANCH   2  19
ATOM     19  O   UNL     1       7.167   5.248  14.957  0.00  0.00    +0.000 OA
BRANCH  19  20
ATOM     20  C   UNL     1       7.329   4.900  13.582  0.00  0.00    +0.000 C 
BRANCH  20  21
ATOM     21  C   UNL     1       6.214   3.903  13.247  0.00  0.00    +0.000 C 
BRANCH  21  22
ATOM     22  N   UNL     1       6.607   2.863  12.297  0.00  0.00    +0.000 NA
ATOM     23  H   UNL     1       7.601   2.952  12.086  0.00  0.00    +0.000 HD
ATOM     24  H   UNL     1       6.120   3.024  11.414  0.00  0.00    +0.000 HD
ENDBRANCH  21  22
ENDBRANCH  20  21
ENDBRANCH  19  20
ENDBRANCH   2  19
TORSDOF 11
ENDMDL
MODEL 5
REMARK VINA RESULT:      -6.4      4.343      6.154
REMARK  Name = 
REMARK  12 active torsions:
REMARK  status: ('A' for Active; 'I' for Inactive)
REMARK    1  A    between atoms: C_1  and  O_2
REMARK    2  A    between atoms: O_2  and  C_3
REMARK    3  A    between atoms: C_3  and  C_4
REMARK    4  A    between atoms: C_4  and  C_5
REMARK    5  A    between atoms: C_5  and  C_6
REMARK    6  A    between atoms: C_6  and  C_7
REMARK    7  A    between atoms: C_7  and  C_13
REMARK    8  A    between atoms: N_8  and  O_9
REMARK    9  A    between atoms: O_9  and  C_10
REMARK   10  A    between atoms: C_10  and  C_11
REMARK   11  A    between atoms: C_11  and  N_12
REMARK   12  A    between atoms: C_16  and  C_17
REMARK                            x       y       z     vdW  Elec       q    Type
REMARK                         _______ _______ _______ _____ _____    ______ ____
ROOT
ATOM      1  C   UNL     1       2.498   6.044  20.025  0.00  0.00    +0.000 C 
ATOM      2  N   UNL     1       2.148   7.306  20.005  0.00  0.00    +0.000 NA
ENDROOT
BRANCH   1   3
ATOM      3  C   UNL     1       3.601   5.593  19.091  0.00  0.00    +0.000 A 
ATOM      4  C   UNL     1       4.837   5.126  19.556  0.00  0.00    +0.000 A 
ATOM      5  C   UNL     1       5.859   4.787  18.664  0.00  0.00    +0.000 A 
ATOM      6  C   UNL     1       5.674   4.898  17.281  0.00  0.00    +0.000 A 
ATOM      7  C   UNL     1       4.431   5.336  16.808  0.00  0.00    +0.000 A 
ATOM      8  C   UNL     1       3.406   5.684  17.704  0.00  0.00    +0.000 A 
BRANCH   6   9
ATOM      9  C   UNL     1       6.792   4.542  16.330  0.00  0.00    +0.000 C 
ATOM     10  F   UNL     1       7.183   5.578  15.541  0.00  0.00    +0.000 F 
ATOM     11  F   UNL     1       7.916   4.124  16.979  0.00  0.00    +0.000 F 
ATOM     12  F   UNL     1       6.453   3.537  15.479  0.00  0.00    +0.000 F 
ENDBRANCH   6   9
ENDBRANCH   1   3
BRANCH   1  13
ATOM     13  C   UNL     1       1.855   5.032  20.992  0.00  0.00    +0.000 C 
BRANCH  13  14
ATOM     14  C   UNL     1       0.906   4.073  20.274  0.00  0.00    +0.000 C 
BRANCH  14  15
ATOM     15  C   UNL     1       1.549   2.722  19.950  0.00  0.00    +0.000 C 
BRANCH  15  16
ATOM     16  C   UNL     1       1.052   2.245  18.590  0.00  0.00    +0.000 C 
BRANCH  16  18
ATOM     17  C   UNL     1       3.325   1.917  18.144  0.00  0.00    +0.000 C 
ATOM     18  O   UNL     1       2.079   2.363  17.611  0.00  0.00    +0.000 OA
ENDBRANCH  16  18
ENDBRANCH  15  16
ENDBRANCH  14  15
ENDBRANCH  13  14
ENDBRANCH   1  13
BRANCH   2  19
ATOM     19  O   UNL     1       1.177   7.576  20.976  0.00  0.00    +0.000 OA
BRANCH  19  20
ATOM     20  C   UNL     1       1.053   8.983  21.184  0.00  0.00    +0.000 C 
BRANCH  20  21
ATOM     21  C   UNL     1       0.797   9.608  19.808  0.00  0.00    +0.000 C 
BRANCH  21  22
ATOM     22  N   UNL     1      -0.569  10.096  19.617  0.00  0.00    +0.000 NA
ATOM     23  H   UNL     1      -1.146   9.351  19.228  0.00  0.00    +0.000 HD
ATOM     24  H   UNL     1      -0.558  10.836  18.914  0.00  0.00    +0.000 HD
ENDBRANCH  21  22
ENDBRANCH  20  21
ENDBRANCH  19  20
ENDBRANCH   2  19
TORSDOF 11
ENDMDL
MODEL 6
REMARK VINA RESULT:      -6.4      3.776      6.174
REMARK  Name = 
REMARK  12 active torsions:
REMARK  status: ('A' for Active; 'I' for Inactive)
REMARK    1  A    between atoms: C_1  and  O_2
REMARK    2  A    between atoms: O_2  and  C_3
REMARK    3  A    between atoms: C_3  and  C_4
REMARK    4  A    between atoms: C_4  and  C_5
REMARK    5  A    between atoms: C_5  and  C_6
REMARK    6  A    between atoms: C_6  and  C_7
REMARK    7  A    between atoms: C_7  and  C_13
REMARK    8  A    between atoms: N_8  and  O_9
REMARK    9  A    between atoms: O_9  and  C_10
REMARK   10  A    between atoms: C_10  and  C_11
REMARK   11  A    between atoms: C_11  and  N_12
REMARK   12  A    between atoms: C_16  and  C_17
REMARK                            x       y       z     vdW  Elec       q    Type
REMARK                         _______ _______ _______ _____ _____    ______ ____
ROOT
ATOM      1  C   UNL     1       6.203   4.916  17.244  0.00  0.00    +0.000 C 
ATOM      2  N   UNL     1       6.038   5.088  15.956  0.00  0.00    +0.000 NA
ENDROOT
BRANCH   1   3
ATOM      3  C   UNL     1       4.993   4.553  18.079  0.00  0.00    +0.000 A 
ATOM      4  C   UNL     1       4.211   3.421  17.820  0.00  0.00    +0.000 A 
ATOM      5  C   UNL     1       3.058   3.157  18.565  0.00  0.00    +0.000 A 
ATOM      6  C   UNL     1       2.655   4.014  19.596  0.00  0.00    +0.000 A 
ATOM      7  C   UNL     1       3.448   5.133  19.880  0.00  0.00    +0.000 A 
ATOM      8  C   UNL     1       4.603   5.402  19.127  0.00  0.00    +0.000 A 
BRANCH   6   9
ATOM      9  C   UNL     1       1.400   3.723  20.384  0.00  0.00    +0.000 C 
ATOM     10  F   UNL     1       1.644   3.236  21.630  0.00  0.00    +0.000 F 
ATOM     11  F   UNL     1       0.628   4.833  20.562  0.00  0.00    +0.000 F 
ATOM     12  F   UNL     1       0.603   2.803  19.777  0.00  0.00    +0.000 F 
ENDBRANCH   6   9
ENDBRANCH   1   3
BRANCH   1  13
ATOM     13  C   UNL     1       7.585   5.030  17.914  0.00  0.00    +0.000 C 
BRANCH  13  14
ATOM     14  C   UNL     1       7.743   6.337  18.690  0.00  0.00    +0.000 C 
BRANCH  14  15
ATOM     15  C   UNL     1       7.799   7.569  17.785  0.00  0.00    +0.000 C 
BRANCH  15  16
ATOM     16  C   UNL     1       8.520   8.696  18.518  0.00  0.00    +0.000 C 
BRANCH  16  18
ATOM     17  C   UNL     1       9.182  10.902  18.113  0.00  0.00    +0.000 C 
ATOM     18  O   UNL     1       8.114   9.963  18.012  0.00  0.00    +0.000 OA
ENDBRANCH  16  18
ENDBRANCH  15  16
ENDBRANCH  14  15
ENDBRANCH  13  14
ENDBRANCH   1  13
BRANCH   2  19
ATOM     19  O   UNL     1       7.258   5.339  15.320  0.00  0.00    +0.000 OA
BRANCH  19  20
ATOM     20  C   UNL     1       7.186   4.986  13.938  0.00  0.00    +0.000 C 
BRANCH  20  21
ATOM     21  C   UNL     1       6.136   3.875  13.824  0.00  0.00    +0.000 C 
BRANCH  21  22
ATOM     22  N   UNL     1       6.270   3.046  12.627  0.00  0.00    +0.000 NA
ATOM     23  H   UNL     1       5.344   2.816  12.265  0.00  0.00    +0.000 HD
ATOM     24  H   UNL     1       6.694   2.155  12.889  0.00  0.00    +0.000 HD
ENDBRANCH  21  22
ENDBRANCH  20  21
ENDBRANCH  19  20
ENDBRANCH   2  19
TORSDOF 11
ENDMDL
MODEL 7
REMARK VINA RESULT:      -6.4      4.282      5.989
REMARK  Name = 
REMARK  12 active torsions:
REMARK  status: ('A' for Active; 'I' for Inactive)
REMARK    1  A    between atoms: C_1  and  O_2
REMARK    2  A    between atoms: O_2  and  C_3
REMARK    3  A    between atoms: C_3  and  C_4
REMARK    4  A    between atoms: C_4  and  C_5
REMARK    5  A    between atoms: C_5  and  C_6
REMARK    6  A    between atoms: C_6  and  C_7
REMARK    7  A    between atoms: C_7  and  C_13
REMARK    8  A    between atoms: N_8  and  O_9
REMARK    9  A    between atoms: O_9  and  C_10
REMARK   10  A    between atoms: C_10  and  C_11
REMARK   11  A    between atoms: C_11  and  N_12
REMARK   12  A    between atoms: C_16  and  C_17
REMARK                            x       y       z     vdW  Elec       q    Type
REMARK                         _______ _______ _______ _____ _____    ______ ____
ROOT
ATOM      1  C   UNL     1       2.522   6.071  20.022  0.00  0.00    +0.000 C 
ATOM      2  N   UNL     1       2.100   7.310  20.061  0.00  0.00    +0.000 NA
ENDROOT
BRANCH   1   3
ATOM      3  C   UNL     1       3.611   5.717  19.031  0.00  0.00    +0.000 A 
ATOM      4  C   UNL     1       3.371   5.604  17.657  0.00  0.00    +0.000 A 
ATOM      5  C   UNL     1       4.383   5.203  16.780  0.00  0.00    +0.000 A 
ATOM      6  C   UNL     1       5.668   4.908  17.251  0.00  0.00    +0.000 A 
ATOM      7  C   UNL     1       5.924   5.047  18.621  0.00  0.00    +0.000 A 
ATOM      8  C   UNL     1       4.904   5.443  19.503  0.00  0.00    +0.000 A 
BRANCH   6   9
ATOM      9  C   UNL     1       6.749   4.463  16.294  0.00  0.00    +0.000 C 
ATOM     10  F   UNL     1       7.104   5.419  15.395  0.00  0.00    +0.000 F 
ATOM     11  F   UNL     1       7.899   4.109  16.935  0.00  0.00    +0.000 F 
ATOM     12  F   UNL     1       6.381   3.381  15.557  0.00  0.00    +0.000 F 
ENDBRANCH   6   9
ENDBRANCH   1   3
BRANCH   1  13
ATOM     13  C   UNL     1       1.977   4.990  20.974  0.00  0.00    +0.000 C 
BRANCH  13  14
ATOM     14  C   UNL     1       0.907   4.124  20.311  0.00  0.00    +0.000 C 
BRANCH  14  15
ATOM     15  C   UNL     1       1.159   2.624  20.478  0.00  0.00    +0.000 C 
BRANCH  15  16
ATOM     16  C   UNL     1       1.751   2.069  19.188  0.00  0.00    +0.000 C 
BRANCH  16  18
ATOM     17  C   UNL     1       3.711   1.723  17.959  0.00  0.00    +0.000 C 
ATOM     18  O   UNL     1       3.164   2.243  19.169  0.00  0.00    +0.000 OA
ENDBRANCH  16  18
ENDBRANCH  15  16
ENDBRANCH  14  15
ENDBRANCH  13  14
ENDBRANCH   1  13
BRANCH   2  19
ATOM     19  O   UNL     1       1.155   7.490  21.078  0.00  0.00    +0.000 OA
BRANCH  19  20
ATOM     20  C   UNL     1       0.479   8.737  20.921  0.00  0.00    +0.000 C 
BRANCH  20  21
ATOM     21  C   UNL     1       0.809   9.574  22.162  0.00  0.00    +0.000 C 
BRANCH  21  22
ATOM     22  N   UNL     1       2.099   9.254  22.773  0.00  0.00    +0.000 NA
ATOM     23  H   UNL     1       1.990   8.460  23.403  0.00  0.00    +0.000 HD
ATOM     24  H   UNL     1       2.387  10.038  23.361  0.00  0.00    +0.000 HD
ENDBRANCH  21  22
ENDBRANCH  20  21
ENDBRANCH  19  20
ENDBRANCH   2  19
TORSDOF 11
ENDMDL
MODEL 8
REMARK VINA RESULT:      -6.4      4.400      6.072
REMARK  Name = 
REMARK  12 active torsions:
REMARK  status: ('A' for Active; 'I' for Inactive)
REMARK    1  A    between atoms: C_1  and  O_2
REMARK    2  A    between atoms: O_2  and  C_3
REMARK    3  A    between atoms: C_3  and  C_4
REMARK    4  A    between atoms: C_4  and  C_5
REMARK    5  A    between atoms: C_5  and  C_6
REMARK    6  A    between atoms: C_6  and  C_7
REMARK    7  A    between atoms: C_7  and  C_13
REMARK    8  A    between atoms: N_8  and  O_9
REMARK    9  A    between atoms: O_9  and  C_10
REMARK   10  A    between atoms: C_10  and  C_11
REMARK   11  A    between atoms: C_11  and  N_12
REMARK   12  A    between atoms: C_16  and  C_17
REMARK                            x       y       z     vdW  Elec       q    Type
REMARK                         _______ _______ _______ _____ _____    ______ ____
ROOT
ATOM      1  C   UNL     1       2.350   6.163  19.819  0.00  0.00    +0.000 C 
ATOM      2  N   UNL     1       2.161   7.448  19.988  0.00  0.00    +0.000 NA
ENDROOT
BRANCH   1   3
ATOM      3  C   UNL     1       3.531   5.717  18.984  0.00  0.00    +0.000 A 
ATOM      4  C   UNL     1       4.691   5.172  19.549  0.00  0.00    +0.000 A 
ATOM      5  C   UNL     1       5.791   4.839  18.753  0.00  0.00    +0.000 A 
ATOM      6  C   UNL     1       5.763   5.034  17.368  0.00  0.00    +0.000 A 
ATOM      7  C   UNL     1       4.596   5.551  16.791  0.00  0.00    +0.000 A 
ATOM      8  C   UNL     1       3.493   5.893  17.592  0.00  0.00    +0.000 A 
BRANCH   6   9
ATOM      9  C   UNL     1       6.964   4.683  16.522  0.00  0.00    +0.000 C 
ATOM     10  F   UNL     1       8.031   4.255  17.249  0.00  0.00    +0.000 F 
ATOM     11  F   UNL     1       6.699   3.688  15.629  0.00  0.00    +0.000 F 
ATOM     12  F   UNL     1       7.414   5.736  15.790  0.00  0.00    +0.000 F 
ENDBRANCH   6   9
ENDBRANCH   1   3
BRANCH   1  13
ATOM     13  C   UNL     1       1.439   5.109  20.476  0.00  0.00    +0.000 C 
BRANCH  13  14
ATOM     14  C   UNL     1       1.121   3.952  19.530  0.00  0.00    +0.000 C 
BRANCH  14  15
ATOM     15  C   UNL     1       1.466   2.583  20.118  0.00  0.00    +0.000 C 
BRANCH  15  16
ATOM     16  C   UNL     1       1.619   2.711  21.630  0.00  0.00    +0.000 C 
BRANCH  16  18
ATOM     17  C   UNL     1       3.752   2.093  20.895  0.00  0.00    +0.000 C 
ATOM     18  O   UNL     1       2.929   2.328  22.036  0.00  0.00    +0.000 OA
ENDBRANCH  16  18
ENDBRANCH  15  16
ENDBRANCH  14  15
ENDBRANCH  13  14
ENDBRANCH   1  13
BRANCH   2  19
ATOM     19  O   UNL     1       1.082   7.692  20.844  0.00  0.00    +0.000 OA
BRANCH  19  20
ATOM     20  C   UNL     1       0.945   9.091  21.094  0.00  0.00    +0.000 C 
BRANCH  20  21
ATOM     21  C   UNL     1       1.356   9.318  22.553  0.00  0.00    +0.000 C 
BRANCH  21  22
ATOM     22  N   UNL     1       0.261   9.747  23.423  0.00  0.00    +0.000 NA
ATOM     23  H   UNL     1      -0.630   9.580  22.957  0.00  0.00    +0.000 HD
ATOM     24  H   UNL     1       0.322  10.757  23.554  0.00  0.00    +0.000 HD
ENDBRANCH  21  22
ENDBRANCH  20  21
ENDBRANCH  19  20
ENDBRANCH   2  19
TORSDOF 11
ENDMDL
MODEL 9
REMARK VINA RESULT:      -6.4      1.426      1.619
REMARK  Name = 
REMARK  12 active torsions:
REMARK  status: ('A' for Active; 'I' for Inactive)
REMARK    1  A    between atoms: C_1  and  O_2
REMARK    2  A    between atoms: O_2  and  C_3
REMARK    3  A    between atoms: C_3  and  C_4
REMARK    4  A    between atoms: C_4  and  C_5
REMARK    5  A    between atoms: C_5  and  C_6
REMARK    6  A    between atoms: C_6  and  C_7
REMARK    7  A    between atoms: C_7  and  C_13
REMARK    8  A    between atoms: N_8  and  O_9
REMARK    9  A    between atoms: O_9  and  C_10
REMARK   10  A    between atoms: C_10  and  C_11
REMARK   11  A    between atoms: C_11  and  N_12
REMARK   12  A    between atoms: C_16  and  C_17
REMARK                            x       y       z     vdW  Elec       q    Type
REMARK                         _______ _______ _______ _____ _____    ______ ____
ROOT
ATOM      1  C   UNL     1       3.532   6.324  17.813  0.00  0.00    +0.000 C 
ATOM      2  N   UNL     1       4.435   6.801  16.994  0.00  0.00    +0.000 NA
ENDROOT
BRANCH   1   3
ATOM      3  C   UNL     1       2.611   7.302  18.512  0.00  0.00    +0.000 A 
ATOM      4  C   UNL     1       2.111   8.448  17.882  0.00  0.00    +0.000 A 
ATOM      5  C   UNL     1       1.323   9.367  18.580  0.00  0.00    +0.000 A 
ATOM      6  C   UNL     1       1.007   9.167  19.929  0.00  0.00    +0.000 A 
ATOM      7  C   UNL     1       1.479   8.008  20.559  0.00  0.00    +0.000 A 
ATOM      8  C   UNL     1       2.277   7.088  19.859  0.00  0.00    +0.000 A 
BRANCH   6   9
ATOM      9  C   UNL     1       0.166  10.175  20.675  0.00  0.00    +0.000 C 
ATOM     10  F   UNL     1      -0.446   9.661  21.775  0.00  0.00    +0.000 F 
ATOM     11  F   UNL     1       0.897  11.238  21.118  0.00  0.00    +0.000 F 
ATOM     12  F   UNL     1      -0.828  10.696  19.908  0.00  0.00    +0.000 F 
ENDBRANCH   6   9
ENDBRANCH   1   3
BRANCH   1  13
ATOM     13  C   UNL     1       3.355   4.812  18.046  0.00  0.00    +0.000 C 
BRANCH  13  14
ATOM     14  C   UNL     1       2.000   4.307  17.553  0.00  0.00    +0.000 C 
BRANCH  14  15
ATOM     15  C   UNL     1       1.193   3.593  18.639  0.00  0.00    +0.000 C 
BRANCH  15  16
ATOM     16  C   UNL     1       2.110   2.642  19.401  0.00  0.00    +0.000 C 
BRANCH  16  18
ATOM     17  C   UNL     1       2.120   3.416  21.607  0.00  0.00    +0.000 C 
ATOM     18  O   UNL     1       1.620   2.420  20.718  0.00  0.00    +0.000 OA
ENDBRANCH  16  18
ENDBRANCH  15  16
ENDBRANCH  14  15
ENDBRANCH  13  14
ENDBRANCH   1  13
BRANCH   2  19
ATOM     19  O   UNL     1       5.148   5.770  16.372  0.00  0.00    +0.000 OA
BRANCH  19  20
ATOM     20  C   UNL     1       6.537   5.857  16.689  0.00  0.00    +0.000 C 
BRANCH  20  21
ATOM     21  C   UNL     1       7.076   4.422  16.694  0.00  0.00    +0.000 C 
BRANCH  21  22
ATOM     22  N   UNL     1       8.141   4.186  17.668  0.00  0.00    +0.000 NA
ATOM     23  H   UNL     1       7.992   4.777  18.486  0.00  0.00    +0.000 HD
ATOM     24  H   UNL     1       9.028   4.489  17.264  0.00  0.00    +0.000 HD
ENDBRANCH  21  22
ENDBRANCH  20  21
ENDBRANCH  19  20
ENDBRANCH   2  19
TORSDOF 11
ENDMDL
