MODEL 1
REMARK VINA RESULT:      -7.0      0.000      0.000
REMARK  Name = 
REMARK  4 active torsions:
REMARK  status: ('A' for Active; 'I' for Inactive)
REMARK    1  A    between atoms: C_1  and  N_2
REMARK    2  A    between atoms: N_4  and  C_5
REMARK    3  A    between atoms: C_5  and  C_6
REMARK    4  A    between atoms: C_6  and  C_8
REMARK                            x       y       z     vdW  Elec       q    Type
REMARK                         _______ _______ _______ _____ _____    ______ ____
ROOT
ATOM      1  C   UNL     1       5.380   5.752  16.450  0.00  0.00    +0.000 C 
ENDROOT
BRANCH   1   5
ATOM      2  C   UNL     1       3.549   1.610  18.363  0.00  0.00    +0.000 C 
ATOM      3  N   UNL     1       3.680   3.031  18.064  0.00  0.00    +0.000 N 
ATOM      4  C   UNL     1       4.574   3.533  17.203  0.00  0.00    +0.000 A 
ATOM      5  N   UNL     1       4.474   4.872  17.221  0.00  0.00    +0.000 N 
ATOM      6  C   UNL     1       3.415   5.242  18.054  0.00  0.00    +0.000 A 
ATOM      7  I   UNL     1       2.781   7.151  18.415  0.00  0.00    +0.000 I 
ATOM      8  C   UNL     1       2.911   4.070  18.586  0.00  0.00    +0.000 A 
ATOM      9  I   UNL     1       1.365   3.855  19.905  0.00  0.00    +0.000 I 
ENDBRANCH   1   5
BRANCH   1  10
ATOM     10  C   UNL     1       6.618   5.009  15.949  0.00  0.00    +0.000 C 
ATOM     11  O   UNL     1       7.514   4.630  16.698  0.00  0.00    +0.000 OA
BRANCH  10  12
ATOM     12  C   UNL     1       6.661   4.739  14.487  0.00  0.00    +0.000 A 
ATOM     13  C   UNL     1       5.823   3.774  13.913  0.00  0.00    +0.000 A 
ATOM     14  C   UNL     1       5.997   3.409  12.579  0.00  0.00    +0.000 A 
ATOM     15  C   UNL     1       6.992   4.017  11.816  0.00  0.00    +0.000 A 
ATOM     16  C   UNL     1       7.787   5.021  12.369  0.00  0.00    +0.000 A 
ATOM     17  C   UNL     1       7.616   5.394  13.705  0.00  0.00    +0.000 A 
ENDBRANCH  10  12
ENDBRANCH   1  10
TORSDOF 3
ENDMDL
MODEL 2
REMARK VINA RESULT:      -6.9      0.163      1.186
REMARK  Name = 
REMARK  4 active torsions:
REMARK  status: ('A' for Active; 'I' for Inactive)
REMARK    1  A    between atoms: C_1  and  N_2
REMARK    2  A    between atoms: N_4  and  C_5
REMARK    3  A    between atoms: C_5  and  C_6
REMARK    4  A    between atoms: C_6  and  C_8
REMARK                            x       y       z     vdW  Elec       q    Type
REMARK                         _______ _______ _______ _____ _____    ______ ____
ROOT
ATOM      1  C   UNL     1       5.151   5.709  16.241  0.00  0.00    +0.000 C 
ENDROOT
BRANCH   1   5
ATOM      2  C   UNL     1       3.507   1.628  18.433  0.00  0.00    +0.000 C 
ATOM      3  N   UNL     1       3.606   3.040  18.079  0.00  0.00    +0.000 N 
ATOM      4  C   UNL     1       4.422   3.515  17.129  0.00  0.00    +0.000 A 
ATOM      5  N   UNL     1       4.318   4.853  17.113  0.00  0.00    +0.000 N 
ATOM      6  C   UNL     1       3.331   5.248  18.020  0.00  0.00    +0.000 A 
ATOM      7  I   UNL     1       2.721   7.167  18.372  0.00  0.00    +0.000 I 
ATOM      8  C   UNL     1       2.879   4.093  18.630  0.00  0.00    +0.000 A 
ATOM      9  I   UNL     1       1.450   3.918  20.080  0.00  0.00    +0.000 I 
ENDBRANCH   1   5
BRANCH   1  10
ATOM     10  C   UNL     1       6.516   5.084  15.953  0.00  0.00    +0.000 C 
ATOM     11  O   UNL     1       7.355   4.887  16.827  0.00  0.00    +0.000 OA
BRANCH  10  12
ATOM     12  C   UNL     1       6.760   4.693  14.538  0.00  0.00    +0.000 A 
ATOM     13  C   UNL     1       7.708   5.373  13.763  0.00  0.00    +0.000 A 
ATOM     14  C   UNL     1       7.800   5.113  12.396  0.00  0.00    +0.000 A 
ATOM     15  C   UNL     1       6.963   4.166  11.809  0.00  0.00    +0.000 A 
ATOM     16  C   UNL     1       6.060   3.446  12.592  0.00  0.00    +0.000 A 
ATOM     17  C   UNL     1       5.964   3.699  13.963  0.00  0.00    +0.000 A 
ENDBRANCH  10  12
ENDBRANCH   1  10
TORSDOF 3
ENDMDL
MODEL 3
REMARK VINA RESULT:      -6.7      1.979      3.419
REMARK  Name = 
REMARK  4 active torsions:
REMARK  status: ('A' for Active; 'I' for Inactive)
REMARK    1  A    between atoms: C_1  and  N_2
REMARK    2  A    between atoms: N_4  and  C_5
REMARK    3  A    between atoms: C_5  and  C_6
REMARK    4  A    between atoms: C_6  and  C_8
REMARK                            x       y       z     vdW  Elec       q    Type
REMARK                         _______ _______ _______ _____ _____    ______ ____
ROOT
ATOM      1  C   UNL     1       4.768   5.176  15.879  0.00  0.00    +0.000 C 
ENDROOT
BRANCH   1   5
ATOM      2  C   UNL     1       3.360   1.562  18.899  0.00  0.00    +0.000 C 
ATOM      3  N   UNL     1       3.465   2.902  18.333  0.00  0.00    +0.000 N 
ATOM      4  C   UNL     1       4.107   3.182  17.192  0.00  0.00    +0.000 A 
ATOM      5  N   UNL     1       4.074   4.511  17.003  0.00  0.00    +0.000 N 
ATOM      6  C   UNL     1       3.304   5.099  18.011  0.00  0.00    +0.000 A 
ATOM      7  I   UNL     1       2.879   7.090  18.191  0.00  0.00    +0.000 I 
ATOM      8  C   UNL     1       2.918   4.074  18.853  0.00  0.00    +0.000 A 
ATOM      9  I   UNL     1       1.789   4.204  20.551  0.00  0.00    +0.000 I 
ENDBRANCH   1   5
BRANCH   1  10
ATOM     10  C   UNL     1       6.271   4.900  15.884  0.00  0.00    +0.000 C 
ATOM     11  O   UNL     1       6.813   4.156  15.071  0.00  0.00    +0.000 OA
BRANCH  10  12
ATOM     12  C   UNL     1       7.055   5.617  16.925  0.00  0.00    +0.000 A 
ATOM     13  C   UNL     1       7.478   4.955  18.084  0.00  0.00    +0.000 A 
ATOM     14  C   UNL     1       8.056   5.680  19.125  0.00  0.00    +0.000 A 
ATOM     15  C   UNL     1       8.227   7.058  19.002  0.00  0.00    +0.000 A 
ATOM     16  C   UNL     1       7.861   7.709  17.824  0.00  0.00    +0.000 A 
ATOM     17  C   UNL     1       7.284   6.988  16.775  0.00  0.00    +0.000 A 
ENDBRANCH  10  12
ENDBRANCH   1  10
TORSDOF 3
ENDMDL
MODEL 4
REMARK VINA RESULT:      -6.6      2.016      3.535
REMARK  Name = 
REMARK  4 active torsions:
REMARK  status: ('A' for Active; 'I' for Inactive)
REMARK    1  A    between atoms: C_1  and  N_2
REMARK    2  A    between atoms: N_4  and  C_5
REMARK    3  A    between atoms: C_5  and  C_6
REMARK    4  A    between atoms: C_6  and  C_8
REMARK                            x       y       z     vdW  Elec       q    Type
REMARK                         _______ _______ _______ _____ _____    ______ ____
ROOT
ATOM      1  C   UNL     1       4.807   4.869  15.742  0.00  0.00    +0.000 C 
ENDROOT
BRANCH   1   5
ATOM      2  C   UNL     1       3.081   1.773  19.147  0.00  0.00    +0.000 C 
ATOM      3  N   UNL     1       3.324   3.027  18.443  0.00  0.00    +0.000 N 
ATOM      4  C   UNL     1       3.959   3.112  17.267  0.00  0.00    +0.000 A 
ATOM      5  N   UNL     1       4.075   4.409  16.941  0.00  0.00    +0.000 N 
ATOM      6  C   UNL     1       3.407   5.183  17.895  0.00  0.00    +0.000 A 
ATOM      7  I   UNL     1       3.220   7.218  17.872  0.00  0.00    +0.000 I 
ATOM      8  C   UNL     1       2.930   4.302  18.846  0.00  0.00    +0.000 A 
ATOM      9  I   UNL     1       1.875   4.737  20.541  0.00  0.00    +0.000 I 
ENDBRANCH   1   5
BRANCH   1  10
ATOM     10  C   UNL     1       6.322   4.785  15.924  0.00  0.00    +0.000 C 
ATOM     11  O   UNL     1       7.037   4.072  15.225  0.00  0.00    +0.000 OA
BRANCH  10  12
ATOM     12  C   UNL     1       6.893   5.653  16.989  0.00  0.00    +0.000 A 
ATOM     13  C   UNL     1       7.060   7.027  16.779  0.00  0.00    +0.000 A 
ATOM     14  C   UNL     1       7.755   7.793  17.714  0.00  0.00    +0.000 A 
ATOM     15  C   UNL     1       8.266   7.192  18.863  0.00  0.00    +0.000 A 
ATOM     16  C   UNL     1       8.048   5.835  19.103  0.00  0.00    +0.000 A 
ATOM     17  C   UNL     1       7.350   5.062  18.171  0.00  0.00    +0.000 A 
ENDBRANCH  10  12
ENDBRANCH   1  10
TORSDOF 3
ENDMDL
MODEL 5
REMARK VINA RESULT:      -6.4      1.443      2.385
REMARK  Name = 
REMARK  4 active torsions:
REMARK  status: ('A' for Active; 'I' for Inactive)
REMARK    1  A    between atoms: C_1  and  N_2
REMARK    2  A    between atoms: N_4  and  C_5
REMARK    3  A    between atoms: C_5  and  C_6
REMARK    4  A    between atoms: C_6  and  C_8
REMARK                            x       y       z     vdW  Elec       q    Type
REMARK                         _______ _______ _______ _____ _____    ______ ____
ROOT
ATOM      1  C   UNL     1       6.041   4.297  16.915  0.00  0.00    +0.000 C 
ENDROOT
BRANCH   1   5
ATOM      2  C   UNL     1       2.850   7.898  17.922  0.00  0.00    +0.000 C 
ATOM      3  N   UNL     1       3.543   6.619  18.036  0.00  0.00    +0.000 N 
ATOM      4  C   UNL     1       4.613   6.283  17.305  0.00  0.00    +0.000 A 
ATOM      5  N   UNL     1       4.952   5.020  17.607  0.00  0.00    +0.000 N 
ATOM      6  C   UNL     1       4.128   4.557  18.637  0.00  0.00    +0.000 A 
ATOM      7  I   UNL     1       4.230   2.718  19.523  0.00  0.00    +0.000 I 
ATOM      8  C   UNL     1       3.235   5.576  18.908  0.00  0.00    +0.000 A 
ATOM      9  I   UNL     1       1.727   5.588  20.287  0.00  0.00    +0.000 I 
ENDBRANCH   1   5
BRANCH   1  10
ATOM     10  C   UNL     1       6.806   5.197  15.946  0.00  0.00    +0.000 C 
ATOM     11  O   UNL     1       7.482   6.153  16.319  0.00  0.00    +0.000 OA
BRANCH  10  12
ATOM     12  C   UNL     1       6.710   4.827  14.508  0.00  0.00    +0.000 A 
ATOM     13  C   UNL     1       5.748   3.908  14.070  0.00  0.00    +0.000 A 
ATOM     14  C   UNL     1       5.784   3.440  12.757  0.00  0.00    +0.000 A 
ATOM     15  C   UNL     1       6.765   3.900  11.881  0.00  0.00    +0.000 A 
ATOM     16  C   UNL     1       7.687   4.861  12.300  0.00  0.00    +0.000 A 
ATOM     17  C   UNL     1       7.655   5.337  13.613  0.00  0.00    +0.000 A 
ENDBRANCH  10  12
ENDBRANCH   1  10
TORSDOF 3
ENDMDL
MODEL 6
REMARK VINA RESULT:      -6.3      2.676      4.150
REMARK  Name = 
REMARK  4 active torsions:
REMARK  status: ('A' for Active; 'I' for Inactive)
REMARK    1  A    between atoms: C_1  and  N_2
REMARK    2  A    between atoms: N_4  and  C_5
REMARK    3  A    between atoms: C_5  and  C_6
REMARK    4  A    between atoms: C_6  and  C_8
REMARK                            x       y       z     vdW  Elec       q    Type
REMARK                         _______ _______ _______ _____ _____    ______ ____
ROOT
ATOM      1  C   UNL     1       4.320   4.688  16.255  0.00  0.00    +0.000 C 
ENDROOT
BRANCH   1   5
ATOM      2  C   UNL     1       2.140   6.907  20.061  0.00  0.00    +0.000 C 
ATOM      3  N   UNL     1       2.709   5.836  19.252  0.00  0.00    +0.000 N 
ATOM      4  C   UNL     1       3.350   6.036  18.093  0.00  0.00    +0.000 A 
ATOM      5  N   UNL     1       3.677   4.840  17.579  0.00  0.00    +0.000 N 
ATOM      6  C   UNL     1       3.317   3.837  18.483  0.00  0.00    +0.000 A 
ATOM      7  I   UNL     1       3.623   1.831  18.237  0.00  0.00    +0.000 I 
ATOM      8  C   UNL     1       2.704   4.473  19.545  0.00  0.00    +0.000 A 
ATOM      9  I   UNL     1       1.906   3.624  21.224  0.00  0.00    +0.000 I 
ENDBRANCH   1   5
BRANCH   1  10
ATOM     10  C   UNL     1       5.828   4.466  16.369  0.00  0.00    +0.000 C 
ATOM     11  O   UNL     1       6.415   3.570  15.768  0.00  0.00    +0.000 OA
BRANCH  10  12
ATOM     12  C   UNL     1       6.559   5.429  17.235  0.00  0.00    +0.000 A 
ATOM     13  C   UNL     1       6.764   6.751  16.820  0.00  0.00    +0.000 A 
ATOM     14  C   UNL     1       7.598   7.589  17.559  0.00  0.00    +0.000 A 
ATOM     15  C   UNL     1       8.210   7.114  18.717  0.00  0.00    +0.000 A 
ATOM     16  C   UNL     1       7.959   5.817  19.165  0.00  0.00    +0.000 A 
ATOM     17  C   UNL     1       7.122   4.973  18.431  0.00  0.00    +0.000 A 
ENDBRANCH  10  12
ENDBRANCH   1  10
TORSDOF 3
ENDMDL
MODEL 7
REMARK VINA RESULT:      -6.3      2.668      4.032
REMARK  Name = 
REMARK  4 active torsions:
REMARK  status: ('A' for Active; 'I' for Inactive)
REMARK    1  A    between atoms: C_1  and  N_2
REMARK    2  A    between atoms: N_4  and  C_5
REMARK    3  A    between atoms: C_5  and  C_6
REMARK    4  A    between atoms: C_6  and  C_8
REMARK                            x       y       z     vdW  Elec       q    Type
REMARK                         _______ _______ _______ _____ _____    ______ ____
ROOT
ATOM      1  C   UNL     1       4.339   4.842  16.206  0.00  0.00    +0.000 C 
ENDROOT
BRANCH   1   5
ATOM      2  C   UNL     1       2.212   7.000  20.077  0.00  0.00    +0.000 C 
ATOM      3  N   UNL     1       2.756   5.940  19.237  0.00  0.00    +0.000 N 
ATOM      4  C   UNL     1       3.402   6.158  18.084  0.00  0.00    +0.000 A 
ATOM      5  N   UNL     1       3.701   4.971  17.534  0.00  0.00    +0.000 N 
ATOM      6  C   UNL     1       3.317   3.951  18.410  0.00  0.00    +0.000 A 
ATOM      7  I   UNL     1       3.577   1.946  18.105  0.00  0.00    +0.000 I 
ATOM      8  C   UNL     1       2.719   4.570  19.490  0.00  0.00    +0.000 A 
ATOM      9  I   UNL     1       1.903   3.691  21.145  0.00  0.00    +0.000 I 
ENDBRANCH   1   5
BRANCH   1  10
ATOM     10  C   UNL     1       5.795   4.390  16.308  0.00  0.00    +0.000 C 
ATOM     11  O   UNL     1       6.215   3.373  15.762  0.00  0.00    +0.000 OA
BRANCH  10  12
ATOM     12  C   UNL     1       6.694   5.280  17.091  0.00  0.00    +0.000 A 
ATOM     13  C   UNL     1       7.272   4.838  18.288  0.00  0.00    +0.000 A 
ATOM     14  C   UNL     1       7.966   5.737  19.096  0.00  0.00    +0.000 A 
ATOM     15  C   UNL     1       8.099   7.068  18.702  0.00  0.00    +0.000 A 
ATOM     16  C   UNL     1       7.575   7.495  17.481  0.00  0.00    +0.000 A 
ATOM     17  C   UNL     1       6.881   6.598  16.665  0.00  0.00    +0.000 A 
ENDBRANCH  10  12
ENDBRANCH   1  10
TORSDOF 3
ENDMDL
MODEL 8
REMARK VINA RESULT:      -6.3      2.542      6.430
REMARK  Name = 
REMARK  4 active torsions:
REMARK  status: ('A' for Active; 'I' for Inactive)
REMARK    1  A    between atoms: C_1  and  N_2
REMARK    2  A    between atoms: N_4  and  C_5
REMARK    3  A    between atoms: C_5  and  C_6
REMARK    4  A    between atoms: C_6  and  C_8
REMARK                            x       y       z     vdW  Elec       q    Type
REMARK                         _______ _______ _______ _____ _____    ______ ____
ROOT
ATOM      1  C   UNL     1       3.083   3.414  16.850  0.00  0.00    +0.000 C 
ENDROOT
BRANCH   1   5
ATOM      2  C   UNL     1       7.374   4.836  14.918  0.00  0.00    +0.000 C 
ATOM      3  N   UNL     1       6.230   4.804  15.823  0.00  0.00    +0.000 N 
ATOM      4  C   UNL     1       5.266   3.876  15.774  0.00  0.00    +0.000 A 
ATOM      5  N   UNL     1       4.336   4.183  16.693  0.00  0.00    +0.000 N 
ATOM      6  C   UNL     1       4.763   5.297  17.422  0.00  0.00    +0.000 A 
ATOM      7  I   UNL     1       3.762   6.169  18.977  0.00  0.00    +0.000 I 
ATOM      8  C   UNL     1       5.967   5.687  16.868  0.00  0.00    +0.000 A 
ATOM      9  I   UNL     1       7.150   7.259  17.421  0.00  0.00    +0.000 I 
ENDBRANCH   1   5
BRANCH   1  10
ATOM     10  C   UNL     1       3.204   2.326  17.916  0.00  0.00    +0.000 C 
ATOM     11  O   UNL     1       3.788   1.264  17.719  0.00  0.00    +0.000 OA
BRANCH  10  12
ATOM     12  C   UNL     1       2.592   2.643  19.234  0.00  0.00    +0.000 A 
ATOM     13  C   UNL     1       3.316   2.465  20.420  0.00  0.00    +0.000 A 
ATOM     14  C   UNL     1       2.675   2.597  21.651  0.00  0.00    +0.000 A 
ATOM     15  C   UNL     1       1.321   2.924  21.698  0.00  0.00    +0.000 A 
ATOM     16  C   UNL     1       0.613   3.161  20.519  0.00  0.00    +0.000 A 
ATOM     17  C   UNL     1       1.250   3.033  19.282  0.00  0.00    +0.000 A 
ENDBRANCH  10  12
ENDBRANCH   1  10
TORSDOF 3
ENDMDL
MODEL 9
REMARK VINA RESULT:      -6.2      2.651      3.643
REMARK  Name = 
REMARK  4 active torsions:
REMARK  status: ('A' for Active; 'I' for Inactive)
REMARK    1  A    between atoms: C_1  and  N_2
REMARK    2  A    between atoms: N_4  and  C_5
REMARK    3  A    between atoms: C_5  and  C_6
REMARK    4  A    between atoms: C_6  and  C_8
REMARK                            x       y       z     vdW  Elec       q    Type
REMARK                         _______ _______ _______ _____ _____    ______ ____
ROOT
ATOM      1  C   UNL     1       3.941   6.001  16.997  0.00  0.00    +0.000 C 
ENDROOT
BRANCH   1   5
ATOM      2  C   UNL     1       3.538   1.363  18.573  0.00  0.00    +0.000 C 
ATOM      3  N   UNL     1       3.363   2.810  18.538  0.00  0.00    +0.000 N 
ATOM      4  C   UNL     1       3.779   3.588  17.530  0.00  0.00    +0.000 A 
ATOM      5  N   UNL     1       3.527   4.867  17.851  0.00  0.00    +0.000 N 
ATOM      6  C   UNL     1       2.841   4.908  19.068  0.00  0.00    +0.000 A 
ATOM      7  I   UNL     1       2.165   6.592  20.009  0.00  0.00    +0.000 I 
ATOM      8  C   UNL     1       2.736   3.600  19.500  0.00  0.00    +0.000 A 
ATOM      9  I   UNL     1       1.868   2.913  21.218  0.00  0.00    +0.000 I 
ENDBRANCH   1   5
BRANCH   1  10
ATOM     10  C   UNL     1       5.321   5.782  16.376  0.00  0.00    +0.000 C 
ATOM     11  O   UNL     1       5.477   5.311  15.254  0.00  0.00    +0.000 OA
BRANCH  10  12
ATOM     12  C   UNL     1       6.478   6.209  17.209  0.00  0.00    +0.000 A 
ATOM     13  C   UNL     1       6.978   5.375  18.217  0.00  0.00    +0.000 A 
ATOM     14  C   UNL     1       7.943   5.858  19.100  0.00  0.00    +0.000 A 
ATOM     15  C   UNL     1       8.420   7.161  18.966  0.00  0.00    +0.000 A 
ATOM     16  C   UNL     1       7.966   7.971  17.925  0.00  0.00    +0.000 A 
ATOM     17  C   UNL     1       7.001   7.493  17.035  0.00  0.00    +0.000 A 
ENDBRANCH  10  12
ENDBRANCH   1  10
TORSDOF 3
ENDMDL
