MODEL 1
REMARK VINA RESULT:      -6.6      0.000      0.000
REMARK  Name = 
REMARK  7 active torsions:
REMARK  status: ('A' for Active; 'I' for Inactive)
REMARK    1  A    between atoms: C_1  and  C_2
REMARK    2  A    between atoms: C_2  and  C_3
REMARK    3  A    between atoms: N_11  and  C_12
REMARK    4  A    between atoms: C_16  and  N_17
REMARK    5  A    between atoms: N_17  and  C_18
REMARK    6  A    between atoms: N_17  and  C_19
REMARK    7  A    between atoms: C_19  and  C_20
REMARK                            x       y       z     vdW  Elec       q    Type
REMARK                         _______ _______ _______ _____ _____    ______ ____
ROOT
ATOM      1  C   UNL     1       0.212  10.474  18.516  0.00  0.00    +0.000 C 
ATOM      2  C   UNL     1       0.311  11.993  18.793  0.00  0.00    +0.000 C 
ATOM      3  O   UNL     1      -0.190  12.349  20.090  0.00  0.00    +0.000 OA
ATOM      4  C   UNL     1       0.548  11.668  21.118  0.00  0.00    +0.000 C 
ATOM      5  C   UNL     1       0.410  10.159  20.964  0.00  0.00    +0.000 C 
ATOM      6  N   UNL     1       0.853   9.737  19.627  0.00  0.00    +0.000 N 
ATOM      7  C   UNL     1       1.592   8.567  19.550  0.00  0.00    +0.000 C 
ATOM      8  O   UNL     1       1.824   7.924  20.572  0.00  0.00    +0.000 OA
ATOM      9  N   UNL     1       2.054   8.221  18.295  0.00  0.00    +0.000 N 
ATOM     10  H   UNL     1       2.076   8.941  17.595  0.00  0.00    +0.000 HD
ENDROOT
BRANCH   9  11
ATOM     11  C   UNL     1       2.787   7.049  17.996  0.00  0.00    +0.000 A 
ATOM     12  C   UNL     1       4.076   7.094  17.466  0.00  0.00    +0.000 A 
ATOM     13  C   UNL     1       4.759   5.925  17.165  0.00  0.00    +0.000 A 
ATOM     14  C   UNL     1       4.162   4.690  17.410  0.00  0.00    +0.000 A 
ATOM     15  C   UNL     1       2.873   4.583  17.961  0.00  0.00    +0.000 A 
ATOM     16  C   UNL     1       2.206   5.788  18.251  0.00  0.00    +0.000 A 
BRANCH  15  17
ATOM     17  N   UNL     1       2.309   3.341  18.221  0.00  0.00    +0.000 N 
ATOM     18  C   UNL     1       2.994   2.099  17.885  0.00  0.00    +0.000 C 
BRANCH  17  19
ATOM     19  C   UNL     1       1.011   3.218  18.896  0.00  0.00    +0.000 C 
ATOM     20  C   UNL     1       1.181   2.969  20.391  0.00  0.00    +0.000 C 
ENDBRANCH  17  19
ENDBRANCH  15  17
ENDBRANCH   9  11
BRANCH   1  22
ATOM     21  C   UNL     1      -2.036  10.976  17.404  0.00  0.00    +0.000 C 
ATOM     22  C   UNL     1      -1.252  10.030  18.306  0.00  0.00    +0.000 C 
ENDBRANCH   1  22
TORSDOF 4
ENDMDL
MODEL 2
REMARK VINA RESULT:      -6.6      1.539      2.981
REMARK  Name = 
REMARK  7 active torsions:
REMARK  status: ('A' for Active; 'I' for Inactive)
REMARK    1  A    between atoms: C_1  and  C_2
REMARK    2  A    between atoms: C_2  and  C_3
REMARK    3  A    between atoms: N_11  and  C_12
REMARK    4  A    between atoms: C_16  and  N_17
REMARK    5  A    between atoms: N_17  and  C_18
REMARK    6  A    between atoms: N_17  and  C_19
REMARK    7  A    between atoms: C_19  and  C_20
REMARK                            x       y       z     vdW  Elec       q    Type
REMARK                         _______ _______ _______ _____ _____    ______ ____
ROOT
ATOM      1  C   UNL     1       0.352  10.403  18.531  0.00  0.00    +0.000 C 
ATOM      2  C   UNL     1       0.500  11.909  18.854  0.00  0.00    +0.000 C 
ATOM      3  O   UNL     1      -0.010  12.245  20.153  0.00  0.00    +0.000 OA
ATOM      4  C   UNL     1       0.686  11.509  21.172  0.00  0.00    +0.000 C 
ATOM      5  C   UNL     1       0.498  10.010  20.971  0.00  0.00    +0.000 C 
ATOM      6  N   UNL     1       0.948   9.612  19.629  0.00  0.00    +0.000 N 
ATOM      7  C   UNL     1       1.647   8.418  19.529  0.00  0.00    +0.000 C 
ATOM      8  O   UNL     1       1.839   7.739  20.535  0.00  0.00    +0.000 OA
ATOM      9  N   UNL     1       2.117   8.093  18.272  0.00  0.00    +0.000 N 
ATOM     10  H   UNL     1       2.176   8.832  17.594  0.00  0.00    +0.000 HD
ENDROOT
BRANCH   9  11
ATOM     11  C   UNL     1       2.814   6.905  17.950  0.00  0.00    +0.000 A 
ATOM     12  C   UNL     1       2.217   5.648  18.030  0.00  0.00    +0.000 A 
ATOM     13  C   UNL     1       2.936   4.502  17.726  0.00  0.00    +0.000 A 
ATOM     14  C   UNL     1       4.264   4.604  17.318  0.00  0.00    +0.000 A 
ATOM     15  C   UNL     1       4.913   5.846  17.200  0.00  0.00    +0.000 A 
ATOM     16  C   UNL     1       4.156   6.989  17.520  0.00  0.00    +0.000 A 
BRANCH  15  17
ATOM     17  N   UNL     1       6.230   5.925  16.766  0.00  0.00    +0.000 N 
ATOM     18  C   UNL     1       6.711   5.157  15.624  0.00  0.00    +0.000 C 
BRANCH  17  19
ATOM     19  C   UNL     1       7.193   6.827  17.410  0.00  0.00    +0.000 C 
ATOM     20  C   UNL     1       7.756   6.221  18.691  0.00  0.00    +0.000 C 
ENDBRANCH  17  19
ENDBRANCH  15  17
ENDBRANCH   9  11
BRANCH   1  22
ATOM     21  C   UNL     1      -1.892  11.079  17.507  0.00  0.00    +0.000 C 
ATOM     22  C   UNL     1      -1.123  10.017  18.285  0.00  0.00    +0.000 C 
ENDBRANCH   1  22
TORSDOF 4
ENDMDL
MODEL 3
REMARK VINA RESULT:      -6.5      2.629      7.385
REMARK  Name = 
REMARK  7 active torsions:
REMARK  status: ('A' for Active; 'I' for Inactive)
REMARK    1  A    between atoms: C_1  and  C_2
REMARK    2  A    between atoms: C_2  and  C_3
REMARK    3  A    between atoms: N_11  and  C_12
REMARK    4  A    between atoms: C_16  and  N_17
REMARK    5  A    between atoms: N_17  and  C_18
REMARK    6  A    between atoms: N_17  and  C_19
REMARK    7  A    between atoms: C_19  and  C_20
REMARK                            x       y       z     vdW  Elec       q    Type
REMARK                         _______ _______ _______ _____ _____    ______ ____
ROOT
ATOM      1  C   UNL     1       3.435   3.368  20.230  0.00  0.00    +0.000 C 
ATOM      2  C   UNL     1       4.574   2.371  19.904  0.00  0.00    +0.000 C 
ATOM      3  O   UNL     1       4.116   1.245  19.141  0.00  0.00    +0.000 OA
ATOM      4  C   UNL     1       3.547   1.680  17.895  0.00  0.00    +0.000 C 
ATOM      5  C   UNL     1       2.350   2.590  18.144  0.00  0.00    +0.000 C 
ATOM      6  N   UNL     1       2.743   3.738  18.976  0.00  0.00    +0.000 N 
ATOM      7  C   UNL     1       2.210   4.972  18.637  0.00  0.00    +0.000 C 
ATOM      8  O   UNL     1       1.427   5.059  17.693  0.00  0.00    +0.000 OA
ATOM      9  N   UNL     1       2.640   6.047  19.388  0.00  0.00    +0.000 N 
ATOM     10  H   UNL     1       3.484   5.931  19.921  0.00  0.00    +0.000 HD
ENDROOT
BRANCH   9  11
ATOM     11  C   UNL     1       2.188   7.378  19.232  0.00  0.00    +0.000 A 
ATOM     12  C   UNL     1       2.367   8.090  18.047  0.00  0.00    +0.000 A 
ATOM     13  C   UNL     1       1.930   9.401  17.935  0.00  0.00    +0.000 A 
ATOM     14  C   UNL     1       1.286  10.012  19.010  0.00  0.00    +0.000 A 
ATOM     15  C   UNL     1       1.061   9.338  20.223  0.00  0.00    +0.000 A 
ATOM     16  C   UNL     1       1.521   8.009  20.304  0.00  0.00    +0.000 A 
BRANCH  15  17
ATOM     17  N   UNL     1       0.395   9.958  21.272  0.00  0.00    +0.000 N 
ATOM     18  C   UNL     1      -0.068   9.214  22.437  0.00  0.00    +0.000 C 
BRANCH  17  19
ATOM     19  C   UNL     1       0.167  11.408  21.280  0.00  0.00    +0.000 C 
ATOM     20  C   UNL     1      -0.814  11.813  22.375  0.00  0.00    +0.000 C 
ENDBRANCH  17  19
ENDBRANCH  15  17
ENDBRANCH   9  11
BRANCH   1  22
ATOM     21  C   UNL     1       1.009   3.195  21.018  0.00  0.00    +0.000 C 
ATOM     22  C   UNL     1       2.455   2.789  21.274  0.00  0.00    +0.000 C 
ENDBRANCH   1  22
TORSDOF 4
ENDMDL
MODEL 4
REMARK VINA RESULT:      -6.5      1.935      3.256
REMARK  Name = 
REMARK  7 active torsions:
REMARK  status: ('A' for Active; 'I' for Inactive)
REMARK    1  A    between atoms: C_1  and  C_2
REMARK    2  A    between atoms: C_2  and  C_3
REMARK    3  A    between atoms: N_11  and  C_12
REMARK    4  A    between atoms: C_16  and  N_17
REMARK    5  A    between atoms: N_17  and  C_18
REMARK    6  A    between atoms: N_17  and  C_19
REMARK    7  A    between atoms: C_19  and  C_20
REMARK                            x       y       z     vdW  Elec       q    Type
REMARK                         _______ _______ _______ _____ _____    ______ ____
ROOT
ATOM      1  C   UNL     1       0.852   9.809  19.876  0.00  0.00    +0.000 C 
ATOM      2  C   UNL     1       1.086  11.012  20.821  0.00  0.00    +0.000 C 
ATOM      3  O   UNL     1       0.321  10.916  22.031  0.00  0.00    +0.000 OA
ATOM      4  C   UNL     1       0.667   9.722  22.751  0.00  0.00    +0.000 C 
ATOM      5  C   UNL     1       0.366   8.486  21.912  0.00  0.00    +0.000 C 
ATOM      6  N   UNL     1       1.077   8.554  20.626  0.00  0.00    +0.000 N 
ATOM      7  C   UNL     1       1.642   7.378  20.157  0.00  0.00    +0.000 C 
ATOM      8  O   UNL     1       1.511   6.340  20.802  0.00  0.00    +0.000 OA
ATOM      9  N   UNL     1       2.360   7.475  18.981  0.00  0.00    +0.000 N 
ATOM     10  H   UNL     1       2.660   8.390  18.697  0.00  0.00    +0.000 HD
ENDROOT
BRANCH   9  11
ATOM     11  C   UNL     1       2.976   6.390  18.316  0.00  0.00    +0.000 A 
ATOM     12  C   UNL     1       2.289   5.215  18.015  0.00  0.00    +0.000 A 
ATOM     13  C   UNL     1       2.931   4.162  17.380  0.00  0.00    +0.000 A 
ATOM     14  C   UNL     1       4.271   4.282  17.020  0.00  0.00    +0.000 A 
ATOM     15  C   UNL     1       5.010   5.450  17.281  0.00  0.00    +0.000 A 
ATOM     16  C   UNL     1       4.330   6.498  17.930  0.00  0.00    +0.000 A 
BRANCH  15  17
ATOM     17  N   UNL     1       6.339   5.556  16.890  0.00  0.00    +0.000 N 
ATOM     18  C   UNL     1       6.962   4.578  16.007  0.00  0.00    +0.000 C 
BRANCH  17  19
ATOM     19  C   UNL     1       7.169   6.692  17.309  0.00  0.00    +0.000 C 
ATOM     20  C   UNL     1       7.876   6.408  18.630  0.00  0.00    +0.000 C 
ENDBRANCH  17  19
ENDBRANCH  15  17
ENDBRANCH   9  11
BRANCH   1  22
ATOM     21  C   UNL     1      -0.830  11.149  18.493  0.00  0.00    +0.000 C 
ATOM     22  C   UNL     1      -0.555   9.850  19.241  0.00  0.00    +0.000 C 
ENDBRANCH   1  22
TORSDOF 4
ENDMDL
MODEL 5
REMARK VINA RESULT:      -6.4      1.915      3.351
REMARK  Name = 
REMARK  7 active torsions:
REMARK  status: ('A' for Active; 'I' for Inactive)
REMARK    1  A    between atoms: C_1  and  C_2
REMARK    2  A    between atoms: C_2  and  C_3
REMARK    3  A    between atoms: N_11  and  C_12
REMARK    4  A    between atoms: C_16  and  N_17
REMARK    5  A    between atoms: N_17  and  C_18
REMARK    6  A    between atoms: N_17  and  C_19
REMARK    7  A    between atoms: C_19  and  C_20
REMARK                            x       y       z     vdW  Elec       q    Type
REMARK                         _______ _______ _______ _____ _____    ______ ____
ROOT
ATOM      1  C   UNL     1       0.870   9.878  19.831  0.00  0.00    +0.000 C 
ATOM      2  C   UNL     1       1.115  11.104  20.743  0.00  0.00    +0.000 C 
ATOM      3  O   UNL     1       0.373  11.034  21.968  0.00  0.00    +0.000 OA
ATOM      4  C   UNL     1       0.736   9.859  22.710  0.00  0.00    +0.000 C 
ATOM      5  C   UNL     1       0.425   8.602  21.906  0.00  0.00    +0.000 C 
ATOM      6  N   UNL     1       1.113   8.642  20.606  0.00  0.00    +0.000 N 
ATOM      7  C   UNL     1       1.673   7.457  20.155  0.00  0.00    +0.000 C 
ATOM      8  O   UNL     1       1.558   6.434  20.827  0.00  0.00    +0.000 OA
ATOM      9  N   UNL     1       2.370   7.529  18.965  0.00  0.00    +0.000 N 
ATOM     10  H   UNL     1       2.662   8.438  18.653  0.00  0.00    +0.000 HD
ENDROOT
BRANCH   9  11
ATOM     11  C   UNL     1       2.978   6.430  18.315  0.00  0.00    +0.000 A 
ATOM     12  C   UNL     1       2.285   5.254  18.036  0.00  0.00    +0.000 A 
ATOM     13  C   UNL     1       2.919   4.188  17.415  0.00  0.00    +0.000 A 
ATOM     14  C   UNL     1       4.258   4.296  17.047  0.00  0.00    +0.000 A 
ATOM     15  C   UNL     1       5.004   5.465  17.285  0.00  0.00    +0.000 A 
ATOM     16  C   UNL     1       4.331   6.526  17.921  0.00  0.00    +0.000 A 
BRANCH  15  17
ATOM     17  N   UNL     1       6.330   5.559  16.886  0.00  0.00    +0.000 N 
ATOM     18  C   UNL     1       7.177   6.677  17.287  0.00  0.00    +0.000 C 
BRANCH  17  19
ATOM     19  C   UNL     1       6.962   4.508  16.079  0.00  0.00    +0.000 C 
ATOM     20  C   UNL     1       6.935   4.853  14.594  0.00  0.00    +0.000 C 
ENDBRANCH  17  19
ENDBRANCH  15  17
ENDBRANCH   9  11
BRANCH   1  22
ATOM     21  C   UNL     1      -0.889  11.229  18.556  0.00  0.00    +0.000 C 
ATOM     22  C   UNL     1      -0.549   9.899  19.220  0.00  0.00    +0.000 C 
ENDBRANCH   1  22
TORSDOF 4
ENDMDL
MODEL 6
REMARK VINA RESULT:      -6.4      1.587      3.052
REMARK  Name = 
REMARK  7 active torsions:
REMARK  status: ('A' for Active; 'I' for Inactive)
REMARK    1  A    between atoms: C_1  and  C_2
REMARK    2  A    between atoms: C_2  and  C_3
REMARK    3  A    between atoms: N_11  and  C_12
REMARK    4  A    between atoms: C_16  and  N_17
REMARK    5  A    between atoms: N_17  and  C_18
REMARK    6  A    between atoms: N_17  and  C_19
REMARK    7  A    between atoms: C_19  and  C_20
REMARK                            x       y       z     vdW  Elec       q    Type
REMARK                         _______ _______ _______ _____ _____    ______ ____
ROOT
ATOM      1  C   UNL     1       0.654  10.153  18.557  0.00  0.00    +0.000 C 
ATOM      2  C   UNL     1       0.884  11.635  18.937  0.00  0.00    +0.000 C 
ATOM      3  O   UNL     1       0.340  11.963  20.224  0.00  0.00    +0.000 OA
ATOM      4  C   UNL     1       0.940  11.151  21.246  0.00  0.00    +0.000 C 
ATOM      5  C   UNL     1       0.665   9.675  20.986  0.00  0.00    +0.000 C 
ATOM      6  N   UNL     1       1.149   9.290  19.652  0.00  0.00    +0.000 N 
ATOM      7  C   UNL     1       1.772   8.057  19.541  0.00  0.00    +0.000 C 
ATOM      8  O   UNL     1       1.875   7.335  20.530  0.00  0.00    +0.000 OA
ATOM      9  N   UNL     1       2.277   7.741  18.295  0.00  0.00    +0.000 N 
ATOM     10  H   UNL     1       2.413   8.496  17.646  0.00  0.00    +0.000 HD
ENDROOT
BRANCH   9  11
ATOM     11  C   UNL     1       2.909   6.521  17.962  0.00  0.00    +0.000 A 
ATOM     12  C   UNL     1       2.221   5.308  17.945  0.00  0.00    +0.000 A 
ATOM     13  C   UNL     1       2.878   4.126  17.634  0.00  0.00    +0.000 A 
ATOM     14  C   UNL     1       4.234   4.149  17.316  0.00  0.00    +0.000 A 
ATOM     15  C   UNL     1       4.975   5.344  17.299  0.00  0.00    +0.000 A 
ATOM     16  C   UNL     1       4.279   6.524  17.623  0.00  0.00    +0.000 A 
BRANCH  15  17
ATOM     17  N   UNL     1       6.320   5.346  16.954  0.00  0.00    +0.000 N 
ATOM     18  C   UNL     1       7.293   6.177  17.652  0.00  0.00    +0.000 C 
BRANCH  17  19
ATOM     19  C   UNL     1       6.838   4.468  15.897  0.00  0.00    +0.000 C 
ATOM     20  C   UNL     1       6.380   4.927  14.517  0.00  0.00    +0.000 C 
ENDBRANCH  17  19
ENDBRANCH  15  17
ENDBRANCH   9  11
BRANCH   1  22
ATOM     21  C   UNL     1      -1.577  11.112  17.755  0.00  0.00    +0.000 C 
ATOM     22  C   UNL     1      -0.830   9.873  18.235  0.00  0.00    +0.000 C 
ENDBRANCH   1  22
TORSDOF 4
ENDMDL
MODEL 7
REMARK VINA RESULT:      -6.3      2.507      7.269
REMARK  Name = 
REMARK  7 active torsions:
REMARK  status: ('A' for Active; 'I' for Inactive)
REMARK    1  A    between atoms: C_1  and  C_2
REMARK    2  A    between atoms: C_2  and  C_3
REMARK    3  A    between atoms: N_11  and  C_12
REMARK    4  A    between atoms: C_16  and  N_17
REMARK    5  A    between atoms: N_17  and  C_18
REMARK    6  A    between atoms: N_17  and  C_19
REMARK    7  A    between atoms: C_19  and  C_20
REMARK                            x       y       z     vdW  Elec       q    Type
REMARK                         _______ _______ _______ _____ _____    ______ ____
ROOT
ATOM      1  C   UNL     1       5.219   6.474  17.090  0.00  0.00    +0.000 C 
ATOM      2  C   UNL     1       5.545   5.900  15.690  0.00  0.00    +0.000 C 
ATOM      3  O   UNL     1       5.770   4.483  15.717  0.00  0.00    +0.000 OA
ATOM      4  C   UNL     1       4.607   3.798  16.210  0.00  0.00    +0.000 C 
ATOM      5  C   UNL     1       4.287   4.245  17.631  0.00  0.00    +0.000 C 
ATOM      6  N   UNL     1       4.103   5.703  17.681  0.00  0.00    +0.000 N 
ATOM      7  C   UNL     1       3.075   6.181  18.479  0.00  0.00    +0.000 C 
ATOM      8  O   UNL     1       2.386   5.391  19.121  0.00  0.00    +0.000 OA
ATOM      9  N   UNL     1       2.877   7.547  18.463  0.00  0.00    +0.000 N 
ATOM     10  H   UNL     1       3.276   8.064  17.699  0.00  0.00    +0.000 HD
ENDROOT
BRANCH   9  11
ATOM     11  C   UNL     1       1.913   8.236  19.235  0.00  0.00    +0.000 A 
ATOM     12  C   UNL     1       1.645   7.901  20.561  0.00  0.00    +0.000 A 
ATOM     13  C   UNL     1       0.677   8.584  21.282  0.00  0.00    +0.000 A 
ATOM     14  C   UNL     1      -0.024   9.630  20.686  0.00  0.00    +0.000 A 
ATOM     15  C   UNL     1       0.217  10.025  19.358  0.00  0.00    +0.000 A 
ATOM     16  C   UNL     1       1.202   9.308  18.653  0.00  0.00    +0.000 A 
BRANCH  15  17
ATOM     17  N   UNL     1      -0.476  11.088  18.792  0.00  0.00    +0.000 N 
ATOM     18  C   UNL     1       0.139  12.397  18.608  0.00  0.00    +0.000 C 
BRANCH  17  19
ATOM     19  C   UNL     1      -1.851  10.929  18.304  0.00  0.00    +0.000 C 
ATOM     20  C   UNL     1      -1.916   9.971  17.120  0.00  0.00    +0.000 C 
ENDBRANCH  17  19
ENDBRANCH  15  17
ENDBRANCH   9  11
BRANCH   1  22
ATOM     21  C   UNL     1       7.558   7.414  17.519  0.00  0.00    +0.000 C 
ATOM     22  C   UNL     1       6.461   6.476  18.007  0.00  0.00    +0.000 C 
ENDBRANCH   1  22
TORSDOF 4
ENDMDL
MODEL 8
REMARK VINA RESULT:      -6.3      2.104      7.094
REMARK  Name = 
REMARK  7 active torsions:
REMARK  status: ('A' for Active; 'I' for Inactive)
REMARK    1  A    between atoms: C_1  and  C_2
REMARK    2  A    between atoms: C_2  and  C_3
REMARK    3  A    between atoms: N_11  and  C_12
REMARK    4  A    between atoms: C_16  and  N_17
REMARK    5  A    between atoms: N_17  and  C_18
REMARK    6  A    between atoms: N_17  and  C_19
REMARK    7  A    between atoms: C_19  and  C_20
REMARK                            x       y       z     vdW  Elec       q    Type
REMARK                         _______ _______ _______ _____ _____    ______ ____
ROOT
ATOM      1  C   UNL     1       2.555   5.992  18.913  0.00  0.00    +0.000 C 
ATOM      2  C   UNL     1       3.748   5.324  19.638  0.00  0.00    +0.000 C 
ATOM      3  O   UNL     1       4.827   5.009  18.746  0.00  0.00    +0.000 OA
ATOM      4  C   UNL     1       5.315   6.200  18.107  0.00  0.00    +0.000 C 
ATOM      5  C   UNL     1       4.211   6.857  17.288  0.00  0.00    +0.000 C 
ATOM      6  N   UNL     1       3.048   7.152  18.138  0.00  0.00    +0.000 N 
ATOM      7  C   UNL     1       2.406   8.362  17.928  0.00  0.00    +0.000 C 
ATOM      8  O   UNL     1       2.804   9.118  17.044  0.00  0.00    +0.000 OA
ATOM      9  N   UNL     1       1.356   8.649  18.778  0.00  0.00    +0.000 N 
ATOM     10  H   UNL     1       1.300   8.130  19.636  0.00  0.00    +0.000 HD
ENDROOT
BRANCH   9  11
ATOM     11  C   UNL     1       0.547   9.807  18.705  0.00  0.00    +0.000 A 
ATOM     12  C   UNL     1       0.909  11.006  19.317  0.00  0.00    +0.000 A 
ATOM     13  C   UNL     1       0.082  12.117  19.243  0.00  0.00    +0.000 A 
ATOM     14  C   UNL     1      -1.115  12.044  18.535  0.00  0.00    +0.000 A 
ATOM     15  C   UNL     1      -1.524  10.868  17.881  0.00  0.00    +0.000 A 
ATOM     16  C   UNL     1      -0.663   9.758  17.980  0.00  0.00    +0.000 A 
BRANCH  15  17
ATOM     17  N   UNL     1      -2.709  10.826  17.159  0.00  0.00    +0.000 N 
ATOM     18  C   UNL     1      -3.985  10.513  17.792  0.00  0.00    +0.000 C 
BRANCH  17  19
ATOM     19  C   UNL     1      -2.743  11.147  15.727  0.00  0.00    +0.000 C 
ATOM     20  C   UNL     1      -3.080   9.919  14.889  0.00  0.00    +0.000 C 
ENDBRANCH  17  19
ENDBRANCH  15  17
ENDBRANCH   9  11
BRANCH   1  22
ATOM     21  C   UNL     1       1.442   3.695  18.744  0.00  0.00    +0.000 C 
ATOM     22  C   UNL     1       1.801   4.985  18.016  0.00  0.00    +0.000 C 
ENDBRANCH   1  22
TORSDOF 4
ENDMDL
MODEL 9
REMARK VINA RESULT:      -6.2      1.022      1.174
REMARK  Name = 
REMARK  7 active torsions:
REMARK  status: ('A' for Active; 'I' for Inactive)
REMARK    1  A    between atoms: C_1  and  C_2
REMARK    2  A    between atoms: C_2  and  C_3
REMARK    3  A    between atoms: N_11  and  C_12
REMARK    4  A    between atoms: C_16  and  N_17
REMARK    5  A    between atoms: N_17  and  C_18
REMARK    6  A    between atoms: N_17  and  C_19
REMARK    7  A    between atoms: C_19  and  C_20
REMARK                            x       y       z     vdW  Elec       q    Type
REMARK                         _______ _______ _______ _____ _____    ______ ____
ROOT
ATOM      1  C   UNL     1       0.595  10.173  19.858  0.00  0.00    +0.000 C 
ATOM      2  C   UNL     1       0.770  11.404  20.779  0.00  0.00    +0.000 C 
ATOM      3  O   UNL     1       0.022  11.289  21.998  0.00  0.00    +0.000 OA
ATOM      4  C   UNL     1       0.438  10.129  22.736  0.00  0.00    +0.000 C 
ATOM      5  C   UNL     1       0.199   8.863  21.922  0.00  0.00    +0.000 C 
ATOM      6  N   UNL     1       0.894   8.946  20.629  0.00  0.00    +0.000 N 
ATOM      7  C   UNL     1       1.519   7.794  20.176  0.00  0.00    +0.000 C 
ATOM      8  O   UNL     1       1.451   6.763  20.841  0.00  0.00    +0.000 OA
ATOM      9  N   UNL     1       2.220   7.908  18.992  0.00  0.00    +0.000 N 
ATOM     10  H   UNL     1       2.468   8.834  18.688  0.00  0.00    +0.000 HD
ENDROOT
BRANCH   9  11
ATOM     11  C   UNL     1       2.890   6.847  18.341  0.00  0.00    +0.000 A 
ATOM     12  C   UNL     1       4.010   7.056  17.537  0.00  0.00    +0.000 A 
ATOM     13  C   UNL     1       4.630   5.993  16.897  0.00  0.00    +0.000 A 
ATOM     14  C   UNL     1       4.144   4.699  17.070  0.00  0.00    +0.000 A 
ATOM     15  C   UNL     1       3.030   4.425  17.884  0.00  0.00    +0.000 A 
ATOM     16  C   UNL     1       2.422   5.526  18.516  0.00  0.00    +0.000 A 
BRANCH  15  17
ATOM     17  N   UNL     1       2.579   3.124  18.063  0.00  0.00    +0.000 N 
ATOM     18  C   UNL     1       3.456   1.973  17.877  0.00  0.00    +0.000 C 
BRANCH  17  19
ATOM     19  C   UNL     1       1.205   2.845  18.498  0.00  0.00    +0.000 C 
ATOM     20  C   UNL     1       1.128   2.648  20.008  0.00  0.00    +0.000 C 
ENDBRANCH  17  19
ENDBRANCH  15  17
ENDBRANCH   9  11
BRANCH   1  22
ATOM     21  C   UNL     1      -0.793  10.054  17.713  0.00  0.00    +0.000 C 
ATOM     22  C   UNL     1      -0.817  10.125  19.235  0.00  0.00    +0.000 C 
ENDBRANCH   1  22
TORSDOF 4
ENDMDL
