MODEL 1
REMARK VINA RESULT:      -6.4      0.000      0.000
REMARK  Name = 
REMARK  12 active torsions:
REMARK  status: ('A' for Active; 'I' for Inactive)
REMARK    1  A    between atoms: C_1  and  C_2
REMARK    2  A    between atoms: C_2  and  C_3
REMARK    3  A    between atoms: C_3  and  C_4
REMARK    4  A    between atoms: C_5  and  C_6
REMARK    5  A    between atoms: C_6  and  C_7
REMARK    6  A    between atoms: C_8  and  C_9
REMARK    7  A    between atoms: C_10  and  C_11
REMARK    8  A    between atoms: N_12  and  N_13
REMARK    9  A    between atoms: N_13  and  S_14
REMARK   10  A    between atoms: S_14  and  C_17
REMARK   11  A    between atoms: C_17  and  C_18
REMARK   12  A    between atoms: C_18  and  C_19
REMARK                            x       y       z     vdW  Elec       q    Type
REMARK                         _______ _______ _______ _____ _____    ______ ____
ROOT
ATOM      1  C   UNL     1       7.344   6.247  18.085  0.00  0.00    +0.000 C 
ATOM      2  N   UNL     1       7.306   5.282  18.947  0.00  0.00    +0.000 NA
ENDROOT
BRANCH   1   4
ATOM      3  C   UNL     1       7.906   8.635  17.758  0.00  0.00    +0.000 C 
ATOM      4  C   UNL     1       8.095   7.477  18.407  0.00  0.00    +0.000 C 
BRANCH   3   6
ATOM      5  C   UNL     1       9.354   9.975  19.236  0.00  0.00    +0.000 C 
ATOM      6  C   UNL     1       8.653   9.828  18.101  0.00  0.00    +0.000 C 
BRANCH   5   7
ATOM      7  C   UNL     1      10.110  11.225  19.597  0.00  0.00    +0.000 C 
BRANCH   7   9
ATOM      8  C   UNL     1       9.236  12.185  21.758  0.00  0.00    +0.000 C 
ATOM      9  C   UNL     1       9.275  12.171  20.413  0.00  0.00    +0.000 C 
BRANCH   8  10
ATOM     10  C   UNL     1       8.363  13.113  22.558  0.00  0.00    +0.000 C 
BRANCH  10  12
ATOM     11  C   UNL     1       7.621  11.576  24.412  0.00  0.00    +0.000 C 
ATOM     12  C   UNL     1       7.184  12.375  23.193  0.00  0.00    +0.000 C 
ENDBRANCH  10  12
ENDBRANCH   8  10
ENDBRANCH   7   9
ENDBRANCH   5   7
ENDBRANCH   3   6
ENDBRANCH   1   4
BRANCH   2  13
ATOM     13  N   UNL     1       6.578   4.115  18.565  0.00  0.00    +0.000 N 
ATOM     14  H   UNL     1       6.963   3.321  18.051  0.00  0.00    +0.000 HD
BRANCH  13  15
ATOM     15  S   UNL     1       4.945   3.984  19.010  0.00  0.00    +0.000 S 
ATOM     16  O   UNL     1       4.829   2.755  19.766  0.00  0.00    +0.000 OA
ATOM     17  O   UNL     1       4.502   5.249  19.557  0.00  0.00    +0.000 OA
BRANCH  15  18
ATOM     18  C   UNL     1       4.171   3.739  17.412  0.00  0.00    +0.000 C 
BRANCH  18  19
ATOM     19  C   UNL     1       2.943   2.838  17.535  0.00  0.00    +0.000 C 
BRANCH  19  20
ATOM     20  C   UNL     1       1.711   3.564  18.058  0.00  0.00    +0.000 C 
ATOM     21 CL   UNL     1       0.608   2.472  18.925  0.00  0.00    +0.000 Cl
ENDBRANCH  19  20
ENDBRANCH  18  19
ENDBRANCH  15  18
ENDBRANCH  13  15
ENDBRANCH   2  13
TORSDOF 11
ENDMDL
MODEL 2
REMARK VINA RESULT:      -6.4      2.708      3.895
REMARK  Name = 
REMARK  12 active torsions:
REMARK  status: ('A' for Active; 'I' for Inactive)
REMARK    1  A    between atoms: C_1  and  C_2
REMARK    2  A    between atoms: C_2  and  C_3
REMARK    3  A    between atoms: C_3  and  C_4
REMARK    4  A    between atoms: C_5  and  C_6
REMARK    5  A    between atoms: C_6  and  C_7
REMARK    6  A    between atoms: C_8  and  C_9
REMARK    7  A    between atoms: C_10  and  C_11
REMARK    8  A    between atoms: N_12  and  N_13
REMARK    9  A    between atoms: N_13  and  S_14
REMARK   10  A    between atoms: S_14  and  C_17
REMARK   11  A    between atoms: C_17  and  C_18
REMARK   12  A    between atoms: C_18  and  C_19
REMARK                            x       y       z     vdW  Elec       q    Type
REMARK                         _______ _______ _______ _____ _____    ______ ____
ROOT
ATOM      1  C   UNL     1       7.298   6.041  17.921  0.00  0.00    +0.000 C 
ATOM      2  N   UNL     1       6.977   5.173  18.825  0.00  0.00    +0.000 NA
ENDROOT
BRANCH   1   4
ATOM      3  C   UNL     1       7.851   8.444  17.701  0.00  0.00    +0.000 C 
ATOM      4  C   UNL     1       8.024   7.265  18.317  0.00  0.00    +0.000 C 
BRANCH   3   6
ATOM      5  C   UNL     1       9.064   9.816  19.351  0.00  0.00    +0.000 C 
ATOM      6  C   UNL     1       8.571   9.630  18.116  0.00  0.00    +0.000 C 
BRANCH   5   7
ATOM      7  C   UNL     1       9.792  11.060  19.783  0.00  0.00    +0.000 C 
BRANCH   7   9
ATOM      8  C   UNL     1      11.414  12.084  18.145  0.00  0.00    +0.000 C 
ATOM      9  C   UNL     1      10.161  11.929  18.613  0.00  0.00    +0.000 C 
BRANCH   8  10
ATOM     10  C   UNL     1      11.770  12.989  16.999  0.00  0.00    +0.000 C 
BRANCH  10  12
ATOM     11  C   UNL     1      12.154  15.470  17.219  0.00  0.00    +0.000 C 
ATOM     12  C   UNL     1      11.112  14.363  17.135  0.00  0.00    +0.000 C 
ENDBRANCH  10  12
ENDBRANCH   8  10
ENDBRANCH   7   9
ENDBRANCH   5   7
ENDBRANCH   3   6
ENDBRANCH   1   4
BRANCH   2  13
ATOM     13  N   UNL     1       6.295   4.004  18.372  0.00  0.00    +0.000 N 
ATOM     14  H   UNL     1       6.742   3.129  18.093  0.00  0.00    +0.000 HD
BRANCH  13  15
ATOM     15  S   UNL     1       4.599   4.018  18.306  0.00  0.00    +0.000 S 
ATOM     16  O   UNL     1       4.249   4.188  16.911  0.00  0.00    +0.000 OA
ATOM     17  O   UNL     1       4.086   2.908  19.081  0.00  0.00    +0.000 OA
BRANCH  15  18
ATOM     18  C   UNL     1       4.233   5.545  19.169  0.00  0.00    +0.000 C 
BRANCH  18  19
ATOM     19  C   UNL     1       3.629   6.578  18.218  0.00  0.00    +0.000 C 
BRANCH  19  20
ATOM     20  C   UNL     1       2.458   7.342  18.821  0.00  0.00    +0.000 C 
ATOM     21 CL   UNL     1       1.874   8.630  17.743  0.00  0.00    +0.000 Cl
ENDBRANCH  19  20
ENDBRANCH  18  19
ENDBRANCH  15  18
ENDBRANCH  13  15
ENDBRANCH   2  13
TORSDOF 11
ENDMDL
MODEL 3
REMARK VINA RESULT:      -6.3      5.941      9.152
REMARK  Name = 
REMARK  12 active torsions:
REMARK  status: ('A' for Active; 'I' for Inactive)
REMARK    1  A    between atoms: C_1  and  C_2
REMARK    2  A    between atoms: C_2  and  C_3
REMARK    3  A    between atoms: C_3  and  C_4
REMARK    4  A    between atoms: C_5  and  C_6
REMARK    5  A    between atoms: C_6  and  C_7
REMARK    6  A    between atoms: C_8  and  C_9
REMARK    7  A    between atoms: C_10  and  C_11
REMARK    8  A    between atoms: N_12  and  N_13
REMARK    9  A    between atoms: N_13  and  S_14
REMARK   10  A    between atoms: S_14  and  C_17
REMARK   11  A    between atoms: C_17  and  C_18
REMARK   12  A    between atoms: C_18  and  C_19
REMARK                            x       y       z     vdW  Elec       q    Type
REMARK                         _______ _______ _______ _____ _____    ______ ____
ROOT
ATOM      1  C   UNL     1       4.521   4.408  17.739  0.00  0.00    +0.000 C 
ATOM      2  N   UNL     1       4.901   3.634  18.704  0.00  0.00    +0.000 NA
ENDROOT
BRANCH   1   4
ATOM      3  C   UNL     1       5.796   5.076  15.725  0.00  0.00    +0.000 C 
ATOM      4  C   UNL     1       5.043   4.178  16.376  0.00  0.00    +0.000 C 
BRANCH   3   6
ATOM      5  C   UNL     1       5.944   3.762  13.645  0.00  0.00    +0.000 C 
ATOM      6  C   UNL     1       6.300   4.820  14.392  0.00  0.00    +0.000 C 
BRANCH   5   7
ATOM      7  C   UNL     1       6.488   3.489  12.268  0.00  0.00    +0.000 C 
BRANCH   7   9
ATOM      8  C   UNL     1       4.086   3.339  11.517  0.00  0.00    +0.000 C 
ATOM      9  C   UNL     1       5.399   3.428  11.235  0.00  0.00    +0.000 C 
BRANCH   8  10
ATOM     10  C   UNL     1       3.012   3.239  10.470  0.00  0.00    +0.000 C 
BRANCH  10  12
ATOM     11  C   UNL     1       2.069   5.067   9.014  0.00  0.00    +0.000 C 
ATOM     12  C   UNL     1       3.275   4.182   9.295  0.00  0.00    +0.000 C 
ENDBRANCH  10  12
ENDBRANCH   8  10
ENDBRANCH   7   9
ENDBRANCH   5   7
ENDBRANCH   3   6
ENDBRANCH   1   4
BRANCH   2  13
ATOM     13  N   UNL     1       4.344   3.900  19.991  0.00  0.00    +0.000 N 
ATOM     14  H   UNL     1       4.591   4.690  20.590  0.00  0.00    +0.000 HD
BRANCH  13  15
ATOM     15  S   UNL     1       3.150   2.859  20.599  0.00  0.00    +0.000 S 
ATOM     16  O   UNL     1       2.440   2.341  19.449  0.00  0.00    +0.000 OA
ATOM     17  O   UNL     1       3.749   1.974  21.576  0.00  0.00    +0.000 OA
BRANCH  15  18
ATOM     18  C   UNL     1       2.080   4.019  21.448  0.00  0.00    +0.000 C 
BRANCH  18  19
ATOM     19  C   UNL     1       1.326   4.895  20.448  0.00  0.00    +0.000 C 
BRANCH  19  20
ATOM     20  C   UNL     1       2.023   6.218  20.159  0.00  0.00    +0.000 C 
ATOM     21 CL   UNL     1       1.183   7.596  20.906  0.00  0.00    +0.000 Cl
ENDBRANCH  19  20
ENDBRANCH  18  19
ENDBRANCH  15  18
ENDBRANCH  13  15
ENDBRANCH   2  13
TORSDOF 11
ENDMDL
MODEL 4
REMARK VINA RESULT:      -6.0      0.853      1.136
REMARK  Name = 
REMARK  12 active torsions:
REMARK  status: ('A' for Active; 'I' for Inactive)
REMARK    1  A    between atoms: C_1  and  C_2
REMARK    2  A    between atoms: C_2  and  C_3
REMARK    3  A    between atoms: C_3  and  C_4
REMARK    4  A    between atoms: C_5  and  C_6
REMARK    5  A    between atoms: C_6  and  C_7
REMARK    6  A    between atoms: C_8  and  C_9
REMARK    7  A    between atoms: C_10  and  C_11
REMARK    8  A    between atoms: N_12  and  N_13
REMARK    9  A    between atoms: N_13  and  S_14
REMARK   10  A    between atoms: S_14  and  C_17
REMARK   11  A    between atoms: C_17  and  C_18
REMARK   12  A    between atoms: C_18  and  C_19
REMARK                            x       y       z     vdW  Elec       q    Type
REMARK                         _______ _______ _______ _____ _____    ______ ____
ROOT
ATOM      1  C   UNL     1       7.397   5.742  18.075  0.00  0.00    +0.000 C 
ATOM      2  N   UNL     1       6.626   5.152  18.930  0.00  0.00    +0.000 NA
ENDROOT
BRANCH   1   4
ATOM      3  C   UNL     1       7.988   8.133  17.824  0.00  0.00    +0.000 C 
ATOM      4  C   UNL     1       8.119   6.968  18.475  0.00  0.00    +0.000 C 
BRANCH   3   6
ATOM      5  C   UNL     1       8.398  10.563  17.837  0.00  0.00    +0.000 C 
ATOM      6  C   UNL     1       8.703   9.320  18.243  0.00  0.00    +0.000 C 
BRANCH   5   7
ATOM      7  C   UNL     1       9.160  11.791  18.258  0.00  0.00    +0.000 C 
BRANCH   7   9
ATOM      8  C   UNL     1       8.985  12.288  20.724  0.00  0.00    +0.000 C 
ATOM      9  C   UNL     1       9.617  11.707  19.687  0.00  0.00    +0.000 C 
BRANCH   8  10
ATOM     10  C   UNL     1       9.479  12.226  22.143  0.00  0.00    +0.000 C 
BRANCH  10  12
ATOM     11  C   UNL     1       7.104  12.651  22.868  0.00  0.00    +0.000 C 
ATOM     12  C   UNL     1       8.567  13.001  23.095  0.00  0.00    +0.000 C 
ENDBRANCH  10  12
ENDBRANCH   8  10
ENDBRANCH   7   9
ENDBRANCH   5   7
ENDBRANCH   3   6
ENDBRANCH   1   4
BRANCH   2  13
ATOM     13  N   UNL     1       5.974   3.963  18.486  0.00  0.00    +0.000 N 
ATOM     14  H   UNL     1       6.325   3.330  17.765  0.00  0.00    +0.000 HD
BRANCH  13  15
ATOM     15  S   UNL     1       4.507   3.511  19.212  0.00  0.00    +0.000 S 
ATOM     16  O   UNL     1       4.793   2.333  20.003  0.00  0.00    +0.000 OA
ATOM     17  O   UNL     1       3.891   4.681  19.799  0.00  0.00    +0.000 OA
BRANCH  15  18
ATOM     18  C   UNL     1       3.553   3.010  17.780  0.00  0.00    +0.000 C 
BRANCH  18  19
ATOM     19  C   UNL     1       2.164   3.646  17.802  0.00  0.00    +0.000 C 
BRANCH  19  20
ATOM     20  C   UNL     1       1.118   2.787  18.502  0.00  0.00    +0.000 C 
ATOM     21 CL   UNL     1       0.804   3.338  20.164  0.00  0.00    +0.000 Cl
ENDBRANCH  19  20
ENDBRANCH  18  19
ENDBRANCH  15  18
ENDBRANCH  13  15
ENDBRANCH   2  13
TORSDOF 11
ENDMDL
MODEL 5
REMARK VINA RESULT:      -6.0      2.872      3.441
REMARK  Name = 
REMARK  12 active torsions:
REMARK  status: ('A' for Active; 'I' for Inactive)
REMARK    1  A    between atoms: C_1  and  C_2
REMARK    2  A    between atoms: C_2  and  C_3
REMARK    3  A    between atoms: C_3  and  C_4
REMARK    4  A    between atoms: C_5  and  C_6
REMARK    5  A    between atoms: C_6  and  C_7
REMARK    6  A    between atoms: C_8  and  C_9
REMARK    7  A    between atoms: C_10  and  C_11
REMARK    8  A    between atoms: N_12  and  N_13
REMARK    9  A    between atoms: N_13  and  S_14
REMARK   10  A    between atoms: S_14  and  C_17
REMARK   11  A    between atoms: C_17  and  C_18
REMARK   12  A    between atoms: C_18  and  C_19
REMARK                            x       y       z     vdW  Elec       q    Type
REMARK                         _______ _______ _______ _____ _____    ______ ____
ROOT
ATOM      1  C   UNL     1       7.653   8.006  17.919  0.00  0.00    +0.000 C 
ATOM      2  N   UNL     1       7.255   7.521  16.787  0.00  0.00    +0.000 NA
ENDROOT
BRANCH   1   4
ATOM      3  C   UNL     1       9.052   9.714  19.038  0.00  0.00    +0.000 C 
ATOM      4  C   UNL     1       8.444   9.254  17.935  0.00  0.00    +0.000 C 
BRANCH   3   6
ATOM      5  C   UNL     1      10.146  11.610  17.905  0.00  0.00    +0.000 C 
ATOM      6  C   UNL     1       9.827  10.937  19.022  0.00  0.00    +0.000 C 
BRANCH   5   7
ATOM      7  C   UNL     1      10.971  12.869  17.893  0.00  0.00    +0.000 C 
BRANCH   7   9
ATOM      8  C   UNL     1       8.856  14.237  18.003  0.00  0.00    +0.000 C 
ATOM      9  C   UNL     1      10.162  14.075  18.282  0.00  0.00    +0.000 C 
BRANCH   8  10
ATOM     10  C   UNL     1       8.072  15.468  18.365  0.00  0.00    +0.000 C 
BRANCH  10  12
ATOM     11  C   UNL     1       7.406  14.509  20.598  0.00  0.00    +0.000 C 
ATOM     12  C   UNL     1       6.911  15.145  19.307  0.00  0.00    +0.000 C 
ENDBRANCH  10  12
ENDBRANCH   8  10
ENDBRANCH   7   9
ENDBRANCH   5   7
ENDBRANCH   3   6
ENDBRANCH   1   4
BRANCH   2  13
ATOM     13  N   UNL     1       6.479   6.324  16.844  0.00  0.00    +0.000 N 
ATOM     14  H   UNL     1       5.548   6.243  17.255  0.00  0.00    +0.000 HD
BRANCH  13  15
ATOM     15  S   UNL     1       7.108   4.906  16.156  0.00  0.00    +0.000 S 
ATOM     16  O   UNL     1       7.529   5.257  14.816  0.00  0.00    +0.000 OA
ATOM     17  O   UNL     1       8.022   4.291  17.095  0.00  0.00    +0.000 OA
BRANCH  15  18
ATOM     18  C   UNL     1       5.632   3.896  16.037  0.00  0.00    +0.000 C 
BRANCH  18  19
ATOM     19  C   UNL     1       4.490   4.503  16.850  0.00  0.00    +0.000 C 
BRANCH  19  20
ATOM     20  C   UNL     1       4.194   3.743  18.136  0.00  0.00    +0.000 C 
ATOM     21 CL   UNL     1       3.526   2.126  17.819  0.00  0.00    +0.000 Cl
ENDBRANCH  19  20
ENDBRANCH  18  19
ENDBRANCH  15  18
ENDBRANCH  13  15
ENDBRANCH   2  13
TORSDOF 11
ENDMDL
MODEL 6
REMARK VINA RESULT:      -6.0      0.933      1.104
REMARK  Name = 
REMARK  12 active torsions:
REMARK  status: ('A' for Active; 'I' for Inactive)
REMARK    1  A    between atoms: C_1  and  C_2
REMARK    2  A    between atoms: C_2  and  C_3
REMARK    3  A    between atoms: C_3  and  C_4
REMARK    4  A    between atoms: C_5  and  C_6
REMARK    5  A    between atoms: C_6  and  C_7
REMARK    6  A    between atoms: C_8  and  C_9
REMARK    7  A    between atoms: C_10  and  C_11
REMARK    8  A    between atoms: N_12  and  N_13
REMARK    9  A    between atoms: N_13  and  S_14
REMARK   10  A    between atoms: S_14  and  C_17
REMARK   11  A    between atoms: C_17  and  C_18
REMARK   12  A    between atoms: C_18  and  C_19
REMARK                            x       y       z     vdW  Elec       q    Type
REMARK                         _______ _______ _______ _____ _____    ______ ____
ROOT
ATOM      1  C   UNL     1       7.119   6.369  17.419  0.00  0.00    +0.000 C 
ATOM      2  N   UNL     1       7.082   5.568  18.434  0.00  0.00    +0.000 NA
ENDROOT
BRANCH   1   4
ATOM      3  C   UNL     1       8.417   8.067  18.670  0.00  0.00    +0.000 C 
ATOM      4  C   UNL     1       7.744   7.700  17.569  0.00  0.00    +0.000 C 
BRANCH   3   6
ATOM      5  C   UNL     1       8.700  10.426  18.014  0.00  0.00    +0.000 C 
ATOM      6  C   UNL     1       9.024   9.376  18.786  0.00  0.00    +0.000 C 
BRANCH   5   7
ATOM      7  C   UNL     1       9.351  11.778  18.125  0.00  0.00    +0.000 C 
BRANCH   7   9
ATOM      8  C   UNL     1       9.864  12.279  20.542  0.00  0.00    +0.000 C 
ATOM      9  C   UNL     1       9.084  12.424  19.455  0.00  0.00    +0.000 C 
BRANCH   8  10
ATOM     10  C   UNL     1       9.559  12.901  21.877  0.00  0.00    +0.000 C 
BRANCH  10  12
ATOM     11  C   UNL     1       8.071  11.662  23.490  0.00  0.00    +0.000 C 
ATOM     12  C   UNL     1       8.120  12.628  22.314  0.00  0.00    +0.000 C 
ENDBRANCH  10  12
ENDBRANCH   8  10
ENDBRANCH   7   9
ENDBRANCH   5   7
ENDBRANCH   3   6
ENDBRANCH   1   4
BRANCH   2  13
ATOM     13  N   UNL     1       6.481   4.291  18.215  0.00  0.00    +0.000 N 
ATOM     14  H   UNL     1       6.893   3.530  17.673  0.00  0.00    +0.000 HD
BRANCH  13  15
ATOM     15  S   UNL     1       4.975   3.961  18.924  0.00  0.00    +0.000 S 
ATOM     16  O   UNL     1       5.194   2.873  19.854  0.00  0.00    +0.000 OA
ATOM     17  O   UNL     1       4.370   5.205  19.350  0.00  0.00    +0.000 OA
BRANCH  15  18
ATOM     18  C   UNL     1       4.064   3.325  17.517  0.00  0.00    +0.000 C 
BRANCH  18  19
ATOM     19  C   UNL     1       3.153   2.172  17.935  0.00  0.00    +0.000 C 
BRANCH  19  20
ATOM     20  C   UNL     1       1.718   2.604  18.207  0.00  0.00    +0.000 C 
ATOM     21 CL   UNL     1       1.420   4.286  17.713  0.00  0.00    +0.000 Cl
ENDBRANCH  19  20
ENDBRANCH  18  19
ENDBRANCH  15  18
ENDBRANCH  13  15
ENDBRANCH   2  13
TORSDOF 11
ENDMDL
MODEL 7
REMARK VINA RESULT:      -5.9      1.529      2.057
REMARK  Name = 
REMARK  12 active torsions:
REMARK  status: ('A' for Active; 'I' for Inactive)
REMARK    1  A    between atoms: C_1  and  C_2
REMARK    2  A    between atoms: C_2  and  C_3
REMARK    3  A    between atoms: C_3  and  C_4
REMARK    4  A    between atoms: C_5  and  C_6
REMARK    5  A    between atoms: C_6  and  C_7
REMARK    6  A    between atoms: C_8  and  C_9
REMARK    7  A    between atoms: C_10  and  C_11
REMARK    8  A    between atoms: N_12  and  N_13
REMARK    9  A    between atoms: N_13  and  S_14
REMARK   10  A    between atoms: S_14  and  C_17
REMARK   11  A    between atoms: C_17  and  C_18
REMARK   12  A    between atoms: C_18  and  C_19
REMARK                            x       y       z     vdW  Elec       q    Type
REMARK                         _______ _______ _______ _____ _____    ______ ____
ROOT
ATOM      1  C   UNL     1       7.118   4.920  18.113  0.00  0.00    +0.000 C 
ATOM      2  N   UNL     1       5.894   4.732  18.488  0.00  0.00    +0.000 NA
ENDROOT
BRANCH   1   4
ATOM      3  C   UNL     1       7.699   7.324  18.001  0.00  0.00    +0.000 C 
ATOM      4  C   UNL     1       7.842   6.122  18.577  0.00  0.00    +0.000 C 
BRANCH   3   6
ATOM      5  C   UNL     1       8.505   9.646  17.811  0.00  0.00    +0.000 C 
ATOM      6  C   UNL     1       8.417   8.486  18.482  0.00  0.00    +0.000 C 
BRANCH   5   7
ATOM      7  C   UNL     1       9.272  10.842  18.306  0.00  0.00    +0.000 C 
BRANCH   7   9
ATOM      8  C   UNL     1       9.412  12.077  20.500  0.00  0.00    +0.000 C 
ATOM      9  C   UNL     1       9.266  10.933  19.807  0.00  0.00    +0.000 C 
BRANCH   8  10
ATOM     10  C   UNL     1       9.443  12.143  22.003  0.00  0.00    +0.000 C 
BRANCH  10  12
ATOM     11  C   UNL     1       7.742  13.962  21.622  0.00  0.00    +0.000 C 
ATOM     12  C   UNL     1       8.858  13.456  22.524  0.00  0.00    +0.000 C 
ENDBRANCH  10  12
ENDBRANCH   8  10
ENDBRANCH   7   9
ENDBRANCH   5   7
ENDBRANCH   3   6
ENDBRANCH   1   4
BRANCH   2  13
ATOM     13  N   UNL     1       5.259   3.543  18.019  0.00  0.00    +0.000 N 
ATOM     14  H   UNL     1       5.378   3.137  17.090  0.00  0.00    +0.000 HD
BRANCH  13  15
ATOM     15  S   UNL     1       4.241   2.687  19.073  0.00  0.00    +0.000 S 
ATOM     16  O   UNL     1       3.619   1.647  18.280  0.00  0.00    +0.000 OA
ATOM     17  O   UNL     1       4.969   2.376  20.285  0.00  0.00    +0.000 OA
BRANCH  15  18
ATOM     18  C   UNL     1       3.004   3.930  19.443  0.00  0.00    +0.000 C 
BRANCH  18  19
ATOM     19  C   UNL     1       2.488   3.775  20.873  0.00  0.00    +0.000 C 
BRANCH  19  20
ATOM     20  C   UNL     1       1.106   3.138  20.951  0.00  0.00    +0.000 C 
ATOM     21 CL   UNL     1       0.502   2.654  19.350  0.00  0.00    +0.000 Cl
ENDBRANCH  19  20
ENDBRANCH  18  19
ENDBRANCH  15  18
ENDBRANCH  13  15
ENDBRANCH   2  13
TORSDOF 11
ENDMDL
MODEL 8
REMARK VINA RESULT:      -5.9      2.019      2.660
REMARK  Name = 
REMARK  12 active torsions:
REMARK  status: ('A' for Active; 'I' for Inactive)
REMARK    1  A    between atoms: C_1  and  C_2
REMARK    2  A    between atoms: C_2  and  C_3
REMARK    3  A    between atoms: C_3  and  C_4
REMARK    4  A    between atoms: C_5  and  C_6
REMARK    5  A    between atoms: C_6  and  C_7
REMARK    6  A    between atoms: C_8  and  C_9
REMARK    7  A    between atoms: C_10  and  C_11
REMARK    8  A    between atoms: N_12  and  N_13
REMARK    9  A    between atoms: N_13  and  S_14
REMARK   10  A    between atoms: S_14  and  C_17
REMARK   11  A    between atoms: C_17  and  C_18
REMARK   12  A    between atoms: C_18  and  C_19
REMARK                            x       y       z     vdW  Elec       q    Type
REMARK                         _______ _______ _______ _____ _____    ______ ____
ROOT
ATOM      1  C   UNL     1       6.405   4.853  18.630  0.00  0.00    +0.000 C 
ATOM      2  N   UNL     1       5.162   5.141  18.842  0.00  0.00    +0.000 NA
ENDROOT
BRANCH   1   4
ATOM      3  C   UNL     1       7.134   7.012  17.662  0.00  0.00    +0.000 C 
ATOM      4  C   UNL     1       7.380   5.947  18.439  0.00  0.00    +0.000 C 
BRANCH   3   6
ATOM      5  C   UNL     1       8.051   9.250  18.142  0.00  0.00    +0.000 C 
ATOM      6  C   UNL     1       8.107   8.072  17.498  0.00  0.00    +0.000 C 
BRANCH   5   7
ATOM      7  C   UNL     1       9.052  10.356  17.950  0.00  0.00    +0.000 C 
BRANCH   7   9
ATOM      8  C   UNL     1      10.573  11.691  19.453  0.00  0.00    +0.000 C 
ATOM      9  C   UNL     1       9.438  10.997  19.253  0.00  0.00    +0.000 C 
BRANCH   8  10
ATOM     10  C   UNL     1      10.962  12.292  20.776  0.00  0.00    +0.000 C 
BRANCH  10  12
ATOM     11  C   UNL     1       9.901  14.337  21.796  0.00  0.00    +0.000 C 
ATOM     12  C   UNL     1       9.750  12.847  21.525  0.00  0.00    +0.000 C 
ENDBRANCH  10  12
ENDBRANCH   8  10
ENDBRANCH   7   9
ENDBRANCH   5   7
ENDBRANCH   3   6
ENDBRANCH   1   4
BRANCH   2  13
ATOM     13  N   UNL     1       4.277   4.039  19.038  0.00  0.00    +0.000 N 
ATOM     14  H   UNL     1       4.090   3.582  19.932  0.00  0.00    +0.000 HD
BRANCH  13  15
ATOM     15  S   UNL     1       3.421   3.427  17.705  0.00  0.00    +0.000 S 
ATOM     16  O   UNL     1       3.895   4.159  16.550  0.00  0.00    +0.000 OA
ATOM     17  O   UNL     1       3.455   1.980  17.746  0.00  0.00    +0.000 OA
BRANCH  15  18
ATOM     18  C   UNL     1       1.758   3.979  18.080  0.00  0.00    +0.000 C 
BRANCH  18  19
ATOM     19  C   UNL     1       1.089   3.046  19.089  0.00  0.00    +0.000 C 
BRANCH  19  20
ATOM     20  C   UNL     1       0.962   3.654  20.480  0.00  0.00    +0.000 C 
ATOM     21 CL   UNL     1       1.774   2.669  21.718  0.00  0.00    +0.000 Cl
ENDBRANCH  19  20
ENDBRANCH  18  19
ENDBRANCH  15  18
ENDBRANCH  13  15
ENDBRANCH   2  13
TORSDOF 11
ENDMDL
MODEL 9
REMARK VINA RESULT:      -5.9      3.679      4.555
REMARK  Name = 
REMARK  12 active torsions:
REMARK  status: ('A' for Active; 'I' for Inactive)
REMARK    1  A    between atoms: C_1  and  C_2
REMARK    2  A    between atoms: C_2  and  C_3
REMARK    3  A    between atoms: C_3  and  C_4
REMARK    4  A    between atoms: C_5  and  C_6
REMARK    5  A    between atoms: C_6  and  C_7
REMARK    6  A    between atoms: C_8  and  C_9
REMARK    7  A    between atoms: C_10  and  C_11
REMARK    8  A    between atoms: N_12  and  N_13
REMARK    9  A    between atoms: N_13  and  S_14
REMARK   10  A    between atoms: S_14  and  C_17
REMARK   11  A    between atoms: C_17  and  C_18
REMARK   12  A    between atoms: C_18  and  C_19
REMARK                            x       y       z     vdW  Elec       q    Type
REMARK                         _______ _______ _______ _____ _____    ______ ____
ROOT
ATOM      1  C   UNL     1       7.622   8.304  17.814  0.00  0.00    +0.000 C 
ATOM      2  N   UNL     1       8.044   7.404  16.985  0.00  0.00    +0.000 NA
ENDROOT
BRANCH   1   4
ATOM      3  C   UNL     1       8.763  10.498  17.916  0.00  0.00    +0.000 C 
ATOM      4  C   UNL     1       8.586   9.260  18.398  0.00  0.00    +0.000 C 
BRANCH   3   6
ATOM      5  C   UNL     1      10.470  11.123  19.581  0.00  0.00    +0.000 C 
ATOM      6  C   UNL     1       9.711  11.416  18.513  0.00  0.00    +0.000 C 
BRANCH   5   7
ATOM      7  C   UNL     1      11.437  12.089  20.211  0.00  0.00    +0.000 C 
BRANCH   7   9
ATOM      8  C   UNL     1      11.217  14.587  19.944  0.00  0.00    +0.000 C 
ATOM      9  C   UNL     1      11.526  13.377  19.441  0.00  0.00    +0.000 C 
BRANCH   8  10
ATOM     10  C   UNL     1      11.275  15.861  19.146  0.00  0.00    +0.000 C 
BRANCH  10  12
ATOM     11  C   UNL     1      10.000  17.097  17.359  0.00  0.00    +0.000 C 
ATOM     12  C   UNL     1      10.507  15.741  17.830  0.00  0.00    +0.000 C 
ENDBRANCH  10  12
ENDBRANCH   8  10
ENDBRANCH   7   9
ENDBRANCH   5   7
ENDBRANCH   3   6
ENDBRANCH   1   4
BRANCH   2  13
ATOM     13  N   UNL     1       7.058   6.524  16.444  0.00  0.00    +0.000 N 
ATOM     14  H   UNL     1       6.485   6.714  15.620  0.00  0.00    +0.000 HD
BRANCH  13  15
ATOM     15  S   UNL     1       6.808   5.017  17.184  0.00  0.00    +0.000 S 
ATOM     16  O   UNL     1       8.026   4.261  16.983  0.00  0.00    +0.000 OA
ATOM     17  O   UNL     1       6.261   5.227  18.509  0.00  0.00    +0.000 OA
BRANCH  15  18
ATOM     18  C   UNL     1       5.532   4.324  16.134  0.00  0.00    +0.000 C 
BRANCH  18  19
ATOM     19  C   UNL     1       5.598   4.924  14.730  0.00  0.00    +0.000 C 
BRANCH  19  20
ATOM     20  C   UNL     1       6.431   4.097  13.759  0.00  0.00    +0.000 C 
ATOM     21 CL   UNL     1       7.659   5.078  12.927  0.00  0.00    +0.000 Cl
ENDBRANCH  19  20
ENDBRANCH  18  19
ENDBRANCH  15  18
ENDBRANCH  13  15
ENDBRANCH   2  13
TORSDOF 11
ENDMDL
