MODEL 1
REMARK VINA RESULT:      -7.2      0.000      0.000
REMARK  Name = 
REMARK  9 active torsions:
REMARK  status: ('A' for Active; 'I' for Inactive)
REMARK    1  A    between atoms: C_1  and  C_2
REMARK    2  A    between atoms: C_2  and  C_3
REMARK    3  A    between atoms: C_2  and  C_4
REMARK    4  A    between atoms: C_2  and  O_5
REMARK    5  A    between atoms: O_5  and  C_6
REMARK    6  A    between atoms: N_11  and  S_12
REMARK    7  A    between atoms: S_12  and  C_15
REMARK    8  A    between atoms: C_18  and  N_19
REMARK    9  A    between atoms: C_20  and  C_22
REMARK                            x       y       z     vdW  Elec       q    Type
REMARK                         _______ _______ _______ _____ _____    ______ ____
ROOT
ATOM      1  S   UNL     1       6.990   5.524  16.635  0.00  0.00    +0.000 S 
ATOM      2  O   UNL     1       7.480   4.346  17.319  0.00  0.00    +0.000 OA
ATOM      3  O   UNL     1       7.238   5.712  15.223  0.00  0.00    +0.000 OA
ENDROOT
BRANCH   1   9
ATOM      4  C   UNL     1       3.504   2.435  19.072  0.00  0.00    +0.000 C 
ATOM      5  O   UNL     1       3.124   1.431  18.476  0.00  0.00    +0.000 OA
ATOM      6  N   UNL     1       4.232   3.422  18.451  0.00  0.00    +0.000 N 
ATOM      7  C   UNL     1       4.527   3.252  17.031  0.00  0.00    +0.000 C 
ATOM      8  C   UNL     1       4.447   4.591  16.291  0.00  0.00    +0.000 C 
ATOM      9  N   UNL     1       5.312   5.629  16.928  0.00  0.00    +0.000 NA
ATOM     10  C   UNL     1       4.919   5.804  18.370  0.00  0.00    +0.000 C 
ATOM     11  C   UNL     1       4.974   4.479  19.147  0.00  0.00    +0.000 C 
BRANCH   4  12
ATOM     12  O   UNL     1       3.205   2.713  20.371  0.00  0.00    +0.000 OA
BRANCH  12  14
ATOM     13  C   UNL     1       0.902   2.941  19.546  0.00  0.00    +0.000 C 
ATOM     14  C   UNL     1       1.896   3.270  20.668  0.00  0.00    +0.000 C 
ATOM     15  C   UNL     1       1.982   4.777  20.963  0.00  0.00    +0.000 C 
ATOM     16  C   UNL     1       1.410   2.573  21.950  0.00  0.00    +0.000 C 
ENDBRANCH  12  14
ENDBRANCH   4  12
ENDBRANCH   1   9
BRANCH   1  17
ATOM     17  C   UNL     1       7.623   6.953  17.486  0.00  0.00    +0.000 A 
ATOM     18  C   UNL     1       7.399   8.212  16.939  0.00  0.00    +0.000 A 
ATOM     19  C   UNL     1       7.889   9.345  17.590  0.00  0.00    +0.000 A 
ATOM     20  C   UNL     1       8.606   9.242  18.787  0.00  0.00    +0.000 A 
ATOM     21  C   UNL     1       8.801   7.970  19.344  0.00  0.00    +0.000 A 
ATOM     22  C   UNL     1       8.290   6.829  18.709  0.00  0.00    +0.000 A 
BRANCH  20  23
ATOM     23  N   UNL     1       9.140  10.365  19.470  0.00  0.00    +0.000 N 
ATOM     24  C   UNL     1      10.036  11.279  18.948  0.00  0.00    +0.000 C 
ATOM     25  O   UNL     1      10.548  11.244  17.835  0.00  0.00    +0.000 OA
ATOM     26  H   UNL     1       8.819  10.501  20.420  0.00  0.00    +0.000 HD
BRANCH  24  27
ATOM     27  C   UNL     1      10.397  12.356  19.905  0.00  0.00    +0.000 C 
ATOM     28  C   UNL     1      10.183  13.657  19.685  0.00  0.00    +0.000 C 
ATOM     29 CL   UNL     1       9.359  14.361  18.362  0.00  0.00    +0.000 Cl
ENDBRANCH  24  27
ENDBRANCH  20  23
ENDBRANCH   1  17
TORSDOF 6
ENDMDL
MODEL 2
REMARK VINA RESULT:      -7.0      1.011      1.073
REMARK  Name = 
REMARK  9 active torsions:
REMARK  status: ('A' for Active; 'I' for Inactive)
REMARK    1  A    between atoms: C_1  and  C_2
REMARK    2  A    between atoms: C_2  and  C_3
REMARK    3  A    between atoms: C_2  and  C_4
REMARK    4  A    between atoms: C_2  and  O_5
REMARK    5  A    between atoms: O_5  and  C_6
REMARK    6  A    between atoms: N_11  and  S_12
REMARK    7  A    between atoms: S_12  and  C_15
REMARK    8  A    between atoms: C_18  and  N_19
REMARK    9  A    between atoms: C_20  and  C_22
REMARK                            x       y       z     vdW  Elec       q    Type
REMARK                         _______ _______ _______ _____ _____    ______ ____
ROOT
ATOM      1  S   UNL     1       7.265   6.169  17.418  0.00  0.00    +0.000 S 
ATOM      2  O   UNL     1       7.757   5.195  18.369  0.00  0.00    +0.000 OA
ATOM      3  O   UNL     1       7.532   6.019  16.005  0.00  0.00    +0.000 OA
ENDROOT
BRANCH   1   9
ATOM      4  C   UNL     1       3.402   2.754  18.441  0.00  0.00    +0.000 C 
ATOM      5  O   UNL     1       2.995   2.065  17.510  0.00  0.00    +0.000 OA
ATOM      6  N   UNL     1       4.241   3.826  18.245  0.00  0.00    +0.000 N 
ATOM      7  C   UNL     1       4.624   4.141  16.872  0.00  0.00    +0.000 C 
ATOM      8  C   UNL     1       4.694   5.656  16.657  0.00  0.00    +0.000 C 
ATOM      9  N   UNL     1       5.582   6.318  17.659  0.00  0.00    +0.000 NA
ATOM     10  C   UNL     1       5.100   6.009  19.050  0.00  0.00    +0.000 C 
ATOM     11  C   UNL     1       5.004   4.496  19.303  0.00  0.00    +0.000 C 
BRANCH   4  12
ATOM     12  O   UNL     1       3.030   2.583  19.739  0.00  0.00    +0.000 OA
BRANCH  12  14
ATOM     13  C   UNL     1       0.626   2.371  19.280  0.00  0.00    +0.000 C 
ATOM     14  C   UNL     1       1.708   3.037  20.140  0.00  0.00    +0.000 C 
ATOM     15  C   UNL     1       1.615   4.572  20.128  0.00  0.00    +0.000 C 
ATOM     16  C   UNL     1       1.512   2.571  21.592  0.00  0.00    +0.000 C 
ENDBRANCH  12  14
ENDBRANCH   4  12
ENDBRANCH   1   9
BRANCH   1  17
ATOM     17  C   UNL     1       7.871   7.768  17.911  0.00  0.00    +0.000 A 
ATOM     18  C   UNL     1       7.477   8.887  17.185  0.00  0.00    +0.000 A 
ATOM     19  C   UNL     1       7.942  10.149  17.554  0.00  0.00    +0.000 A 
ATOM     20  C   UNL     1       8.804  10.316  18.644  0.00  0.00    +0.000 A 
ATOM     21  C   UNL     1       9.172   9.184  19.386  0.00  0.00    +0.000 A 
ATOM     22  C   UNL     1       8.688   7.916  19.037  0.00  0.00    +0.000 A 
BRANCH  20  23
ATOM     23  N   UNL     1       9.317  11.578  19.041  0.00  0.00    +0.000 N 
ATOM     24  C   UNL     1      10.583  12.059  18.764  0.00  0.00    +0.000 C 
ATOM     25  O   UNL     1      11.478  11.463  18.176  0.00  0.00    +0.000 OA
ATOM     26  H   UNL     1       8.685  12.170  19.565  0.00  0.00    +0.000 HD
BRANCH  24  27
ATOM     27  C   UNL     1      10.820  13.423  19.302  0.00  0.00    +0.000 C 
ATOM     28  C   UNL     1      11.126  14.483  18.548  0.00  0.00    +0.000 C 
ATOM     29 CL   UNL     1      11.190  14.555  16.840  0.00  0.00    +0.000 Cl
ENDBRANCH  24  27
ENDBRANCH  20  23
ENDBRANCH   1  17
TORSDOF 6
ENDMDL
MODEL 3
REMARK VINA RESULT:      -7.0      4.658      7.663
REMARK  Name = 
REMARK  9 active torsions:
REMARK  status: ('A' for Active; 'I' for Inactive)
REMARK    1  A    between atoms: C_1  and  C_2
REMARK    2  A    between atoms: C_2  and  C_3
REMARK    3  A    between atoms: C_2  and  C_4
REMARK    4  A    between atoms: C_2  and  O_5
REMARK    5  A    between atoms: O_5  and  C_6
REMARK    6  A    between atoms: N_11  and  S_12
REMARK    7  A    between atoms: S_12  and  C_15
REMARK    8  A    between atoms: C_18  and  N_19
REMARK    9  A    between atoms: C_20  and  C_22
REMARK                            x       y       z     vdW  Elec       q    Type
REMARK                         _______ _______ _______ _____ _____    ______ ____
ROOT
ATOM      1  S   UNL     1       4.220   5.047  18.799  0.00  0.00    +0.000 S 
ATOM      2  O   UNL     1       3.909   3.661  19.076  0.00  0.00    +0.000 OA
ATOM      3  O   UNL     1       5.519   5.590  19.125  0.00  0.00    +0.000 OA
ENDROOT
BRANCH   1   9
ATOM      4  C   UNL     1       7.046   4.616  14.388  0.00  0.00    +0.000 C 
ATOM      5  O   UNL     1       7.872   5.495  14.157  0.00  0.00    +0.000 OA
ATOM      6  N   UNL     1       6.105   4.740  15.382  0.00  0.00    +0.000 N 
ATOM      7  C   UNL     1       6.100   5.978  16.156  0.00  0.00    +0.000 C 
ATOM      8  C   UNL     1       4.667   6.416  16.479  0.00  0.00    +0.000 C 
ATOM      9  N   UNL     1       3.893   5.328  17.148  0.00  0.00    +0.000 NA
ATOM     10  C   UNL     1       3.881   4.102  16.276  0.00  0.00    +0.000 C 
ATOM     11  C   UNL     1       5.301   3.636  15.917  0.00  0.00    +0.000 C 
BRANCH   4  12
ATOM     12  O   UNL     1       6.927   3.469  13.664  0.00  0.00    +0.000 OA
BRANCH  12  14
ATOM     13  C   UNL     1       7.200   4.725  11.571  0.00  0.00    +0.000 C 
ATOM     14  C   UNL     1       6.482   3.572  12.284  0.00  0.00    +0.000 C 
ATOM     15  C   UNL     1       4.950   3.681  12.196  0.00  0.00    +0.000 C 
ATOM     16  C   UNL     1       6.895   2.260  11.597  0.00  0.00    +0.000 C 
ENDBRANCH  12  14
ENDBRANCH   4  12
ENDBRANCH   1   9
BRANCH   1  17
ATOM     17  C   UNL     1       2.998   6.054  19.613  0.00  0.00    +0.000 A 
ATOM     18  C   UNL     1       2.829   7.370  19.196  0.00  0.00    +0.000 A 
ATOM     19  C   UNL     1       1.877   8.176  19.822  0.00  0.00    +0.000 A 
ATOM     20  C   UNL     1       1.086   7.688  20.869  0.00  0.00    +0.000 A 
ATOM     21  C   UNL     1       1.247   6.351  21.261  0.00  0.00    +0.000 A 
ATOM     22  C   UNL     1       2.183   5.527  20.619  0.00  0.00    +0.000 A 
BRANCH  20  23
ATOM     23  N   UNL     1       0.123   8.478  21.546  0.00  0.00    +0.000 N 
ATOM     24  C   UNL     1       0.386   9.378  22.562  0.00  0.00    +0.000 C 
ATOM     25  O   UNL     1       1.477   9.605  23.072  0.00  0.00    +0.000 OA
ATOM     26  H   UNL     1      -0.835   8.369  21.241  0.00  0.00    +0.000 HD
BRANCH  24  27
ATOM     27  C   UNL     1      -0.832  10.067  23.062  0.00  0.00    +0.000 C 
ATOM     28  C   UNL     1      -1.105  11.357  22.845  0.00  0.00    +0.000 C 
ATOM     29 CL   UNL     1      -0.223  12.452  21.870  0.00  0.00    +0.000 Cl
ENDBRANCH  24  27
ENDBRANCH  20  23
ENDBRANCH   1  17
TORSDOF 6
ENDMDL
MODEL 4
REMARK VINA RESULT:      -6.9      0.870      1.274
REMARK  Name = 
REMARK  9 active torsions:
REMARK  status: ('A' for Active; 'I' for Inactive)
REMARK    1  A    between atoms: C_1  and  C_2
REMARK    2  A    between atoms: C_2  and  C_3
REMARK    3  A    between atoms: C_2  and  C_4
REMARK    4  A    between atoms: C_2  and  O_5
REMARK    5  A    between atoms: O_5  and  C_6
REMARK    6  A    between atoms: N_11  and  S_12
REMARK    7  A    between atoms: S_12  and  C_15
REMARK    8  A    between atoms: C_18  and  N_19
REMARK    9  A    between atoms: C_20  and  C_22
REMARK                            x       y       z     vdW  Elec       q    Type
REMARK                         _______ _______ _______ _____ _____    ______ ____
ROOT
ATOM      1  S   UNL     1       7.240   6.083  17.417  0.00  0.00    +0.000 S 
ATOM      2  O   UNL     1       7.726   5.126  18.389  0.00  0.00    +0.000 OA
ATOM      3  O   UNL     1       7.534   5.919  16.012  0.00  0.00    +0.000 OA
ENDROOT
BRANCH   1   9
ATOM      4  C   UNL     1       3.408   2.652  18.500  0.00  0.00    +0.000 C 
ATOM      5  O   UNL     1       3.026   1.924  17.587  0.00  0.00    +0.000 OA
ATOM      6  N   UNL     1       4.236   3.727  18.280  0.00  0.00    +0.000 N 
ATOM      7  C   UNL     1       4.637   3.999  16.902  0.00  0.00    +0.000 C 
ATOM      8  C   UNL     1       4.689   5.507  16.634  0.00  0.00    +0.000 C 
ATOM      9  N   UNL     1       5.552   6.217  17.626  0.00  0.00    +0.000 NA
ATOM     10  C   UNL     1       5.052   5.950  19.019  0.00  0.00    +0.000 C 
ATOM     11  C   UNL     1       4.972   4.445  19.325  0.00  0.00    +0.000 C 
BRANCH   4  12
ATOM     12  O   UNL     1       3.018   2.521  19.797  0.00  0.00    +0.000 OA
BRANCH  12  14
ATOM     13  C   UNL     1       1.365   2.582  21.614  0.00  0.00    +0.000 C 
ATOM     14  C   UNL     1       1.673   2.942  20.155  0.00  0.00    +0.000 C 
ATOM     15  C   UNL     1       0.631   2.383  19.171  0.00  0.00    +0.000 C 
ATOM     16  C   UNL     1       1.653   4.475  20.030  0.00  0.00    +0.000 C 
ENDBRANCH  12  14
ENDBRANCH   4  12
ENDBRANCH   1   9
BRANCH   1  17
ATOM     17  C   UNL     1       7.820   7.695  17.902  0.00  0.00    +0.000 A 
ATOM     18  C   UNL     1       7.346   8.810  17.219  0.00  0.00    +0.000 A 
ATOM     19  C   UNL     1       7.789  10.082  17.582  0.00  0.00    +0.000 A 
ATOM     20  C   UNL     1       8.708  10.262  18.623  0.00  0.00    +0.000 A 
ATOM     21  C   UNL     1       9.157   9.132  19.322  0.00  0.00    +0.000 A 
ATOM     22  C   UNL     1       8.697   7.853  18.980  0.00  0.00    +0.000 A 
BRANCH  20  23
ATOM     23  N   UNL     1       9.201  11.534  19.011  0.00  0.00    +0.000 N 
ATOM     24  C   UNL     1      10.306  12.171  18.476  0.00  0.00    +0.000 C 
ATOM     25  O   UNL     1      11.062  11.725  17.621  0.00  0.00    +0.000 OA
ATOM     26  H   UNL     1       8.682  12.010  19.737  0.00  0.00    +0.000 HD
BRANCH  24  27
ATOM     27  C   UNL     1      10.561  13.503  19.081  0.00  0.00    +0.000 C 
ATOM     28  C   UNL     1       9.830  14.593  18.828  0.00  0.00    +0.000 C 
ATOM     29 CL   UNL     1       8.402  14.687  17.890  0.00  0.00    +0.000 Cl
ENDBRANCH  24  27
ENDBRANCH  20  23
ENDBRANCH   1  17
TORSDOF 6
ENDMDL
MODEL 5
REMARK VINA RESULT:      -6.8      8.214     10.350
REMARK  Name = 
REMARK  9 active torsions:
REMARK  status: ('A' for Active; 'I' for Inactive)
REMARK    1  A    between atoms: C_1  and  C_2
REMARK    2  A    between atoms: C_2  and  C_3
REMARK    3  A    between atoms: C_2  and  C_4
REMARK    4  A    between atoms: C_2  and  O_5
REMARK    5  A    between atoms: O_5  and  C_6
REMARK    6  A    between atoms: N_11  and  S_12
REMARK    7  A    between atoms: S_12  and  C_15
REMARK    8  A    between atoms: C_18  and  N_19
REMARK    9  A    between atoms: C_20  and  C_22
REMARK                            x       y       z     vdW  Elec       q    Type
REMARK                         _______ _______ _______ _____ _____    ______ ____
ROOT
ATOM      1  S   UNL     1       0.301  10.761  19.544  0.00  0.00    +0.000 S 
ATOM      2  O   UNL     1      -1.066  10.323  19.735  0.00  0.00    +0.000 OA
ATOM      3  O   UNL     1       0.617  11.782  18.571  0.00  0.00    +0.000 OA
ENDROOT
BRANCH   1   9
ATOM      4  C   UNL     1      -1.076  14.419  23.059  0.00  0.00    +0.000 C 
ATOM      5  O   UNL     1      -0.771  15.582  22.814  0.00  0.00    +0.000 OA
ATOM      6  N   UNL     1      -0.577  13.363  22.333  0.00  0.00    +0.000 N 
ATOM      7  C   UNL     1       0.360  13.668  21.256  0.00  0.00    +0.000 C 
ATOM      8  C   UNL     1       1.467  12.612  21.177  0.00  0.00    +0.000 C 
ATOM      9  N   UNL     1       0.908  11.231  21.068  0.00  0.00    +0.000 NA
ATOM     10  C   UNL     1       0.002  10.954  22.236  0.00  0.00    +0.000 C 
ATOM     11  C   UNL     1      -1.117  12.000  22.359  0.00  0.00    +0.000 C 
BRANCH   4  12
ATOM     12  O   UNL     1      -1.876  14.039  24.094  0.00  0.00    +0.000 OA
BRANCH  12  14
ATOM     13  C   UNL     1      -3.733  14.613  22.591  0.00  0.00    +0.000 C 
ATOM     14  C   UNL     1      -3.282  14.405  24.043  0.00  0.00    +0.000 C 
ATOM     15  C   UNL     1      -3.578  15.621  24.938  0.00  0.00    +0.000 C 
ATOM     16  C   UNL     1      -4.061  13.208  24.614  0.00  0.00    +0.000 C 
ENDBRANCH  12  14
ENDBRANCH   4  12
ENDBRANCH   1   9
BRANCH   1  17
ATOM     17  C   UNL     1       1.285   9.329  19.158  0.00  0.00    +0.000 A 
ATOM     18  C   UNL     1       1.884   9.246  17.906  0.00  0.00    +0.000 A 
ATOM     19  C   UNL     1       2.658   8.131  17.583  0.00  0.00    +0.000 A 
ATOM     20  C   UNL     1       2.844   7.086  18.496  0.00  0.00    +0.000 A 
ATOM     21  C   UNL     1       2.258   7.194  19.766  0.00  0.00    +0.000 A 
ATOM     22  C   UNL     1       1.500   8.324  20.106  0.00  0.00    +0.000 A 
BRANCH  20  23
ATOM     23  N   UNL     1       3.605   5.926  18.202  0.00  0.00    +0.000 N 
ATOM     24  C   UNL     1       3.104   4.731  17.719  0.00  0.00    +0.000 C 
ATOM     25  O   UNL     1       1.925   4.464  17.513  0.00  0.00    +0.000 OA
ATOM     26  H   UNL     1       4.602   5.997  18.355  0.00  0.00    +0.000 HD
BRANCH  24  27
ATOM     27  C   UNL     1       4.154   3.705  17.496  0.00  0.00    +0.000 C 
ATOM     28  C   UNL     1       5.075   3.774  16.529  0.00  0.00    +0.000 C 
ATOM     29 CL   UNL     1       5.340   5.068  15.442  0.00  0.00    +0.000 Cl
ENDBRANCH  24  27
ENDBRANCH  20  23
ENDBRANCH   1  17
TORSDOF 6
ENDMDL
MODEL 6
REMARK VINA RESULT:      -6.8      8.203     10.431
REMARK  Name = 
REMARK  9 active torsions:
REMARK  status: ('A' for Active; 'I' for Inactive)
REMARK    1  A    between atoms: C_1  and  C_2
REMARK    2  A    between atoms: C_2  and  C_3
REMARK    3  A    between atoms: C_2  and  C_4
REMARK    4  A    between atoms: C_2  and  O_5
REMARK    5  A    between atoms: O_5  and  C_6
REMARK    6  A    between atoms: N_11  and  S_12
REMARK    7  A    between atoms: S_12  and  C_15
REMARK    8  A    between atoms: C_18  and  N_19
REMARK    9  A    between atoms: C_20  and  C_22
REMARK                            x       y       z     vdW  Elec       q    Type
REMARK                         _______ _______ _______ _____ _____    ______ ____
ROOT
ATOM      1  S   UNL     1       0.638  10.814  19.331  0.00  0.00    +0.000 S 
ATOM      2  O   UNL     1      -0.797  10.631  19.275  0.00  0.00    +0.000 OA
ATOM      3  O   UNL     1       1.296  11.747  18.445  0.00  0.00    +0.000 OA
ENDROOT
BRANCH   1   9
ATOM      4  C   UNL     1      -1.433  13.973  22.987  0.00  0.00    +0.000 C 
ATOM      5  O   UNL     1      -1.225  15.178  22.876  0.00  0.00    +0.000 OA
ATOM      6  N   UNL     1      -0.762  13.043  22.228  0.00  0.00    +0.000 N 
ATOM      7  C   UNL     1       0.238  13.536  21.285  0.00  0.00    +0.000 C 
ATOM      8  C   UNL     1       1.449  12.598  21.231  0.00  0.00    +0.000 C 
ATOM      9  N   UNL     1       1.047  11.189  20.945  0.00  0.00    +0.000 NA
ATOM     10  C   UNL     1       0.066  10.718  21.984  0.00  0.00    +0.000 C 
ATOM     11  C   UNL     1      -1.160  11.640  22.079  0.00  0.00    +0.000 C 
BRANCH   4  12
ATOM     12  O   UNL     1      -2.284  13.424  23.895  0.00  0.00    +0.000 OA
BRANCH  12  14
ATOM     13  C   UNL     1      -4.148  13.676  22.315  0.00  0.00    +0.000 C 
ATOM     14  C   UNL     1      -3.700  13.733  23.781  0.00  0.00    +0.000 C 
ATOM     15  C   UNL     1      -4.038  15.074  24.455  0.00  0.00    +0.000 C 
ATOM     16  C   UNL     1      -4.447  12.627  24.547  0.00  0.00    +0.000 C 
ENDBRANCH  12  14
ENDBRANCH   4  12
ENDBRANCH   1   9
BRANCH   1  17
ATOM     17  C   UNL     1       1.401   9.223  19.097  0.00  0.00    +0.000 A 
ATOM     18  C   UNL     1       1.950   8.920  17.855  0.00  0.00    +0.000 A 
ATOM     19  C   UNL     1       2.552   7.677  17.651  0.00  0.00    +0.000 A 
ATOM     20  C   UNL     1       2.612   6.722  18.672  0.00  0.00    +0.000 A 
ATOM     21  C   UNL     1       2.079   7.050  19.928  0.00  0.00    +0.000 A 
ATOM     22  C   UNL     1       1.497   8.306  20.148  0.00  0.00    +0.000 A 
BRANCH  20  23
ATOM     23  N   UNL     1       3.194   5.440  18.501  0.00  0.00    +0.000 N 
ATOM     24  C   UNL     1       2.580   4.343  17.926  0.00  0.00    +0.000 C 
ATOM     25  O   UNL     1       1.427   4.285  17.515  0.00  0.00    +0.000 OA
ATOM     26  H   UNL     1       4.147   5.338  18.826  0.00  0.00    +0.000 HD
BRANCH  24  27
ATOM     27  C   UNL     1       3.455   3.144  17.876  0.00  0.00    +0.000 C 
ATOM     28  C   UNL     1       3.804   2.426  18.948  0.00  0.00    +0.000 C 
ATOM     29 CL   UNL     1       3.248   2.625  20.553  0.00  0.00    +0.000 Cl
ENDBRANCH  24  27
ENDBRANCH  20  23
ENDBRANCH   1  17
TORSDOF 6
ENDMDL
MODEL 7
REMARK VINA RESULT:      -6.8      8.080     10.252
REMARK  Name = 
REMARK  9 active torsions:
REMARK  status: ('A' for Active; 'I' for Inactive)
REMARK    1  A    between atoms: C_1  and  C_2
REMARK    2  A    between atoms: C_2  and  C_3
REMARK    3  A    between atoms: C_2  and  C_4
REMARK    4  A    between atoms: C_2  and  O_5
REMARK    5  A    between atoms: O_5  and  C_6
REMARK    6  A    between atoms: N_11  and  S_12
REMARK    7  A    between atoms: S_12  and  C_15
REMARK    8  A    between atoms: C_18  and  N_19
REMARK    9  A    between atoms: C_20  and  C_22
REMARK                            x       y       z     vdW  Elec       q    Type
REMARK                         _______ _______ _______ _____ _____    ______ ____
ROOT
ATOM      1  S   UNL     1       0.311  10.569  19.539  0.00  0.00    +0.000 S 
ATOM      2  O   UNL     1      -1.027  10.064  19.766  0.00  0.00    +0.000 OA
ATOM      3  O   UNL     1       0.549  11.609  18.564  0.00  0.00    +0.000 OA
ENDROOT
BRANCH   1   9
ATOM      4  C   UNL     1      -1.024  14.268  23.027  0.00  0.00    +0.000 C 
ATOM      5  O   UNL     1      -0.724  15.429  22.763  0.00  0.00    +0.000 OA
ATOM      6  N   UNL     1      -0.533  13.204  22.307  0.00  0.00    +0.000 N 
ATOM      7  C   UNL     1       0.388  13.497  21.213  0.00  0.00    +0.000 C 
ATOM      8  C   UNL     1       1.496  12.442  21.132  0.00  0.00    +0.000 C 
ATOM      9  N   UNL     1       0.939  11.059  21.048  0.00  0.00    +0.000 NA
ATOM     10  C   UNL     1       0.050  10.795  22.233  0.00  0.00    +0.000 C 
ATOM     11  C   UNL     1      -1.069  11.840  22.358  0.00  0.00    +0.000 C 
BRANCH   4  12
ATOM     12  O   UNL     1      -1.808  13.900  24.078  0.00  0.00    +0.000 OA
BRANCH  12  14
ATOM     13  C   UNL     1      -4.038  12.976  24.533  0.00  0.00    +0.000 C 
ATOM     14  C   UNL     1      -3.234  14.167  23.995  0.00  0.00    +0.000 C 
ATOM     15  C   UNL     1      -3.648  14.567  22.568  0.00  0.00    +0.000 C 
ATOM     16  C   UNL     1      -3.503  15.372  24.912  0.00  0.00    +0.000 C 
ENDBRANCH  12  14
ENDBRANCH   4  12
ENDBRANCH   1   9
BRANCH   1  17
ATOM     17  C   UNL     1       1.351   9.188  19.115  0.00  0.00    +0.000 A 
ATOM     18  C   UNL     1       1.526   8.170  20.048  0.00  0.00    +0.000 A 
ATOM     19  C   UNL     1       2.338   7.080  19.735  0.00  0.00    +0.000 A 
ATOM     20  C   UNL     1       2.988   6.987  18.499  0.00  0.00    +0.000 A 
ATOM     21  C   UNL     1       2.781   8.006  17.556  0.00  0.00    +0.000 A 
ATOM     22  C   UNL     1       1.946   9.092  17.853  0.00  0.00    +0.000 A 
BRANCH  20  23
ATOM     23  N   UNL     1       3.839   5.908  18.149  0.00  0.00    +0.000 N 
ATOM     24  C   UNL     1       3.432   4.690  17.637  0.00  0.00    +0.000 C 
ATOM     25  O   UNL     1       2.276   4.328  17.448  0.00  0.00    +0.000 OA
ATOM     26  H   UNL     1       4.830   6.062  18.282  0.00  0.00    +0.000 HD
BRANCH  24  27
ATOM     27  C   UNL     1       4.561   3.768  17.355  0.00  0.00    +0.000 C 
ATOM     28  C   UNL     1       5.379   3.885  16.305  0.00  0.00    +0.000 C 
ATOM     29 CL   UNL     1       5.408   5.147  15.150  0.00  0.00    +0.000 Cl
ENDBRANCH  24  27
ENDBRANCH  20  23
ENDBRANCH   1  17
TORSDOF 6
ENDMDL
MODEL 8
REMARK VINA RESULT:      -6.7      0.867      1.536
REMARK  Name = 
REMARK  9 active torsions:
REMARK  status: ('A' for Active; 'I' for Inactive)
REMARK    1  A    between atoms: C_1  and  C_2
REMARK    2  A    between atoms: C_2  and  C_3
REMARK    3  A    between atoms: C_2  and  C_4
REMARK    4  A    between atoms: C_2  and  O_5
REMARK    5  A    between atoms: O_5  and  C_6
REMARK    6  A    between atoms: N_11  and  S_12
REMARK    7  A    between atoms: S_12  and  C_15
REMARK    8  A    between atoms: C_18  and  N_19
REMARK    9  A    between atoms: C_20  and  C_22
REMARK                            x       y       z     vdW  Elec       q    Type
REMARK                         _______ _______ _______ _____ _____    ______ ____
ROOT
ATOM      1  S   UNL     1       7.223   6.132  17.281  0.00  0.00    +0.000 S 
ATOM      2  O   UNL     1       7.723   5.117  18.185  0.00  0.00    +0.000 OA
ATOM      3  O   UNL     1       7.485   6.047  15.862  0.00  0.00    +0.000 OA
ENDROOT
BRANCH   1   9
ATOM      4  C   UNL     1       3.453   2.719  18.616  0.00  0.00    +0.000 C 
ATOM      5  O   UNL     1       3.051   1.952  17.746  0.00  0.00    +0.000 OA
ATOM      6  N   UNL     1       4.265   3.791  18.327  0.00  0.00    +0.000 N 
ATOM      7  C   UNL     1       4.623   4.009  16.929  0.00  0.00    +0.000 C 
ATOM      8  C   UNL     1       4.655   5.505  16.598  0.00  0.00    +0.000 C 
ATOM      9  N   UNL     1       5.540   6.261  17.534  0.00  0.00    +0.000 NA
ATOM     10  C   UNL     1       5.083   6.048  18.951  0.00  0.00    +0.000 C 
ATOM     11  C   UNL     1       5.025   4.557  19.320  0.00  0.00    +0.000 C 
BRANCH   4  12
ATOM     12  O   UNL     1       3.102   2.639  19.929  0.00  0.00    +0.000 OA
BRANCH  12  14
ATOM     13  C   UNL     1       1.403   2.497  21.697  0.00  0.00    +0.000 C 
ATOM     14  C   UNL     1       1.754   3.032  20.303  0.00  0.00    +0.000 C 
ATOM     15  C   UNL     1       0.731   2.615  19.232  0.00  0.00    +0.000 C 
ATOM     16  C   UNL     1       1.754   4.568  20.372  0.00  0.00    +0.000 C 
ENDBRANCH  12  14
ENDBRANCH   4  12
ENDBRANCH   1   9
BRANCH   1  17
ATOM     17  C   UNL     1       7.822   7.710  17.845  0.00  0.00    +0.000 A 
ATOM     18  C   UNL     1       8.625   7.754  18.981  0.00  0.00    +0.000 A 
ATOM     19  C   UNL     1       9.104   8.981  19.440  0.00  0.00    +0.000 A 
ATOM     20  C   UNL     1       8.791  10.176  18.782  0.00  0.00    +0.000 A 
ATOM     21  C   UNL     1       8.005  10.116  17.622  0.00  0.00    +0.000 A 
ATOM     22  C   UNL     1       7.541   8.884  17.140  0.00  0.00    +0.000 A 
BRANCH  20  23
ATOM     23  N   UNL     1       9.239  11.446  19.227  0.00  0.00    +0.000 N 
ATOM     24  C   UNL     1      10.554  11.870  19.273  0.00  0.00    +0.000 C 
ATOM     25  O   UNL     1      11.544  11.207  18.986  0.00  0.00    +0.000 OA
ATOM     26  H   UNL     1       8.519  12.093  19.524  0.00  0.00    +0.000 HD
BRANCH  24  27
ATOM     27  C   UNL     1      10.703  13.260  19.773  0.00  0.00    +0.000 C 
ATOM     28  C   UNL     1      10.848  14.328  18.983  0.00  0.00    +0.000 C 
ATOM     29 CL   UNL     1      10.770  14.371  17.275  0.00  0.00    +0.000 Cl
ENDBRANCH  24  27
ENDBRANCH  20  23
ENDBRANCH   1  17
TORSDOF 6
ENDMDL
MODEL 9
REMARK VINA RESULT:      -6.7      7.738     10.667
REMARK  Name = 
REMARK  9 active torsions:
REMARK  status: ('A' for Active; 'I' for Inactive)
REMARK    1  A    between atoms: C_1  and  C_2
REMARK    2  A    between atoms: C_2  and  C_3
REMARK    3  A    between atoms: C_2  and  C_4
REMARK    4  A    between atoms: C_2  and  O_5
REMARK    5  A    between atoms: O_5  and  C_6
REMARK    6  A    between atoms: N_11  and  S_12
REMARK    7  A    between atoms: S_12  and  C_15
REMARK    8  A    between atoms: C_18  and  N_19
REMARK    9  A    between atoms: C_20  and  C_22
REMARK                            x       y       z     vdW  Elec       q    Type
REMARK                         _______ _______ _______ _____ _____    ______ ____
ROOT
ATOM      1  S   UNL     1       0.419  10.361  20.286  0.00  0.00    +0.000 S 
ATOM      2  O   UNL     1       1.135  10.912  21.416  0.00  0.00    +0.000 OA
ATOM      3  O   UNL     1      -0.938   9.886  20.435  0.00  0.00    +0.000 OA
ENDROOT
BRANCH   1   9
ATOM      4  C   UNL     1      -0.510  15.528  20.021  0.00  0.00    +0.000 C 
ATOM      5  O   UNL     1      -1.683  15.892  20.019  0.00  0.00    +0.000 OA
ATOM      6  N   UNL     1      -0.154  14.210  19.862  0.00  0.00    +0.000 N 
ATOM      7  C   UNL     1      -1.227  13.240  19.663  0.00  0.00    +0.000 C 
ATOM      8  C   UNL     1      -0.815  12.166  18.651  0.00  0.00    +0.000 C 
ATOM      9  N   UNL     1       0.475  11.514  19.029  0.00  0.00    +0.000 NA
ATOM     10  C   UNL     1       1.553  12.554  19.156  0.00  0.00    +0.000 C 
ATOM     11  C   UNL     1       1.173  13.659  20.155  0.00  0.00    +0.000 C 
BRANCH   4  12
ATOM     12  O   UNL     1       0.553  16.372  20.117  0.00  0.00    +0.000 OA
BRANCH  12  14
ATOM     13  C   UNL     1      -0.239  17.181  17.937  0.00  0.00    +0.000 C 
ATOM     14  C   UNL     1       0.917  17.153  18.946  0.00  0.00    +0.000 C 
ATOM     15  C   UNL     1       2.234  16.655  18.327  0.00  0.00    +0.000 C 
ATOM     16  C   UNL     1       1.150  18.591  19.440  0.00  0.00    +0.000 C 
ENDBRANCH  12  14
ENDBRANCH   4  12
ENDBRANCH   1   9
BRANCH   1  17
ATOM     17  C   UNL     1       1.387   9.021  19.626  0.00  0.00    +0.000 A 
ATOM     18  C   UNL     1       1.616   7.904  20.424  0.00  0.00    +0.000 A 
ATOM     19  C   UNL     1       2.374   6.844  19.926  0.00  0.00    +0.000 A 
ATOM     20  C   UNL     1       2.916   6.880  18.636  0.00  0.00    +0.000 A 
ATOM     21  C   UNL     1       2.655   7.999  17.832  0.00  0.00    +0.000 A 
ATOM     22  C   UNL     1       1.873   9.057  18.316  0.00  0.00    +0.000 A 
BRANCH  20  23
ATOM     23  N   UNL     1       3.709   5.834  18.099  0.00  0.00    +0.000 N 
ATOM     24  C   UNL     1       3.233   4.659  17.548  0.00  0.00    +0.000 C 
ATOM     25  O   UNL     1       2.060   4.310  17.476  0.00  0.00    +0.000 OA
ATOM     26  H   UNL     1       4.710   5.980  18.120  0.00  0.00    +0.000 HD
BRANCH  24  27
ATOM     27  C   UNL     1       4.312   3.765  17.056  0.00  0.00    +0.000 C 
ATOM     28  C   UNL     1       5.166   4.089  16.080  0.00  0.00    +0.000 C 
ATOM     29 CL   UNL     1       5.304   5.596  15.283  0.00  0.00    +0.000 Cl
ENDBRANCH  24  27
ENDBRANCH  20  23
ENDBRANCH   1  17
TORSDOF 6
ENDMDL
