MODEL 1
REMARK VINA RESULT:      -8.1      0.000      0.000
REMARK  Name = 
REMARK  6 active torsions:
REMARK  status: ('A' for Active; 'I' for Inactive)
REMARK    1  A    between atoms: C_1  and  O_2
REMARK    2  A    between atoms: O_2  and  C_3
REMARK    3  A    between atoms: C_8  and  C_9
REMARK    4  A    between atoms: C_14  and  C_15
REMARK    5  A    between atoms: C_22  and  C_23
REMARK    6  A    between atoms: C_27  and  C_28
REMARK                            x       y       z     vdW  Elec       q    Type
REMARK                         _______ _______ _______ _____ _____    ______ ____
ROOT
ATOM      1  C   UNL     1       1.520  10.746  18.791  0.00  0.00    +0.000 A 
ATOM      2  N   UNL     1       2.211  10.143  17.756  0.00  0.00    +0.000 NA
ATOM      3  C   UNL     1       2.368   8.890  18.115  0.00  0.00    +0.000 A 
ATOM      4  C   UNL     1       2.964   7.800  17.436  0.00  0.00    +0.000 A 
ATOM      5  C   UNL     1       2.943   6.577  17.987  0.00  0.00    +0.000 A 
ATOM      6  C   UNL     1       2.292   6.458  19.313  0.00  0.00    +0.000 A 
ATOM      7  N   UNL     1       1.753   7.423  19.983  0.00  0.00    +0.000 NA
ATOM      8  N   UNL     1       1.803   8.640  19.352  0.00  0.00    +0.000 N 
ATOM      9  C   UNL     1       1.264   9.833  19.827  0.00  0.00    +0.000 A 
ENDROOT
BRANCH   1  15
ATOM     10  C   UNL     1      -0.222  12.522  18.287  0.00  0.00    +0.000 A 
ATOM     11  C   UNL     1      -0.556  13.886  18.224  0.00  0.00    +0.000 A 
ATOM     12  C   UNL     1       0.386  14.874  18.514  0.00  0.00    +0.000 A 
ATOM     13  C   UNL     1       1.657  14.512  18.930  0.00  0.00    +0.000 A 
ATOM     14  C   UNL     1       1.974  13.162  19.074  0.00  0.00    +0.000 A 
ATOM     15  C   UNL     1       1.069  12.143  18.716  0.00  0.00    +0.000 A 
BRANCH  10  17
ATOM     16  C   UNL     1      -2.484  11.777  18.289  0.00  0.00    +0.000 C 
ATOM     17  O   UNL     1      -1.120  11.533  17.959  0.00  0.00    +0.000 OA
ENDBRANCH  10  17
ENDBRANCH   1  15
BRANCH   9  18
ATOM     18  C   UNL     1       0.590   9.954  21.140  0.00  0.00    +0.000 A 
ATOM     19  C   UNL     1       0.865   9.068  22.191  0.00  0.00    +0.000 A 
ATOM     20  C   UNL     1       0.248   9.210  23.437  0.00  0.00    +0.000 A 
ATOM     21  C   UNL     1      -0.736  10.179  23.624  0.00  0.00    +0.000 A 
ATOM     22  C   UNL     1      -1.084  11.037  22.578  0.00  0.00    +0.000 A 
ATOM     23  C   UNL     1      -0.364  10.957  21.377  0.00  0.00    +0.000 A 
BRANCH  22  24
ATOM     24  C   UNL     1      -2.245  11.912  22.675  0.00  0.00    +0.000 A 
ATOM     25  C   UNL     1      -3.157  12.177  23.678  0.00  0.00    +0.000 A 
ATOM     26  C   UNL     1      -4.157  13.005  23.110  0.00  0.00    +0.000 A 
ATOM     27  C   UNL     1      -3.778  13.218  21.806  0.00  0.00    +0.000 A 
ATOM     28  O   UNL     1      -2.621  12.564  21.533  0.00  0.00    +0.000 OA
ENDBRANCH  22  24
ENDBRANCH   9  18
BRANCH   6  29
ATOM     29  C   UNL     1       2.250   5.113  19.890  0.00  0.00    +0.000 A 
ATOM     30  C   UNL     1       1.142   4.470  20.543  0.00  0.00    +0.000 A 
ATOM     31  C   UNL     1       1.427   3.187  20.960  0.00  0.00    +0.000 A 
ATOM     32  S   UNL     1       3.029   2.737  20.584  0.00  0.00    +0.000 S 
ATOM     33  C   UNL     1       3.335   4.249  19.845  0.00  0.00    +0.000 A 
ENDBRANCH   6  29
TORSDOF 5
ENDMDL
MODEL 2
REMARK VINA RESULT:      -8.1      3.315      7.045
REMARK  Name = 
REMARK  6 active torsions:
REMARK  status: ('A' for Active; 'I' for Inactive)
REMARK    1  A    between atoms: C_1  and  O_2
REMARK    2  A    between atoms: O_2  and  C_3
REMARK    3  A    between atoms: C_8  and  C_9
REMARK    4  A    between atoms: C_14  and  C_15
REMARK    5  A    between atoms: C_22  and  C_23
REMARK    6  A    between atoms: C_27  and  C_28
REMARK                            x       y       z     vdW  Elec       q    Type
REMARK                         _______ _______ _______ _____ _____    ______ ____
ROOT
ATOM      1  C   UNL     1      -0.798  12.598  18.801  0.00  0.00    +0.000 A 
ATOM      2  N   UNL     1      -0.608  13.915  18.425  0.00  0.00    +0.000 NA
ATOM      3  C   UNL     1       0.533  14.278  18.963  0.00  0.00    +0.000 A 
ATOM      4  C   UNL     1       1.249  15.497  18.883  0.00  0.00    +0.000 A 
ATOM      5  C   UNL     1       2.449  15.608  19.472  0.00  0.00    +0.000 A 
ATOM      6  C   UNL     1       2.943  14.415  20.198  0.00  0.00    +0.000 A 
ATOM      7  N   UNL     1       2.323  13.287  20.318  0.00  0.00    +0.000 NA
ATOM      8  N   UNL     1       1.109  13.246  19.680  0.00  0.00    +0.000 N 
ATOM      9  C   UNL     1       0.255  12.147  19.614  0.00  0.00    +0.000 A 
ENDROOT
BRANCH   1  15
ATOM     10  C   UNL     1      -3.235  11.888  18.856  0.00  0.00    +0.000 A 
ATOM     11  C   UNL     1      -4.254  11.071  18.337  0.00  0.00    +0.000 A 
ATOM     12  C   UNL     1      -3.990  10.131  17.340  0.00  0.00    +0.000 A 
ATOM     13  C   UNL     1      -2.716  10.038  16.804  0.00  0.00    +0.000 A 
ATOM     14  C   UNL     1      -1.716  10.899  17.253  0.00  0.00    +0.000 A 
ATOM     15  C   UNL     1      -1.934  11.804  18.310  0.00  0.00    +0.000 A 
BRANCH  10  17
ATOM     16  C   UNL     1      -4.823  13.113  20.139  0.00  0.00    +0.000 C 
ATOM     17  O   UNL     1      -3.463  12.786  19.872  0.00  0.00    +0.000 OA
ENDBRANCH  10  17
ENDBRANCH   1  15
BRANCH   9  18
ATOM     18  C   UNL     1       0.535  10.858  20.286  0.00  0.00    +0.000 A 
ATOM     19  C   UNL     1       0.320  10.685  21.660  0.00  0.00    +0.000 A 
ATOM     20  C   UNL     1       0.556   9.455  22.279  0.00  0.00    +0.000 A 
ATOM     21  C   UNL     1       1.113   8.402  21.556  0.00  0.00    +0.000 A 
ATOM     22  C   UNL     1       1.403   8.560  20.198  0.00  0.00    +0.000 A 
ATOM     23  C   UNL     1       1.042   9.761  19.570  0.00  0.00    +0.000 A 
BRANCH  22  24
ATOM     24  C   UNL     1       2.173   7.560  19.470  0.00  0.00    +0.000 A 
ATOM     25  C   UNL     1       2.739   7.525  18.210  0.00  0.00    +0.000 A 
ATOM     26  C   UNL     1       3.225   6.208  18.019  0.00  0.00    +0.000 A 
ATOM     27  C   UNL     1       2.953   5.529  19.183  0.00  0.00    +0.000 A 
ATOM     28  O   UNL     1       2.320   6.339  20.069  0.00  0.00    +0.000 OA
ENDBRANCH  22  24
ENDBRANCH   9  18
BRANCH   6  29
ATOM     29  C   UNL     1       4.267  14.539  20.812  0.00  0.00    +0.000 A 
ATOM     30  C   UNL     1       5.470  15.053  20.215  0.00  0.00    +0.000 A 
ATOM     31  C   UNL     1       6.548  15.048  21.074  0.00  0.00    +0.000 A 
ATOM     32  S   UNL     1       6.139  14.419  22.605  0.00  0.00    +0.000 S 
ATOM     33  C   UNL     1       4.515  14.172  22.128  0.00  0.00    +0.000 A 
ENDBRANCH   6  29
TORSDOF 5
ENDMDL
MODEL 3
REMARK VINA RESULT:      -7.9      0.845      1.085
REMARK  Name = 
REMARK  6 active torsions:
REMARK  status: ('A' for Active; 'I' for Inactive)
REMARK    1  A    between atoms: C_1  and  O_2
REMARK    2  A    between atoms: O_2  and  C_3
REMARK    3  A    between atoms: C_8  and  C_9
REMARK    4  A    between atoms: C_14  and  C_15
REMARK    5  A    between atoms: C_22  and  C_23
REMARK    6  A    between atoms: C_27  and  C_28
REMARK                            x       y       z     vdW  Elec       q    Type
REMARK                         _______ _______ _______ _____ _____    ______ ____
ROOT
ATOM      1  C   UNL     1       1.567  10.693  18.742  0.00  0.00    +0.000 A 
ATOM      2  N   UNL     1       2.316  10.113  17.734  0.00  0.00    +0.000 NA
ATOM      3  C   UNL     1       2.476   8.858  18.085  0.00  0.00    +0.000 A 
ATOM      4  C   UNL     1       3.120   7.786  17.422  0.00  0.00    +0.000 A 
ATOM      5  C   UNL     1       3.091   6.556  17.956  0.00  0.00    +0.000 A 
ATOM      6  C   UNL     1       2.380   6.410  19.248  0.00  0.00    +0.000 A 
ATOM      7  N   UNL     1       1.793   7.358  19.903  0.00  0.00    +0.000 NA
ATOM      8  N   UNL     1       1.855   8.584  19.289  0.00  0.00    +0.000 N 
ATOM      9  C   UNL     1       1.276   9.762  19.753  0.00  0.00    +0.000 A 
ENDROOT
BRANCH   1  15
ATOM     10  C   UNL     1      -0.234  12.439  18.356  0.00  0.00    +0.000 A 
ATOM     11  C   UNL     1      -0.584  13.799  18.278  0.00  0.00    +0.000 A 
ATOM     12  C   UNL     1       0.374  14.801  18.430  0.00  0.00    +0.000 A 
ATOM     13  C   UNL     1       1.684  14.461  18.724  0.00  0.00    +0.000 A 
ATOM     14  C   UNL     1       2.027  13.119  18.885  0.00  0.00    +0.000 A 
ATOM     15  C   UNL     1       1.099  12.083  18.662  0.00  0.00    +0.000 A 
BRANCH  10  17
ATOM     16  C   UNL     1      -2.441  11.630  18.736  0.00  0.00    +0.000 C 
ATOM     17  O   UNL     1      -1.152  11.435  18.161  0.00  0.00    +0.000 OA
ENDBRANCH  10  17
ENDBRANCH   1  15
BRANCH   9  18
ATOM     18  C   UNL     1       0.537   9.857  21.033  0.00  0.00    +0.000 A 
ATOM     19  C   UNL     1       0.287   8.724  21.820  0.00  0.00    +0.000 A 
ATOM     20  C   UNL     1      -0.382   8.828  23.043  0.00  0.00    +0.000 A 
ATOM     21  C   UNL     1      -0.907  10.052  23.453  0.00  0.00    +0.000 A 
ATOM     22  C   UNL     1      -0.735  11.189  22.660  0.00  0.00    +0.000 A 
ATOM     23  C   UNL     1       0.046  11.087  21.500  0.00  0.00    +0.000 A 
BRANCH  22  24
ATOM     24  C   UNL     1      -1.446  12.427  22.953  0.00  0.00    +0.000 A 
ATOM     25  C   UNL     1      -1.039  13.725  23.197  0.00  0.00    +0.000 A 
ATOM     26  C   UNL     1      -2.195  14.449  23.576  0.00  0.00    +0.000 A 
ATOM     27  C   UNL     1      -3.240  13.559  23.511  0.00  0.00    +0.000 A 
ATOM     28  O   UNL     1      -2.798  12.333  23.131  0.00  0.00    +0.000 OA
ENDBRANCH  22  24
ENDBRANCH   9  18
BRANCH   6  29
ATOM     29  C   UNL     1       2.330   5.058  19.805  0.00  0.00    +0.000 A 
ATOM     30  C   UNL     1       3.346   4.042  19.744  0.00  0.00    +0.000 A 
ATOM     31  C   UNL     1       2.988   2.876  20.388  0.00  0.00    +0.000 A 
ATOM     32  S   UNL     1       1.428   2.978  21.069  0.00  0.00    +0.000 S 
ATOM     33  C   UNL     1       1.237   4.587  20.521  0.00  0.00    +0.000 A 
ENDBRANCH   6  29
TORSDOF 5
ENDMDL
MODEL 4
REMARK VINA RESULT:      -7.9      1.067      1.831
REMARK  Name = 
REMARK  6 active torsions:
REMARK  status: ('A' for Active; 'I' for Inactive)
REMARK    1  A    between atoms: C_1  and  O_2
REMARK    2  A    between atoms: O_2  and  C_3
REMARK    3  A    between atoms: C_8  and  C_9
REMARK    4  A    between atoms: C_14  and  C_15
REMARK    5  A    between atoms: C_22  and  C_23
REMARK    6  A    between atoms: C_27  and  C_28
REMARK                            x       y       z     vdW  Elec       q    Type
REMARK                         _______ _______ _______ _____ _____    ______ ____
ROOT
ATOM      1  C   UNL     1       1.455  10.959  18.767  0.00  0.00    +0.000 A 
ATOM      2  N   UNL     1       2.182  10.380  17.743  0.00  0.00    +0.000 NA
ATOM      3  C   UNL     1       2.362   9.128  18.097  0.00  0.00    +0.000 A 
ATOM      4  C   UNL     1       2.997   8.058  17.423  0.00  0.00    +0.000 A 
ATOM      5  C   UNL     1       2.993   6.830  17.965  0.00  0.00    +0.000 A 
ATOM      6  C   UNL     1       2.318   6.687  19.276  0.00  0.00    +0.000 A 
ATOM      7  N   UNL     1       1.741   7.634  19.941  0.00  0.00    +0.000 NA
ATOM      8  N   UNL     1       1.776   8.856  19.319  0.00  0.00    +0.000 N 
ATOM      9  C   UNL     1       1.199  10.033  19.791  0.00  0.00    +0.000 A 
ENDROOT
BRANCH   1  15
ATOM     10  C   UNL     1       1.823  13.471  18.793  0.00  0.00    +0.000 A 
ATOM     11  C   UNL     1       1.267  14.761  18.735  0.00  0.00    +0.000 A 
ATOM     12  C   UNL     1      -0.112  14.950  18.647  0.00  0.00    +0.000 A 
ATOM     13  C   UNL     1      -0.953  13.853  18.554  0.00  0.00    +0.000 A 
ATOM     14  C   UNL     1      -0.408  12.570  18.528  0.00  0.00    +0.000 A 
ATOM     15  C   UNL     1       0.974  12.345  18.692  0.00  0.00    +0.000 A 
BRANCH  10  17
ATOM     16  C   UNL     1       4.003  14.420  18.912  0.00  0.00    +0.000 C 
ATOM     17  O   UNL     1       3.174  13.261  18.929  0.00  0.00    +0.000 OA
ENDBRANCH  10  17
ENDBRANCH   1  15
BRANCH   9  18
ATOM     18  C   UNL     1       0.495  10.128  21.090  0.00  0.00    +0.000 A 
ATOM     19  C   UNL     1       0.742   9.219  22.127  0.00  0.00    +0.000 A 
ATOM     20  C   UNL     1       0.096   9.337  23.361  0.00  0.00    +0.000 A 
ATOM     21  C   UNL     1      -0.889  10.305  23.546  0.00  0.00    +0.000 A 
ATOM     22  C   UNL     1      -1.209  11.186  22.511  0.00  0.00    +0.000 A 
ATOM     23  C   UNL     1      -0.462  11.130  21.326  0.00  0.00    +0.000 A 
BRANCH  22  24
ATOM     24  C   UNL     1      -2.370  12.063  22.599  0.00  0.00    +0.000 A 
ATOM     25  C   UNL     1      -2.777  13.179  21.892  0.00  0.00    +0.000 A 
ATOM     26  C   UNL     1      -3.919  13.687  22.557  0.00  0.00    +0.000 A 
ATOM     27  C   UNL     1      -4.157  12.836  23.610  0.00  0.00    +0.000 A 
ATOM     28  O   UNL     1      -3.227  11.848  23.642  0.00  0.00    +0.000 OA
ENDBRANCH  22  24
ENDBRANCH   9  18
BRANCH   6  29
ATOM     29  C   UNL     1       2.294   5.337  19.843  0.00  0.00    +0.000 A 
ATOM     30  C   UNL     1       1.233   4.711  20.584  0.00  0.00    +0.000 A 
ATOM     31  C   UNL     1       1.524   3.419  20.963  0.00  0.00    +0.000 A 
ATOM     32  S   UNL     1       3.076   2.937  20.445  0.00  0.00    +0.000 S 
ATOM     33  C   UNL     1       3.352   4.449  19.695  0.00  0.00    +0.000 A 
ENDBRANCH   6  29
TORSDOF 5
ENDMDL
MODEL 5
REMARK VINA RESULT:      -7.7      1.336      2.038
REMARK  Name = 
REMARK  6 active torsions:
REMARK  status: ('A' for Active; 'I' for Inactive)
REMARK    1  A    between atoms: C_1  and  O_2
REMARK    2  A    between atoms: O_2  and  C_3
REMARK    3  A    between atoms: C_8  and  C_9
REMARK    4  A    between atoms: C_14  and  C_15
REMARK    5  A    between atoms: C_22  and  C_23
REMARK    6  A    between atoms: C_27  and  C_28
REMARK                            x       y       z     vdW  Elec       q    Type
REMARK                         _______ _______ _______ _____ _____    ______ ____
ROOT
ATOM      1  C   UNL     1       1.481  10.728  18.671  0.00  0.00    +0.000 A 
ATOM      2  N   UNL     1       2.245  10.161  17.667  0.00  0.00    +0.000 NA
ATOM      3  C   UNL     1       2.453   8.919  18.035  0.00  0.00    +0.000 A 
ATOM      4  C   UNL     1       3.132   7.861  17.384  0.00  0.00    +0.000 A 
ATOM      5  C   UNL     1       3.152   6.638  17.937  0.00  0.00    +0.000 A 
ATOM      6  C   UNL     1       2.454   6.486  19.235  0.00  0.00    +0.000 A 
ATOM      7  N   UNL     1       1.837   7.422  19.880  0.00  0.00    +0.000 NA
ATOM      8  N   UNL     1       1.850   8.640  19.248  0.00  0.00    +0.000 N 
ATOM      9  C   UNL     1       1.231   9.803  19.698  0.00  0.00    +0.000 A 
ENDROOT
BRANCH   1  15
ATOM     10  C   UNL     1       1.789  13.246  18.566  0.00  0.00    +0.000 A 
ATOM     11  C   UNL     1       1.200  14.520  18.495  0.00  0.00    +0.000 A 
ATOM     12  C   UNL     1      -0.187  14.677  18.501  0.00  0.00    +0.000 A 
ATOM     13  C   UNL     1      -1.005  13.559  18.516  0.00  0.00    +0.000 A 
ATOM     14  C   UNL     1      -0.432  12.288  18.504  0.00  0.00    +0.000 A 
ATOM     15  C   UNL     1       0.962  12.099  18.574  0.00  0.00    +0.000 A 
BRANCH  10  17
ATOM     16  C   UNL     1       3.950  14.229  18.382  0.00  0.00    +0.000 C 
ATOM     17  O   UNL     1       3.151  13.071  18.610  0.00  0.00    +0.000 OA
ENDBRANCH  10  17
ENDBRANCH   1  15
BRANCH   9  18
ATOM     18  C   UNL     1       0.497   9.890  20.982  0.00  0.00    +0.000 A 
ATOM     19  C   UNL     1       0.211   8.747  21.741  0.00  0.00    +0.000 A 
ATOM     20  C   UNL     1      -0.453   8.842  22.967  0.00  0.00    +0.000 A 
ATOM     21  C   UNL     1      -0.938  10.072  23.408  0.00  0.00    +0.000 A 
ATOM     22  C   UNL     1      -0.729  11.222  22.643  0.00  0.00    +0.000 A 
ATOM     23  C   UNL     1       0.047  11.123  21.479  0.00  0.00    +0.000 A 
BRANCH  22  24
ATOM     24  C   UNL     1      -1.400  12.475  22.967  0.00  0.00    +0.000 A 
ATOM     25  C   UNL     1      -2.670  12.964  22.733  0.00  0.00    +0.000 A 
ATOM     26  C   UNL     1      -2.669  14.317  23.153  0.00  0.00    +0.000 A 
ATOM     27  C   UNL     1      -1.410  14.561  23.646  0.00  0.00    +0.000 A 
ATOM     28  O   UNL     1      -0.634  13.452  23.541  0.00  0.00    +0.000 OA
ENDBRANCH  22  24
ENDBRANCH   9  18
BRANCH   6  29
ATOM     29  C   UNL     1       2.457   5.141  19.813  0.00  0.00    +0.000 A 
ATOM     30  C   UNL     1       3.406   4.086  19.583  0.00  0.00    +0.000 A 
ATOM     31  C   UNL     1       3.130   2.941  20.299  0.00  0.00    +0.000 A 
ATOM     32  S   UNL     1       1.725   3.109  21.251  0.00  0.00    +0.000 S 
ATOM     33  C   UNL     1       1.496   4.719  20.722  0.00  0.00    +0.000 A 
ENDBRANCH   6  29
TORSDOF 5
ENDMDL
MODEL 6
REMARK VINA RESULT:      -7.7      3.749      7.530
REMARK  Name = 
REMARK  6 active torsions:
REMARK  status: ('A' for Active; 'I' for Inactive)
REMARK    1  A    between atoms: C_1  and  O_2
REMARK    2  A    between atoms: O_2  and  C_3
REMARK    3  A    between atoms: C_8  and  C_9
REMARK    4  A    between atoms: C_14  and  C_15
REMARK    5  A    between atoms: C_22  and  C_23
REMARK    6  A    between atoms: C_27  and  C_28
REMARK                            x       y       z     vdW  Elec       q    Type
REMARK                         _______ _______ _______ _____ _____    ______ ____
ROOT
ATOM      1  C   UNL     1       1.351  11.232  18.807  0.00  0.00    +0.000 A 
ATOM      2  N   UNL     1       2.372  12.150  18.970  0.00  0.00    +0.000 NA
ATOM      3  C   UNL     1       1.807  13.332  18.883  0.00  0.00    +0.000 A 
ATOM      4  C   UNL     1       2.353  14.632  19.012  0.00  0.00    +0.000 A 
ATOM      5  C   UNL     1       1.549  15.704  18.950  0.00  0.00    +0.000 A 
ATOM      6  C   UNL     1       0.108  15.440  18.728  0.00  0.00    +0.000 A 
ATOM      7  N   UNL     1      -0.437  14.277  18.584  0.00  0.00    +0.000 NA
ATOM      8  N   UNL     1       0.445  13.230  18.670  0.00  0.00    +0.000 N 
ATOM      9  C   UNL     1       0.122  11.877  18.592  0.00  0.00    +0.000 A 
ENDROOT
BRANCH   1  15
ATOM     10  C   UNL     1       1.273   9.053  20.106  0.00  0.00    +0.000 A 
ATOM     11  C   UNL     1       1.547   7.674  20.145  0.00  0.00    +0.000 A 
ATOM     12  C   UNL     1       2.174   7.031  19.078  0.00  0.00    +0.000 A 
ATOM     13  C   UNL     1       2.480   7.743  17.930  0.00  0.00    +0.000 A 
ATOM     14  C   UNL     1       2.140   9.093  17.847  0.00  0.00    +0.000 A 
ATOM     15  C   UNL     1       1.576   9.786  18.936  0.00  0.00    +0.000 A 
BRANCH  10  17
ATOM     16  C   UNL     1       0.107   8.907  22.176  0.00  0.00    +0.000 C 
ATOM     17  O   UNL     1       0.701   9.716  21.165  0.00  0.00    +0.000 OA
ENDBRANCH  10  17
ENDBRANCH   1  15
BRANCH   9  18
ATOM     18  C   UNL     1      -1.253  11.382  18.350  0.00  0.00    +0.000 A 
ATOM     19  C   UNL     1      -1.516  10.384  17.401  0.00  0.00    +0.000 A 
ATOM     20  C   UNL     1      -2.812   9.900  17.203  0.00  0.00    +0.000 A 
ATOM     21  C   UNL     1      -3.887  10.480  17.875  0.00  0.00    +0.000 A 
ATOM     22  C   UNL     1      -3.669  11.523  18.778  0.00  0.00    +0.000 A 
ATOM     23  C   UNL     1      -2.349  11.907  19.053  0.00  0.00    +0.000 A 
BRANCH  22  24
ATOM     24  C   UNL     1      -4.780  12.285  19.332  0.00  0.00    +0.000 A 
ATOM     25  C   UNL     1      -4.957  12.998  20.502  0.00  0.00    +0.000 A 
ATOM     26  C   UNL     1      -6.319  13.383  20.542  0.00  0.00    +0.000 A 
ATOM     27  C   UNL     1      -6.883  12.910  19.381  0.00  0.00    +0.000 A 
ATOM     28  O   UNL     1      -5.959  12.246  18.640  0.00  0.00    +0.000 OA
ENDBRANCH  22  24
ENDBRANCH   9  18
BRANCH   6  29
ATOM     29  C   UNL     1      -0.763  16.616  18.692  0.00  0.00    +0.000 A 
ATOM     30  C   UNL     1      -0.774  17.675  17.719  0.00  0.00    +0.000 A 
ATOM     31  C   UNL     1      -1.735  18.631  17.967  0.00  0.00    +0.000 A 
ATOM     32  S   UNL     1      -2.634  18.280  19.373  0.00  0.00    +0.000 S 
ATOM     33  C   UNL     1      -1.752  16.839  19.640  0.00  0.00    +0.000 A 
ENDBRANCH   6  29
TORSDOF 5
ENDMDL
MODEL 7
REMARK VINA RESULT:      -7.6      4.817      9.141
REMARK  Name = 
REMARK  6 active torsions:
REMARK  status: ('A' for Active; 'I' for Inactive)
REMARK    1  A    between atoms: C_1  and  O_2
REMARK    2  A    between atoms: O_2  and  C_3
REMARK    3  A    between atoms: C_8  and  C_9
REMARK    4  A    between atoms: C_14  and  C_15
REMARK    5  A    between atoms: C_22  and  C_23
REMARK    6  A    between atoms: C_27  and  C_28
REMARK                            x       y       z     vdW  Elec       q    Type
REMARK                         _______ _______ _______ _____ _____    ______ ____
ROOT
ATOM      1  C   UNL     1      -1.254  12.579  22.622  0.00  0.00    +0.000 A 
ATOM      2  N   UNL     1      -0.643  13.343  23.599  0.00  0.00    +0.000 NA
ATOM      3  C   UNL     1      -1.475  14.327  23.854  0.00  0.00    +0.000 A 
ATOM      4  C   UNL     1      -1.396  15.386  24.790  0.00  0.00    +0.000 A 
ATOM      5  C   UNL     1      -2.420  16.244  24.916  0.00  0.00    +0.000 A 
ATOM      6  C   UNL     1      -3.585  16.020  24.028  0.00  0.00    +0.000 A 
ATOM      7  N   UNL     1      -3.698  15.083  23.145  0.00  0.00    +0.000 NA
ATOM      8  N   UNL     1      -2.618  14.240  23.082  0.00  0.00    +0.000 N 
ATOM      9  C   UNL     1      -2.494  13.127  22.254  0.00  0.00    +0.000 A 
ENDROOT
BRANCH   1  15
ATOM     10  C   UNL     1       0.069  11.222  20.933  0.00  0.00    +0.000 A 
ATOM     11  C   UNL     1       0.573   9.971  20.536  0.00  0.00    +0.000 A 
ATOM     12  C   UNL     1       0.302   8.817  21.271  0.00  0.00    +0.000 A 
ATOM     13  C   UNL     1      -0.424   8.905  22.447  0.00  0.00    +0.000 A 
ATOM     14  C   UNL     1      -0.859  10.152  22.895  0.00  0.00    +0.000 A 
ATOM     15  C   UNL     1      -0.667  11.323  22.136  0.00  0.00    +0.000 A 
BRANCH  10  17
ATOM     16  C   UNL     1       1.259  12.282  19.164  0.00  0.00    +0.000 C 
ATOM     17  O   UNL     1       0.282  12.364  20.198  0.00  0.00    +0.000 OA
ENDBRANCH  10  17
ENDBRANCH   1  15
BRANCH   9  18
ATOM     18  C   UNL     1      -3.525  12.728  21.268  0.00  0.00    +0.000 A 
ATOM     19  C   UNL     1      -4.879  12.639  21.619  0.00  0.00    +0.000 A 
ATOM     20  C   UNL     1      -5.849  12.294  20.674  0.00  0.00    +0.000 A 
ATOM     21  C   UNL     1      -5.471  11.927  19.384  0.00  0.00    +0.000 A 
ATOM     22  C   UNL     1      -4.122  11.938  19.019  0.00  0.00    +0.000 A 
ATOM     23  C   UNL     1      -3.180  12.408  19.945  0.00  0.00    +0.000 A 
BRANCH  22  24
ATOM     24  C   UNL     1      -3.678  11.363  17.756  0.00  0.00    +0.000 A 
ATOM     25  C   UNL     1      -4.204  11.347  16.478  0.00  0.00    +0.000 A 
ATOM     26  C   UNL     1      -3.384  10.484  15.711  0.00  0.00    +0.000 A 
ATOM     27  C   UNL     1      -2.392  10.050  16.558  0.00  0.00    +0.000 A 
ATOM     28  O   UNL     1      -2.558  10.579  17.797  0.00  0.00    +0.000 OA
ENDBRANCH  22  24
ENDBRANCH   9  18
BRANCH   6  29
ATOM     29  C   UNL     1      -4.708  16.945  24.196  0.00  0.00    +0.000 A 
ATOM     30  C   UNL     1      -4.916  17.895  25.255  0.00  0.00    +0.000 A 
ATOM     31  C   UNL     1      -6.074  18.628  25.107  0.00  0.00    +0.000 A 
ATOM     32  S   UNL     1      -6.933  18.186  23.702  0.00  0.00    +0.000 S 
ATOM     33  C   UNL     1      -5.748  17.027  23.280  0.00  0.00    +0.000 A 
ENDBRANCH   6  29
TORSDOF 5
ENDMDL
MODEL 8
REMARK VINA RESULT:      -7.6      3.374      7.009
REMARK  Name = 
REMARK  6 active torsions:
REMARK  status: ('A' for Active; 'I' for Inactive)
REMARK    1  A    between atoms: C_1  and  O_2
REMARK    2  A    between atoms: O_2  and  C_3
REMARK    3  A    between atoms: C_8  and  C_9
REMARK    4  A    between atoms: C_14  and  C_15
REMARK    5  A    between atoms: C_22  and  C_23
REMARK    6  A    between atoms: C_27  and  C_28
REMARK                            x       y       z     vdW  Elec       q    Type
REMARK                         _______ _______ _______ _____ _____    ______ ____
ROOT
ATOM      1  C   UNL     1      -1.420  13.233  19.802  0.00  0.00    +0.000 A 
ATOM      2  N   UNL     1      -1.180  14.562  19.507  0.00  0.00    +0.000 NA
ATOM      3  C   UNL     1       0.072  14.780  19.835  0.00  0.00    +0.000 A 
ATOM      4  C   UNL     1       0.872  15.943  19.716  0.00  0.00    +0.000 A 
ATOM      5  C   UNL     1       2.168  15.901  20.062  0.00  0.00    +0.000 A 
ATOM      6  C   UNL     1       2.676  14.606  20.572  0.00  0.00    +0.000 A 
ATOM      7  N   UNL     1       1.985  13.523  20.719  0.00  0.00    +0.000 NA
ATOM      8  N   UNL     1       0.674  13.640  20.335  0.00  0.00    +0.000 N 
ATOM      9  C   UNL     1      -0.278  12.623  20.348  0.00  0.00    +0.000 A 
ENDROOT
BRANCH   1  15
ATOM     10  C   UNL     1      -2.879  11.722  18.378  0.00  0.00    +0.000 A 
ATOM     11  C   UNL     1      -4.147  11.164  18.138  0.00  0.00    +0.000 A 
ATOM     12  C   UNL     1      -5.246  11.499  18.931  0.00  0.00    +0.000 A 
ATOM     13  C   UNL     1      -5.079  12.348  20.013  0.00  0.00    +0.000 A 
ATOM     14  C   UNL     1      -3.810  12.842  20.310  0.00  0.00    +0.000 A 
ATOM     15  C   UNL     1      -2.698  12.583  19.483  0.00  0.00    +0.000 A 
BRANCH  10  17
ATOM     16  C   UNL     1      -1.585  10.075  17.245  0.00  0.00    +0.000 C 
ATOM     17  O   UNL     1      -1.795  11.444  17.580  0.00  0.00    +0.000 OA
ENDBRANCH  10  17
ENDBRANCH   1  15
BRANCH   9  18
ATOM     18  C   UNL     1       0.001  11.255  20.841  0.00  0.00    +0.000 A 
ATOM     19  C   UNL     1      -0.301  10.872  22.155  0.00  0.00    +0.000 A 
ATOM     20  C   UNL     1      -0.064   9.569  22.602  0.00  0.00    +0.000 A 
ATOM     21  C   UNL     1       0.578   8.651  21.773  0.00  0.00    +0.000 A 
ATOM     22  C   UNL     1       0.954   9.018  20.479  0.00  0.00    +0.000 A 
ATOM     23  C   UNL     1       0.595  10.290  20.010  0.00  0.00    +0.000 A 
BRANCH  22  24
ATOM     24  C   UNL     1       1.808   8.158  19.669  0.00  0.00    +0.000 A 
ATOM     25  C   UNL     1       2.363   8.281  18.409  0.00  0.00    +0.000 A 
ATOM     26  C   UNL     1       2.967   7.035  18.109  0.00  0.00    +0.000 A 
ATOM     27  C   UNL     1       2.771   6.241  19.213  0.00  0.00    +0.000 A 
ATOM     28  O   UNL     1       2.074   6.912  20.164  0.00  0.00    +0.000 OA
ENDBRANCH  22  24
ENDBRANCH   9  18
BRANCH   6  29
ATOM     29  C   UNL     1       4.098  14.565  20.918  0.00  0.00    +0.000 A 
ATOM     30  C   UNL     1       5.205  15.078  20.156  0.00  0.00    +0.000 A 
ATOM     31  C   UNL     1       6.423  14.892  20.774  0.00  0.00    +0.000 A 
ATOM     32  S   UNL     1       6.261  14.093  22.273  0.00  0.00    +0.000 S 
ATOM     33  C   UNL     1       4.561  14.014  22.105  0.00  0.00    +0.000 A 
ENDBRANCH   6  29
TORSDOF 5
ENDMDL
MODEL 9
REMARK VINA RESULT:      -7.5      3.937      7.664
REMARK  Name = 
REMARK  6 active torsions:
REMARK  status: ('A' for Active; 'I' for Inactive)
REMARK    1  A    between atoms: C_1  and  O_2
REMARK    2  A    between atoms: O_2  and  C_3
REMARK    3  A    between atoms: C_8  and  C_9
REMARK    4  A    between atoms: C_14  and  C_15
REMARK    5  A    between atoms: C_22  and  C_23
REMARK    6  A    between atoms: C_27  and  C_28
REMARK                            x       y       z     vdW  Elec       q    Type
REMARK                         _______ _______ _______ _____ _____    ______ ____
ROOT
ATOM      1  C   UNL     1      -0.271  14.358  20.562  0.00  0.00    +0.000 A 
ATOM      2  N   UNL     1      -1.094  15.455  20.388  0.00  0.00    +0.000 NA
ATOM      3  C   UNL     1      -2.291  15.066  20.760  0.00  0.00    +0.000 A 
ATOM      4  C   UNL     1      -3.514  15.775  20.835  0.00  0.00    +0.000 A 
ATOM      5  C   UNL     1      -4.609  15.171  21.321  0.00  0.00    +0.000 A 
ATOM      6  C   UNL     1      -4.455  13.758  21.742  0.00  0.00    +0.000 A 
ATOM      7  N   UNL     1      -3.368  13.061  21.676  0.00  0.00    +0.000 NA
ATOM      8  N   UNL     1      -2.291  13.749  21.179  0.00  0.00    +0.000 N 
ATOM      9  C   UNL     1      -0.996  13.254  21.040  0.00  0.00    +0.000 A 
ENDROOT
BRANCH   1  15
ATOM     10  C   UNL     1       2.097  14.880  21.314  0.00  0.00    +0.000 A 
ATOM     11  C   UNL     1       3.466  14.937  21.000  0.00  0.00    +0.000 A 
ATOM     12  C   UNL     1       3.927  14.622  19.722  0.00  0.00    +0.000 A 
ATOM     13  C   UNL     1       3.035  14.186  18.756  0.00  0.00    +0.000 A 
ATOM     14  C   UNL     1       1.686  14.047  19.080  0.00  0.00    +0.000 A 
ATOM     15  C   UNL     1       1.180  14.429  20.338  0.00  0.00    +0.000 A 
BRANCH  10  17
ATOM     16  C   UNL     1       1.734  16.605  22.914  0.00  0.00    +0.000 C 
ATOM     17  O   UNL     1       1.615  15.232  22.552  0.00  0.00    +0.000 OA
ENDBRANCH  10  17
ENDBRANCH   1  15
BRANCH   9  18
ATOM     18  C   UNL     1      -0.617  11.862  21.375  0.00  0.00    +0.000 A 
ATOM     19  C   UNL     1      -0.802  11.341  22.663  0.00  0.00    +0.000 A 
ATOM     20  C   UNL     1      -0.472  10.016  22.961  0.00  0.00    +0.000 A 
ATOM     21  C   UNL     1       0.149   9.217  22.003  0.00  0.00    +0.000 A 
ATOM     22  C   UNL     1       0.411   9.724  20.729  0.00  0.00    +0.000 A 
ATOM     23  C   UNL     1      -0.042  11.014  20.414  0.00  0.00    +0.000 A 
BRANCH  22  24
ATOM     24  C   UNL     1       1.241   8.993  19.781  0.00  0.00    +0.000 A 
ATOM     25  C   UNL     1       1.550   9.174  18.446  0.00  0.00    +0.000 A 
ATOM     26  C   UNL     1       2.285   8.033  18.040  0.00  0.00    +0.000 A 
ATOM     27  C   UNL     1       2.405   7.241  19.157  0.00  0.00    +0.000 A 
ATOM     28  O   UNL     1       1.780   7.814  20.217  0.00  0.00    +0.000 OA
ENDBRANCH  22  24
ENDBRANCH   9  18
BRANCH   6  29
ATOM     29  C   UNL     1      -5.648  13.120  22.299  0.00  0.00    +0.000 A 
ATOM     30  C   UNL     1      -6.030  13.019  23.682  0.00  0.00    +0.000 A 
ATOM     31  C   UNL     1      -7.229  12.365  23.868  0.00  0.00    +0.000 A 
ATOM     32  S   UNL     1      -7.913  11.854  22.392  0.00  0.00    +0.000 S 
ATOM     33  C   UNL     1      -6.616  12.525  21.500  0.00  0.00    +0.000 A 
ENDBRANCH   6  29
TORSDOF 5
ENDMDL
