MODEL 1
REMARK VINA RESULT:      -7.3      0.000      0.000
REMARK  Name = 
REMARK  9 active torsions:
REMARK  status: ('A' for Active; 'I' for Inactive)
REMARK    1  A    between atoms: C_1  and  O_2
REMARK    2  A    between atoms: O_2  and  C_3
REMARK    3  A    between atoms: C_6  and  C_7
REMARK    4  A    between atoms: C_7  and  C_19
REMARK    5  A    between atoms: C_8  and  C_9
REMARK    6  A    between atoms: C_11  and  O_12
REMARK    7  A    between atoms: O_12  and  C_13
REMARK    8  A    between atoms: C_15  and  O_16
REMARK    9  A    between atoms: O_16  and  C_17
REMARK                            x       y       z     vdW  Elec       q    Type
REMARK                         _______ _______ _______ _____ _____    ______ ____
ROOT
ATOM      1  C   UNL     1       3.066   6.752  18.211  0.00  0.00    +0.000 C 
ATOM      2  C   UNL     1       4.166   7.118  17.523  0.00  0.00    +0.000 C 
ENDROOT
BRANCH   1   6
ATOM      3  C   UNL     1       0.488   9.866  19.645  0.00  0.00    +0.000 A 
ATOM      4  C   UNL     1       0.801   9.775  18.287  0.00  0.00    +0.000 A 
ATOM      5  C   UNL     1       1.632   8.756  17.811  0.00  0.00    +0.000 A 
ATOM      6  C   UNL     1       2.174   7.819  18.701  0.00  0.00    +0.000 A 
ATOM      7  C   UNL     1       1.873   7.922  20.065  0.00  0.00    +0.000 A 
ATOM      8  C   UNL     1       1.031   8.940  20.532  0.00  0.00    +0.000 A 
BRANCH   3  10
ATOM      9  C   UNL     1      -1.094  11.483  18.931  0.00  0.00    +0.000 C 
ATOM     10  O   UNL     1      -0.314  10.922  19.982  0.00  0.00    +0.000 OA
ENDBRANCH   3  10
ENDBRANCH   1   6
BRANCH   2  11
ATOM     11  C   UNL     1       5.142   6.183  16.952  0.00  0.00    +0.000 A 
ATOM     12  C   UNL     1       6.220   5.749  17.729  0.00  0.00    +0.000 A 
ATOM     13  C   UNL     1       7.154   4.852  17.209  0.00  0.00    +0.000 A 
ATOM     14  C   UNL     1       6.978   4.345  15.922  0.00  0.00    +0.000 A 
ATOM     15  C   UNL     1       5.902   4.769  15.134  0.00  0.00    +0.000 A 
ATOM     16  C   UNL     1       4.995   5.701  15.644  0.00  0.00    +0.000 A 
BRANCH  13  17
ATOM     17  O   UNL     1       8.175   4.510  18.054  0.00  0.00    +0.000 OA
ATOM     18  C   UNL     1       8.232   5.252  19.269  0.00  0.00    +0.000 C 
ENDBRANCH  13  17
BRANCH  15  19
ATOM     19  O   UNL     1       5.850   4.189  13.895  0.00  0.00    +0.000 OA
ATOM     20  C   UNL     1       7.024   4.263  13.096  0.00  0.00    +0.000 C 
ENDBRANCH  15  19
ENDBRANCH   2  11
BRANCH   1  21
ATOM     21  C   UNL     1       2.656   5.339  18.523  0.00  0.00    +0.000 C 
ATOM     22  F   UNL     1       3.585   4.657  19.244  0.00  0.00    +0.000 F 
ATOM     23  F   UNL     1       1.506   5.288  19.244  0.00  0.00    +0.000 F 
ATOM     24  F   UNL     1       2.450   4.617  17.391  0.00  0.00    +0.000 F 
ENDBRANCH   1  21
TORSDOF 6
ENDMDL
MODEL 2
REMARK VINA RESULT:      -7.3      0.285      1.238
REMARK  Name = 
REMARK  9 active torsions:
REMARK  status: ('A' for Active; 'I' for Inactive)
REMARK    1  A    between atoms: C_1  and  O_2
REMARK    2  A    between atoms: O_2  and  C_3
REMARK    3  A    between atoms: C_6  and  C_7
REMARK    4  A    between atoms: C_7  and  C_19
REMARK    5  A    between atoms: C_8  and  C_9
REMARK    6  A    between atoms: C_11  and  O_12
REMARK    7  A    between atoms: O_12  and  C_13
REMARK    8  A    between atoms: C_15  and  O_16
REMARK    9  A    between atoms: O_16  and  C_17
REMARK                            x       y       z     vdW  Elec       q    Type
REMARK                         _______ _______ _______ _____ _____    ______ ____
ROOT
ATOM      1  C   UNL     1       3.076   6.815  18.358  0.00  0.00    +0.000 C 
ATOM      2  C   UNL     1       4.114   7.145  17.563  0.00  0.00    +0.000 C 
ENDROOT
BRANCH   1   6
ATOM      3  C   UNL     1       0.362   9.927  19.521  0.00  0.00    +0.000 A 
ATOM      4  C   UNL     1       0.905   9.067  20.478  0.00  0.00    +0.000 A 
ATOM      5  C   UNL     1       1.799   8.057  20.107  0.00  0.00    +0.000 A 
ATOM      6  C   UNL     1       2.149   7.888  18.761  0.00  0.00    +0.000 A 
ATOM      7  C   UNL     1       1.590   8.741  17.801  0.00  0.00    +0.000 A 
ATOM      8  C   UNL     1       0.703   9.756  18.182  0.00  0.00    +0.000 A 
BRANCH   3  10
ATOM      9  C   UNL     1      -1.445  11.398  19.080  0.00  0.00    +0.000 C 
ATOM     10  O   UNL     1      -0.515  10.854  20.012  0.00  0.00    +0.000 OA
ENDBRANCH   3  10
ENDBRANCH   1   6
BRANCH   2  11
ATOM     11  C   UNL     1       5.112   6.197  17.057  0.00  0.00    +0.000 A 
ATOM     12  C   UNL     1       6.156   5.784  17.891  0.00  0.00    +0.000 A 
ATOM     13  C   UNL     1       7.111   4.875  17.432  0.00  0.00    +0.000 A 
ATOM     14  C   UNL     1       6.990   4.335  16.153  0.00  0.00    +0.000 A 
ATOM     15  C   UNL     1       5.948   4.738  15.309  0.00  0.00    +0.000 A 
ATOM     16  C   UNL     1       5.020   5.682  15.757  0.00  0.00    +0.000 A 
BRANCH  13  17
ATOM     17  O   UNL     1       8.095   4.554  18.328  0.00  0.00    +0.000 OA
ATOM     18  C   UNL     1       8.192   5.418  19.458  0.00  0.00    +0.000 C 
ENDBRANCH  13  17
BRANCH  15  19
ATOM     19  O   UNL     1       5.948   4.127  14.084  0.00  0.00    +0.000 OA
ATOM     20  C   UNL     1       7.032   4.425  13.213  0.00  0.00    +0.000 C 
ENDBRANCH  15  19
ENDBRANCH   2  11
BRANCH   1  21
ATOM     21  C   UNL     1       2.770   5.435  18.872  0.00  0.00    +0.000 C 
ATOM     22  F   UNL     1       2.847   4.475  17.912  0.00  0.00    +0.000 F 
ATOM     23  F   UNL     1       3.625   5.055  19.856  0.00  0.00    +0.000 F 
ATOM     24  F   UNL     1       1.513   5.359  19.383  0.00  0.00    +0.000 F 
ENDBRANCH   1  21
TORSDOF 6
ENDMDL
MODEL 3
REMARK VINA RESULT:      -7.3      0.490      1.350
REMARK  Name = 
REMARK  9 active torsions:
REMARK  status: ('A' for Active; 'I' for Inactive)
REMARK    1  A    between atoms: C_1  and  O_2
REMARK    2  A    between atoms: O_2  and  C_3
REMARK    3  A    between atoms: C_6  and  C_7
REMARK    4  A    between atoms: C_7  and  C_19
REMARK    5  A    between atoms: C_8  and  C_9
REMARK    6  A    between atoms: C_11  and  O_12
REMARK    7  A    between atoms: O_12  and  C_13
REMARK    8  A    between atoms: C_15  and  O_16
REMARK    9  A    between atoms: O_16  and  C_17
REMARK                            x       y       z     vdW  Elec       q    Type
REMARK                         _______ _______ _______ _____ _____    ______ ____
ROOT
ATOM      1  C   UNL     1       3.080   6.750  18.225  0.00  0.00    +0.000 C 
ATOM      2  C   UNL     1       4.176   7.103  17.522  0.00  0.00    +0.000 C 
ENDROOT
BRANCH   1   6
ATOM      3  C   UNL     1       0.506   9.875  19.642  0.00  0.00    +0.000 A 
ATOM      4  C   UNL     1       1.029   8.932  20.529  0.00  0.00    +0.000 A 
ATOM      5  C   UNL     1       1.878   7.917  20.075  0.00  0.00    +0.000 A 
ATOM      6  C   UNL     1       2.201   7.827  18.715  0.00  0.00    +0.000 A 
ATOM      7  C   UNL     1       1.662   8.764  17.824  0.00  0.00    +0.000 A 
ATOM      8  C   UNL     1       0.820   9.783  18.288  0.00  0.00    +0.000 A 
BRANCH   3  10
ATOM      9  C   UNL     1       0.296  11.863  20.917  0.00  0.00    +0.000 C 
ATOM     10  O   UNL     1      -0.329  10.798  20.208  0.00  0.00    +0.000 OA
ENDBRANCH   3  10
ENDBRANCH   1   6
BRANCH   2  11
ATOM     11  C   UNL     1       5.139   6.157  16.948  0.00  0.00    +0.000 A 
ATOM     12  C   UNL     1       6.225   5.726  17.716  0.00  0.00    +0.000 A 
ATOM     13  C   UNL     1       7.148   4.819  17.192  0.00  0.00    +0.000 A 
ATOM     14  C   UNL     1       6.953   4.299  15.914  0.00  0.00    +0.000 A 
ATOM     15  C   UNL     1       5.869   4.720  15.135  0.00  0.00    +0.000 A 
ATOM     16  C   UNL     1       4.972   5.662  15.647  0.00  0.00    +0.000 A 
BRANCH  13  17
ATOM     17  O   UNL     1       8.178   4.480  18.028  0.00  0.00    +0.000 OA
ATOM     18  C   UNL     1       8.259   5.240  19.231  0.00  0.00    +0.000 C 
ENDBRANCH  13  17
BRANCH  15  19
ATOM     19  O   UNL     1       5.797   4.128  13.903  0.00  0.00    +0.000 OA
ATOM     20  C   UNL     1       6.950   4.215  13.076  0.00  0.00    +0.000 C 
ENDBRANCH  15  19
ENDBRANCH   2  11
BRANCH   1  21
ATOM     21  C   UNL     1       2.665   5.343  18.552  0.00  0.00    +0.000 C 
ATOM     22  F   UNL     1       1.507   5.276  19.262  0.00  0.00    +0.000 F 
ATOM     23  F   UNL     1       2.466   4.596  17.434  0.00  0.00    +0.000 F 
ATOM     24  F   UNL     1       3.604   4.704  19.297  0.00  0.00    +0.000 F 
ENDBRANCH   1  21
TORSDOF 6
ENDMDL
MODEL 4
REMARK VINA RESULT:      -6.9      0.588      2.574
REMARK  Name = 
REMARK  9 active torsions:
REMARK  status: ('A' for Active; 'I' for Inactive)
REMARK    1  A    between atoms: C_1  and  O_2
REMARK    2  A    between atoms: O_2  and  C_3
REMARK    3  A    between atoms: C_6  and  C_7
REMARK    4  A    between atoms: C_7  and  C_19
REMARK    5  A    between atoms: C_8  and  C_9
REMARK    6  A    between atoms: C_11  and  O_12
REMARK    7  A    between atoms: O_12  and  C_13
REMARK    8  A    between atoms: C_15  and  O_16
REMARK    9  A    between atoms: O_16  and  C_17
REMARK                            x       y       z     vdW  Elec       q    Type
REMARK                         _______ _______ _______ _____ _____    ______ ____
ROOT
ATOM      1  C   UNL     1       2.906   6.983  18.566  0.00  0.00    +0.000 C 
ATOM      2  C   UNL     1       3.929   7.227  17.722  0.00  0.00    +0.000 C 
ENDROOT
BRANCH   1   6
ATOM      3  C   UNL     1       0.225  10.217  19.434  0.00  0.00    +0.000 A 
ATOM      4  C   UNL     1       0.610   9.950  18.119  0.00  0.00    +0.000 A 
ATOM      5  C   UNL     1       1.475   8.890  17.828  0.00  0.00    +0.000 A 
ATOM      6  C   UNL     1       1.979   8.091  18.862  0.00  0.00    +0.000 A 
ATOM      7  C   UNL     1       1.605   8.371  20.182  0.00  0.00    +0.000 A 
ATOM      8  C   UNL     1       0.730   9.428  20.465  0.00  0.00    +0.000 A 
BRANCH   3  10
ATOM      9  C   UNL     1      -1.827  11.257  18.856  0.00  0.00    +0.000 C 
ATOM     10  O   UNL     1      -0.605  11.294  19.585  0.00  0.00    +0.000 OA
ENDBRANCH   3  10
ENDBRANCH   1   6
BRANCH   2  11
ATOM     11  C   UNL     1       4.925   6.232  17.310  0.00  0.00    +0.000 A 
ATOM     12  C   UNL     1       4.805   5.611  16.063  0.00  0.00    +0.000 A 
ATOM     13  C   UNL     1       5.746   4.668  15.647  0.00  0.00    +0.000 A 
ATOM     14  C   UNL     1       6.843   4.385  16.460  0.00  0.00    +0.000 A 
ATOM     15  C   UNL     1       6.976   5.001  17.710  0.00  0.00    +0.000 A 
ATOM     16  C   UNL     1       6.007   5.911  18.140  0.00  0.00    +0.000 A 
BRANCH  13  17
ATOM     17  O   UNL     1       5.520   4.114  14.416  0.00  0.00    +0.000 OA
ATOM     18  C   UNL     1       6.622   4.167  13.514  0.00  0.00    +0.000 C 
ENDBRANCH  13  17
BRANCH  15  19
ATOM     19  O   UNL     1       8.099   4.633  18.401  0.00  0.00    +0.000 OA
ATOM     20  C   UNL     1       8.347   5.299  19.632  0.00  0.00    +0.000 C 
ENDBRANCH  15  19
ENDBRANCH   2  11
BRANCH   1  21
ATOM     21  C   UNL     1       2.616   5.669  19.236  0.00  0.00    +0.000 C 
ATOM     22  F   UNL     1       3.592   5.279  20.099  0.00  0.00    +0.000 F 
ATOM     23  F   UNL     1       1.467   5.706  19.959  0.00  0.00    +0.000 F 
ATOM     24  F   UNL     1       2.487   4.664  18.331  0.00  0.00    +0.000 F 
ENDBRANCH   1  21
TORSDOF 6
ENDMDL
MODEL 5
REMARK VINA RESULT:      -6.9      2.702      4.223
REMARK  Name = 
REMARK  9 active torsions:
REMARK  status: ('A' for Active; 'I' for Inactive)
REMARK    1  A    between atoms: C_1  and  O_2
REMARK    2  A    between atoms: O_2  and  C_3
REMARK    3  A    between atoms: C_6  and  C_7
REMARK    4  A    between atoms: C_7  and  C_19
REMARK    5  A    between atoms: C_8  and  C_9
REMARK    6  A    between atoms: C_11  and  O_12
REMARK    7  A    between atoms: O_12  and  C_13
REMARK    8  A    between atoms: C_15  and  O_16
REMARK    9  A    between atoms: O_16  and  C_17
REMARK                            x       y       z     vdW  Elec       q    Type
REMARK                         _______ _______ _______ _____ _____    ______ ____
ROOT
ATOM      1  C   UNL     1       1.835   7.800  19.789  0.00  0.00    +0.000 C 
ATOM      2  C   UNL     1       2.109   6.587  20.310  0.00  0.00    +0.000 C 
ENDROOT
BRANCH   1   6
ATOM      3  C   UNL     1      -0.259  10.608  22.266  0.00  0.00    +0.000 A 
ATOM      4  C   UNL     1       0.625   9.687  22.832  0.00  0.00    +0.000 A 
ATOM      5  C   UNL     1       1.319   8.776  22.029  0.00  0.00    +0.000 A 
ATOM      6  C   UNL     1       1.121   8.769  20.642  0.00  0.00    +0.000 A 
ATOM      7  C   UNL     1       0.221   9.682  20.078  0.00  0.00    +0.000 A 
ATOM      8  C   UNL     1      -0.463  10.598  20.888  0.00  0.00    +0.000 A 
BRANCH   3  10
ATOM      9  C   UNL     1      -1.826  12.353  22.620  0.00  0.00    +0.000 C 
ATOM     10  O   UNL     1      -0.891  11.426  23.162  0.00  0.00    +0.000 OA
ENDBRANCH   3  10
ENDBRANCH   1   6
BRANCH   2  11
ATOM     11  C   UNL     1       2.828   5.520  19.605  0.00  0.00    +0.000 A 
ATOM     12  C   UNL     1       2.106   4.510  18.962  0.00  0.00    +0.000 A 
ATOM     13  C   UNL     1       2.770   3.491  18.276  0.00  0.00    +0.000 A 
ATOM     14  C   UNL     1       4.161   3.513  18.189  0.00  0.00    +0.000 A 
ATOM     15  C   UNL     1       4.896   4.519  18.826  0.00  0.00    +0.000 A 
ATOM     16  C   UNL     1       4.228   5.513  19.548  0.00  0.00    +0.000 A 
BRANCH  13  17
ATOM     17  O   UNL     1       1.963   2.548  17.699  0.00  0.00    +0.000 OA
ATOM     18  C   UNL     1       0.839   2.151  18.480  0.00  0.00    +0.000 C 
ENDBRANCH  13  17
BRANCH  15  19
ATOM     19  O   UNL     1       6.250   4.421  18.656  0.00  0.00    +0.000 OA
ATOM     20  C   UNL     1       7.026   5.573  18.959  0.00  0.00    +0.000 C 
ENDBRANCH  15  19
ENDBRANCH   2  11
BRANCH   1  21
ATOM     21  C   UNL     1       2.200   8.264  18.407  0.00  0.00    +0.000 C 
ATOM     22  F   UNL     1       3.454   7.899  18.032  0.00  0.00    +0.000 F 
ATOM     23  F   UNL     1       1.362   7.762  17.462  0.00  0.00    +0.000 F 
ATOM     24  F   UNL     1       2.152   9.618  18.304  0.00  0.00    +0.000 F 
ENDBRANCH   1  21
TORSDOF 6
ENDMDL
MODEL 6
REMARK VINA RESULT:      -6.9      0.714      2.870
REMARK  Name = 
REMARK  9 active torsions:
REMARK  status: ('A' for Active; 'I' for Inactive)
REMARK    1  A    between atoms: C_1  and  O_2
REMARK    2  A    between atoms: O_2  and  C_3
REMARK    3  A    between atoms: C_6  and  C_7
REMARK    4  A    between atoms: C_7  and  C_19
REMARK    5  A    between atoms: C_8  and  C_9
REMARK    6  A    between atoms: C_11  and  O_12
REMARK    7  A    between atoms: O_12  and  C_13
REMARK    8  A    between atoms: C_15  and  O_16
REMARK    9  A    between atoms: O_16  and  C_17
REMARK                            x       y       z     vdW  Elec       q    Type
REMARK                         _______ _______ _______ _____ _____    ______ ____
ROOT
ATOM      1  C   UNL     1       2.916   6.949  18.557  0.00  0.00    +0.000 C 
ATOM      2  C   UNL     1       3.933   7.208  17.710  0.00  0.00    +0.000 C 
ENDROOT
BRANCH   1   6
ATOM      3  C   UNL     1       0.213  10.145  19.493  0.00  0.00    +0.000 A 
ATOM      4  C   UNL     1       0.743   9.346  20.508  0.00  0.00    +0.000 A 
ATOM      5  C   UNL     1       1.633   8.309  20.211  0.00  0.00    +0.000 A 
ATOM      6  C   UNL     1       1.993   8.051  18.882  0.00  0.00    +0.000 A 
ATOM      7  C   UNL     1       1.447   8.843  17.863  0.00  0.00    +0.000 A 
ATOM      8  C   UNL     1       0.564   9.886  18.170  0.00  0.00    +0.000 A 
BRANCH   3  10
ATOM      9  C   UNL     1      -0.763  11.296  21.323  0.00  0.00    +0.000 C 
ATOM     10  O   UNL     1      -0.662  11.107  19.915  0.00  0.00    +0.000 OA
ENDBRANCH   3  10
ENDBRANCH   1   6
BRANCH   2  11
ATOM     11  C   UNL     1       4.925   6.221  17.270  0.00  0.00    +0.000 A 
ATOM     12  C   UNL     1       4.800   5.633  16.007  0.00  0.00    +0.000 A 
ATOM     13  C   UNL     1       5.738   4.698  15.565  0.00  0.00    +0.000 A 
ATOM     14  C   UNL     1       6.834   4.390  16.369  0.00  0.00    +0.000 A 
ATOM     15  C   UNL     1       6.972   4.973  17.634  0.00  0.00    +0.000 A 
ATOM     16  C   UNL     1       6.007   5.875  18.089  0.00  0.00    +0.000 A 
BRANCH  13  17
ATOM     17  O   UNL     1       5.507   4.178  14.320  0.00  0.00    +0.000 OA
ATOM     18  C   UNL     1       6.655   4.076  13.482  0.00  0.00    +0.000 C 
ENDBRANCH  13  17
BRANCH  15  19
ATOM     19  O   UNL     1       8.095   4.584  18.313  0.00  0.00    +0.000 OA
ATOM     20  C   UNL     1       8.378   5.256  19.533  0.00  0.00    +0.000 C 
ENDBRANCH  15  19
ENDBRANCH   2  11
BRANCH   1  21
ATOM     21  C   UNL     1       2.630   5.621  19.202  0.00  0.00    +0.000 C 
ATOM     22  F   UNL     1       2.595   4.590  18.317  0.00  0.00    +0.000 F 
ATOM     23  F   UNL     1       3.567   5.291  20.129  0.00  0.00    +0.000 F 
ATOM     24  F   UNL     1       1.427   5.620  19.832  0.00  0.00    +0.000 F 
ENDBRANCH   1  21
TORSDOF 6
ENDMDL
MODEL 7
REMARK VINA RESULT:      -6.8      2.610      3.920
REMARK  Name = 
REMARK  9 active torsions:
REMARK  status: ('A' for Active; 'I' for Inactive)
REMARK    1  A    between atoms: C_1  and  O_2
REMARK    2  A    between atoms: O_2  and  C_3
REMARK    3  A    between atoms: C_6  and  C_7
REMARK    4  A    between atoms: C_7  and  C_19
REMARK    5  A    between atoms: C_8  and  C_9
REMARK    6  A    between atoms: C_11  and  O_12
REMARK    7  A    between atoms: O_12  and  C_13
REMARK    8  A    between atoms: C_15  and  O_16
REMARK    9  A    between atoms: O_16  and  C_17
REMARK                            x       y       z     vdW  Elec       q    Type
REMARK                         _______ _______ _______ _____ _____    ______ ____
ROOT
ATOM      1  C   UNL     1       1.564   8.372  19.431  0.00  0.00    +0.000 C 
ATOM      2  C   UNL     1       2.142   7.213  19.806  0.00  0.00    +0.000 C 
ENDROOT
BRANCH   1   6
ATOM      3  C   UNL     1      -0.450  10.657  22.452  0.00  0.00    +0.000 A 
ATOM      4  C   UNL     1       0.191  11.298  21.390  0.00  0.00    +0.000 A 
ATOM      5  C   UNL     1       0.840  10.558  20.395  0.00  0.00    +0.000 A 
ATOM      6  C   UNL     1       0.867   9.159  20.464  0.00  0.00    +0.000 A 
ATOM      7  C   UNL     1       0.237   8.519  21.540  0.00  0.00    +0.000 A 
ATOM      8  C   UNL     1      -0.419   9.266  22.526  0.00  0.00    +0.000 A 
BRANCH   3  10
ATOM      9  C   UNL     1      -1.139  12.862  22.989  0.00  0.00    +0.000 C 
ATOM     10  O   UNL     1      -1.025  11.494  23.368  0.00  0.00    +0.000 OA
ENDBRANCH   3  10
ENDBRANCH   1   6
BRANCH   2  11
ATOM     11  C   UNL     1       2.889   6.325  18.908  0.00  0.00    +0.000 A 
ATOM     12  C   UNL     1       2.264   5.191  18.381  0.00  0.00    +0.000 A 
ATOM     13  C   UNL     1       2.954   4.338  17.518  0.00  0.00    +0.000 A 
ATOM     14  C   UNL     1       4.258   4.652  17.137  0.00  0.00    +0.000 A 
ATOM     15  C   UNL     1       4.895   5.785  17.656  0.00  0.00    +0.000 A 
ATOM     16  C   UNL     1       4.214   6.611  18.554  0.00  0.00    +0.000 A 
BRANCH  13  17
ATOM     17  O   UNL     1       2.248   3.252  17.076  0.00  0.00    +0.000 OA
ATOM     18  C   UNL     1       2.437   2.058  17.832  0.00  0.00    +0.000 C 
ENDBRANCH  13  17
BRANCH  15  19
ATOM     19  O   UNL     1       6.170   5.973  17.196  0.00  0.00    +0.000 OA
ATOM     20  C   UNL     1       7.077   4.888  17.343  0.00  0.00    +0.000 C 
ENDBRANCH  15  19
ENDBRANCH   2  11
BRANCH   1  21
ATOM     21  C   UNL     1       1.571   8.946  18.041  0.00  0.00    +0.000 C 
ATOM     22  F   UNL     1       2.527   9.895  17.857  0.00  0.00    +0.000 F 
ATOM     23  F   UNL     1       1.796   7.995  17.097  0.00  0.00    +0.000 F 
ATOM     24  F   UNL     1       0.386   9.538  17.738  0.00  0.00    +0.000 F 
ENDBRANCH   1  21
TORSDOF 6
ENDMDL
MODEL 8
REMARK VINA RESULT:      -6.8      2.660      3.787
REMARK  Name = 
REMARK  9 active torsions:
REMARK  status: ('A' for Active; 'I' for Inactive)
REMARK    1  A    between atoms: C_1  and  O_2
REMARK    2  A    between atoms: O_2  and  C_3
REMARK    3  A    between atoms: C_6  and  C_7
REMARK    4  A    between atoms: C_7  and  C_19
REMARK    5  A    between atoms: C_8  and  C_9
REMARK    6  A    between atoms: C_11  and  O_12
REMARK    7  A    between atoms: O_12  and  C_13
REMARK    8  A    between atoms: C_15  and  O_16
REMARK    9  A    between atoms: O_16  and  C_17
REMARK                            x       y       z     vdW  Elec       q    Type
REMARK                         _______ _______ _______ _____ _____    ______ ____
ROOT
ATOM      1  C   UNL     1       1.461   8.487  19.421  0.00  0.00    +0.000 C 
ATOM      2  C   UNL     1       2.064   7.332  19.767  0.00  0.00    +0.000 C 
ENDROOT
BRANCH   1   6
ATOM      3  C   UNL     1      -0.491  10.717  22.523  0.00  0.00    +0.000 A 
ATOM      4  C   UNL     1       0.148  11.377  21.471  0.00  0.00    +0.000 A 
ATOM      5  C   UNL     1       0.777  10.656  20.451  0.00  0.00    +0.000 A 
ATOM      6  C   UNL     1       0.785   9.256  20.482  0.00  0.00    +0.000 A 
ATOM      7  C   UNL     1       0.158   8.595  21.547  0.00  0.00    +0.000 A 
ATOM      8  C   UNL     1      -0.478   9.325  22.560  0.00  0.00    +0.000 A 
BRANCH   3  10
ATOM      9  C   UNL     1      -2.377  11.976  23.218  0.00  0.00    +0.000 C 
ATOM     10  O   UNL     1      -1.045  11.537  23.466  0.00  0.00    +0.000 OA
ENDBRANCH   3  10
ENDBRANCH   1   6
BRANCH   2  11
ATOM     11  C   UNL     1       2.795   6.462  18.840  0.00  0.00    +0.000 A 
ATOM     12  C   UNL     1       4.091   6.809  18.444  0.00  0.00    +0.000 A 
ATOM     13  C   UNL     1       4.808   5.990  17.569  0.00  0.00    +0.000 A 
ATOM     14  C   UNL     1       4.245   4.792  17.131  0.00  0.00    +0.000 A 
ATOM     15  C   UNL     1       2.950   4.433  17.520  0.00  0.00    +0.000 A 
ATOM     16  C   UNL     1       2.220   5.277  18.361  0.00  0.00    +0.000 A 
BRANCH  13  17
ATOM     17  O   UNL     1       6.059   6.436  17.240  0.00  0.00    +0.000 OA
ATOM     18  C   UNL     1       6.877   5.494  16.551  0.00  0.00    +0.000 C 
ENDBRANCH  13  17
BRANCH  15  19
ATOM     19  O   UNL     1       2.525   3.232  17.019  0.00  0.00    +0.000 OA
ATOM     20  C   UNL     1       2.272   2.193  17.956  0.00  0.00    +0.000 C 
ENDBRANCH  15  19
ENDBRANCH   2  11
BRANCH   1  21
ATOM     21  C   UNL     1       1.421   9.075  18.038  0.00  0.00    +0.000 C 
ATOM     22  F   UNL     1       1.534   8.143  17.055  0.00  0.00    +0.000 F 
ATOM     23  F   UNL     1       0.260   9.738  17.798  0.00  0.00    +0.000 F 
ATOM     24  F   UNL     1       2.434   9.958  17.840  0.00  0.00    +0.000 F 
ENDBRANCH   1  21
TORSDOF 6
ENDMDL
MODEL 9
REMARK VINA RESULT:      -6.8      2.670      4.049
REMARK  Name = 
REMARK  9 active torsions:
REMARK  status: ('A' for Active; 'I' for Inactive)
REMARK    1  A    between atoms: C_1  and  O_2
REMARK    2  A    between atoms: O_2  and  C_3
REMARK    3  A    between atoms: C_6  and  C_7
REMARK    4  A    between atoms: C_7  and  C_19
REMARK    5  A    between atoms: C_8  and  C_9
REMARK    6  A    between atoms: C_11  and  O_12
REMARK    7  A    between atoms: O_12  and  C_13
REMARK    8  A    between atoms: C_15  and  O_16
REMARK    9  A    between atoms: O_16  and  C_17
REMARK                            x       y       z     vdW  Elec       q    Type
REMARK                         _______ _______ _______ _____ _____    ______ ____
ROOT
ATOM      1  C   UNL     1       1.466   8.409  19.428  0.00  0.00    +0.000 C 
ATOM      2  C   UNL     1       2.066   7.265  19.815  0.00  0.00    +0.000 C 
ENDROOT
BRANCH   1   6
ATOM      3  C   UNL     1      -0.379  10.839  22.443  0.00  0.00    +0.000 A 
ATOM      4  C   UNL     1      -0.452   9.446  22.514  0.00  0.00    +0.000 A 
ATOM      5  C   UNL     1       0.157   8.648  21.540  0.00  0.00    +0.000 A 
ATOM      6  C   UNL     1       0.837   9.242  20.469  0.00  0.00    +0.000 A 
ATOM      7  C   UNL     1       0.894  10.640  20.391  0.00  0.00    +0.000 A 
ATOM      8  C   UNL     1       0.290  11.432  21.376  0.00  0.00    +0.000 A 
BRANCH   3  10
ATOM      9  C   UNL     1      -2.369  11.914  23.158  0.00  0.00    +0.000 C 
ATOM     10  O   UNL     1      -1.036  11.502  23.443  0.00  0.00    +0.000 OA
ENDBRANCH   3  10
ENDBRANCH   1   6
BRANCH   2  11
ATOM     11  C   UNL     1       2.754   6.337  18.910  0.00  0.00    +0.000 A 
ATOM     12  C   UNL     1       2.136   5.135  18.554  0.00  0.00    +0.000 A 
ATOM     13  C   UNL     1       2.769   4.242  17.687  0.00  0.00    +0.000 A 
ATOM     14  C   UNL     1       4.002   4.579  17.132  0.00  0.00    +0.000 A 
ATOM     15  C   UNL     1       4.631   5.781  17.479  0.00  0.00    +0.000 A 
ATOM     16  C   UNL     1       4.013   6.651  18.381  0.00  0.00    +0.000 A 
BRANCH  13  17
ATOM     17  O   UNL     1       2.078   3.091  17.422  0.00  0.00    +0.000 OA
ATOM     18  C   UNL     1       1.337   2.561  18.518  0.00  0.00    +0.000 C 
ENDBRANCH  13  17
BRANCH  15  19
ATOM     19  O   UNL     1       5.834   5.985  16.858  0.00  0.00    +0.000 OA
ATOM     20  C   UNL     1       6.023   5.364  15.593  0.00  0.00    +0.000 C 
ENDBRANCH  15  19
ENDBRANCH   2  11
BRANCH   1  21
ATOM     21  C   UNL     1       1.384   8.923  18.017  0.00  0.00    +0.000 C 
ATOM     22  F   UNL     1       2.416   9.743  17.684  0.00  0.00    +0.000 F 
ATOM     23  F   UNL     1       1.394   7.915  17.106  0.00  0.00    +0.000 F 
ATOM     24  F   UNL     1       0.249   9.639  17.810  0.00  0.00    +0.000 F 
ENDBRANCH   1  21
TORSDOF 6
ENDMDL
