MODEL 1
REMARK VINA RESULT:      -6.9      0.000      0.000
REMARK  Name = 
REMARK  3 active torsions:
REMARK  status: ('A' for Active; 'I' for Inactive)
REMARK    1  A    between atoms: C_1  and  O_2
REMARK    2  A    between atoms: O_2  and  C_3
REMARK    3  A    between atoms: C_8  and  C_9
REMARK                            x       y       z     vdW  Elec       q    Type
REMARK                         _______ _______ _______ _____ _____    ______ ____
ROOT
ATOM      1  C   UNL     1       2.572   3.591  18.692  0.00  0.00    +0.000 A 
ATOM      2  C   UNL     1       1.462   3.335  19.510  0.00  0.00    +0.000 A 
ATOM      3  C   UNL     1       1.049   4.266  20.463  0.00  0.00    +0.000 A 
ATOM      4  C   UNL     1       1.745   5.458  20.616  0.00  0.00    +0.000 A 
ATOM      5  C   UNL     1       2.880   5.707  19.835  0.00  0.00    +0.000 A 
ATOM      6  C   UNL     1       3.309   4.773  18.877  0.00  0.00    +0.000 A 
ENDROOT
BRANCH   6   7
ATOM      7  C   UNL     1       4.544   5.085  18.125  0.00  0.00    +0.000 C 
ATOM      8  C   UNL     1       5.704   4.528  18.501  0.00  0.00    +0.000 C 
ATOM      9  C   UNL     1       6.966   4.871  17.808  0.00  0.00    +0.000 C 
ATOM     10  O   UNL     1       8.027   4.391  18.208  0.00  0.00    +0.000 OA
ATOM     11  C   UNL     1       6.927   5.883  16.682  0.00  0.00    +0.000 C 
ATOM     12  C   UNL     1       5.576   5.882  15.982  0.00  0.00    +0.000 C 
ATOM     13  C   UNL     1       4.423   6.045  16.973  0.00  0.00    +0.000 C 
ENDBRANCH   6   7
BRANCH   1  15
ATOM     14  C   UNL     1       3.540   1.483  18.235  0.00  0.00    +0.000 C 
ATOM     15  O   UNL     1       3.002   2.707  17.730  0.00  0.00    +0.000 OA
ENDBRANCH   1  15
TORSDOF 2
ENDMDL
MODEL 2
REMARK VINA RESULT:      -6.7      2.274      5.126
REMARK  Name = 
REMARK  3 active torsions:
REMARK  status: ('A' for Active; 'I' for Inactive)
REMARK    1  A    between atoms: C_1  and  O_2
REMARK    2  A    between atoms: O_2  and  C_3
REMARK    3  A    between atoms: C_8  and  C_9
REMARK                            x       y       z     vdW  Elec       q    Type
REMARK                         _______ _______ _______ _____ _____    ______ ____
ROOT
ATOM      1  C   UNL     1       4.011   6.083  17.562  0.00  0.00    +0.000 A 
ATOM      2  C   UNL     1       4.855   6.597  16.566  0.00  0.00    +0.000 A 
ATOM      3  C   UNL     1       5.452   5.750  15.631  0.00  0.00    +0.000 A 
ATOM      4  C   UNL     1       5.220   4.382  15.685  0.00  0.00    +0.000 A 
ATOM      5  C   UNL     1       4.415   3.853  16.700  0.00  0.00    +0.000 A 
ATOM      6  C   UNL     1       3.814   4.694  17.651  0.00  0.00    +0.000 A 
ENDROOT
BRANCH   6   7
ATOM      7  C   UNL     1       3.016   4.056  18.721  0.00  0.00    +0.000 C 
ATOM      8  C   UNL     1       3.643   3.473  19.753  0.00  0.00    +0.000 C 
ATOM      9  C   UNL     1       2.873   2.770  20.804  0.00  0.00    +0.000 C 
ATOM     10  O   UNL     1       3.474   2.193  21.711  0.00  0.00    +0.000 OA
ATOM     11  C   UNL     1       1.365   2.701  20.680  0.00  0.00    +0.000 C 
ATOM     12  C   UNL     1       0.816   3.897  19.916  0.00  0.00    +0.000 C 
ATOM     13  C   UNL     1       1.520   4.082  18.571  0.00  0.00    +0.000 C 
ENDBRANCH   6   7
BRANCH   1  15
ATOM     14  C   UNL     1       2.667   7.988  17.947  0.00  0.00    +0.000 C 
ATOM     15  O   UNL     1       3.391   6.883  18.492  0.00  0.00    +0.000 OA
ENDBRANCH   1  15
TORSDOF 2
ENDMDL
MODEL 3
REMARK VINA RESULT:      -6.7      1.265      1.794
REMARK  Name = 
REMARK  3 active torsions:
REMARK  status: ('A' for Active; 'I' for Inactive)
REMARK    1  A    between atoms: C_1  and  O_2
REMARK    2  A    between atoms: O_2  and  C_3
REMARK    3  A    between atoms: C_8  and  C_9
REMARK                            x       y       z     vdW  Elec       q    Type
REMARK                         _______ _______ _______ _____ _____    ______ ____
ROOT
ATOM      1  C   UNL     1       2.671   3.514  18.797  0.00  0.00    +0.000 A 
ATOM      2  C   UNL     1       1.567   3.133  19.575  0.00  0.00    +0.000 A 
ATOM      3  C   UNL     1       1.004   4.019  20.495  0.00  0.00    +0.000 A 
ATOM      4  C   UNL     1       1.542   5.289  20.655  0.00  0.00    +0.000 A 
ATOM      5  C   UNL     1       2.669   5.666  19.915  0.00  0.00    +0.000 A 
ATOM      6  C   UNL     1       3.248   4.781  18.991  0.00  0.00    +0.000 A 
ENDROOT
BRANCH   6   7
ATOM      7  C   UNL     1       4.466   5.233  18.283  0.00  0.00    +0.000 C 
ATOM      8  C   UNL     1       4.348   5.867  17.108  0.00  0.00    +0.000 C 
ATOM      9  C   UNL     1       5.550   6.273  16.345  0.00  0.00    +0.000 C 
ATOM     10  O   UNL     1       5.418   6.802  15.242  0.00  0.00    +0.000 OA
ATOM     11  C   UNL     1       6.917   5.935  16.905  0.00  0.00    +0.000 C 
ATOM     12  C   UNL     1       6.891   5.861  18.425  0.00  0.00    +0.000 C 
ATOM     13  C   UNL     1       5.790   4.926  18.928  0.00  0.00    +0.000 C 
ENDBRANCH   6   7
BRANCH   1  15
ATOM     14  C   UNL     1       3.655   1.407  18.377  0.00  0.00    +0.000 C 
ATOM     15  O   UNL     1       3.245   2.678  17.869  0.00  0.00    +0.000 OA
ENDBRANCH   1  15
TORSDOF 2
ENDMDL
MODEL 4
REMARK VINA RESULT:      -6.6      1.494      2.485
REMARK  Name = 
REMARK  3 active torsions:
REMARK  status: ('A' for Active; 'I' for Inactive)
REMARK    1  A    between atoms: C_1  and  O_2
REMARK    2  A    between atoms: O_2  and  C_3
REMARK    3  A    between atoms: C_8  and  C_9
REMARK                            x       y       z     vdW  Elec       q    Type
REMARK                         _______ _______ _______ _____ _____    ______ ____
ROOT
ATOM      1  C   UNL     1       2.418   4.469  18.265  0.00  0.00    +0.000 A 
ATOM      2  C   UNL     1       1.173   3.966  18.671  0.00  0.00    +0.000 A 
ATOM      3  C   UNL     1       0.984   2.596  18.859  0.00  0.00    +0.000 A 
ATOM      4  C   UNL     1       2.033   1.714  18.634  0.00  0.00    +0.000 A 
ATOM      5  C   UNL     1       3.267   2.200  18.188  0.00  0.00    +0.000 A 
ATOM      6  C   UNL     1       3.467   3.576  17.989  0.00  0.00    +0.000 A 
ENDROOT
BRANCH   6   7
ATOM      7  C   UNL     1       4.783   4.008  17.470  0.00  0.00    +0.000 C 
ATOM      8  C   UNL     1       5.787   4.239  18.327  0.00  0.00    +0.000 C 
ATOM      9  C   UNL     1       7.095   4.735  17.843  0.00  0.00    +0.000 C 
ATOM     10  O   UNL     1       7.983   4.995  18.655  0.00  0.00    +0.000 OA
ATOM     11  C   UNL     1       7.270   5.000  16.362  0.00  0.00    +0.000 C 
ATOM     12  C   UNL     1       6.368   4.103  15.527  0.00  0.00    +0.000 C 
ATOM     13  C   UNL     1       4.909   4.185  15.981  0.00  0.00    +0.000 C 
ENDBRANCH   6   7
BRANCH   1  15
ATOM     14  C   UNL     1       2.721   6.578  19.289  0.00  0.00    +0.000 C 
ATOM     15  O   UNL     1       2.649   5.812  18.085  0.00  0.00    +0.000 OA
ENDBRANCH   1  15
TORSDOF 2
ENDMDL
MODEL 5
REMARK VINA RESULT:      -6.6      1.900      2.894
REMARK  Name = 
REMARK  3 active torsions:
REMARK  status: ('A' for Active; 'I' for Inactive)
REMARK    1  A    between atoms: C_1  and  O_2
REMARK    2  A    between atoms: O_2  and  C_3
REMARK    3  A    between atoms: C_8  and  C_9
REMARK                            x       y       z     vdW  Elec       q    Type
REMARK                         _______ _______ _______ _____ _____    ______ ____
ROOT
ATOM      1  C   UNL     1       2.773   5.447  18.589  0.00  0.00    +0.000 A 
ATOM      2  C   UNL     1       1.525   4.848  18.362  0.00  0.00    +0.000 A 
ATOM      3  C   UNL     1       1.434   3.613  17.718  0.00  0.00    +0.000 A 
ATOM      4  C   UNL     1       2.585   2.969  17.286  0.00  0.00    +0.000 A 
ATOM      5  C   UNL     1       3.832   3.576  17.469  0.00  0.00    +0.000 A 
ATOM      6  C   UNL     1       3.937   4.822  18.109  0.00  0.00    +0.000 A 
ENDROOT
BRANCH   6   7
ATOM      7  C   UNL     1       5.284   5.422  18.222  0.00  0.00    +0.000 C 
ATOM      8  C   UNL     1       6.087   5.056  19.230  0.00  0.00    +0.000 C 
ATOM      9  C   UNL     1       7.414   5.687  19.406  0.00  0.00    +0.000 C 
ATOM     10  O   UNL     1       8.111   5.376  20.373  0.00  0.00    +0.000 OA
ATOM     11  C   UNL     1       7.838   6.773  18.439  0.00  0.00    +0.000 C 
ATOM     12  C   UNL     1       7.187   6.588  17.076  0.00  0.00    +0.000 C 
ATOM     13  C   UNL     1       5.668   6.445  17.188  0.00  0.00    +0.000 C 
ENDBRANCH   6   7
BRANCH   1  15
ATOM     14  C   UNL     1       2.360   7.774  18.534  0.00  0.00    +0.000 C 
ATOM     15  O   UNL     1       2.907   6.654  19.233  0.00  0.00    +0.000 OA
ENDBRANCH   1  15
TORSDOF 2
ENDMDL
MODEL 6
REMARK VINA RESULT:      -6.6      1.677      5.130
REMARK  Name = 
REMARK  3 active torsions:
REMARK  status: ('A' for Active; 'I' for Inactive)
REMARK    1  A    between atoms: C_1  and  O_2
REMARK    2  A    between atoms: O_2  and  C_3
REMARK    3  A    between atoms: C_8  and  C_9
REMARK                            x       y       z     vdW  Elec       q    Type
REMARK                         _______ _______ _______ _____ _____    ______ ____
ROOT
ATOM      1  C   UNL     1       6.272   4.748  18.050  0.00  0.00    +0.000 A 
ATOM      2  C   UNL     1       7.238   4.618  17.040  0.00  0.00    +0.000 A 
ATOM      3  C   UNL     1       6.865   4.288  15.736  0.00  0.00    +0.000 A 
ATOM      4  C   UNL     1       5.528   4.076  15.429  0.00  0.00    +0.000 A 
ATOM      5  C   UNL     1       4.560   4.162  16.436  0.00  0.00    +0.000 A 
ATOM      6  C   UNL     1       4.923   4.486  17.753  0.00  0.00    +0.000 A 
ENDROOT
BRANCH   6   7
ATOM      7  C   UNL     1       3.851   4.510  18.772  0.00  0.00    +0.000 C 
ATOM      8  C   UNL     1       3.764   3.512  19.662  0.00  0.00    +0.000 C 
ATOM      9  C   UNL     1       2.663   3.475  20.651  0.00  0.00    +0.000 C 
ATOM     10  O   UNL     1       2.572   2.519  21.421  0.00  0.00    +0.000 OA
ATOM     11  C   UNL     1       1.622   4.575  20.623  0.00  0.00    +0.000 C 
ATOM     12  C   UNL     1       2.201   5.874  20.081  0.00  0.00    +0.000 C 
ATOM     13  C   UNL     1       2.890   5.667  18.731  0.00  0.00    +0.000 C 
ENDBRANCH   6   7
BRANCH   1  15
ATOM     14  C   UNL     1       7.850   5.754  19.494  0.00  0.00    +0.000 C 
ATOM     15  O   UNL     1       6.595   5.088  19.342  0.00  0.00    +0.000 OA
ENDBRANCH   1  15
TORSDOF 2
ENDMDL
MODEL 7
REMARK VINA RESULT:      -6.6      1.286      2.371
REMARK  Name = 
REMARK  3 active torsions:
REMARK  status: ('A' for Active; 'I' for Inactive)
REMARK    1  A    between atoms: C_1  and  O_2
REMARK    2  A    between atoms: O_2  and  C_3
REMARK    3  A    between atoms: C_8  and  C_9
REMARK                            x       y       z     vdW  Elec       q    Type
REMARK                         _______ _______ _______ _____ _____    ______ ____
ROOT
ATOM      1  C   UNL     1       2.485   4.774  19.573  0.00  0.00    +0.000 A 
ATOM      2  C   UNL     1       1.282   4.197  20.006  0.00  0.00    +0.000 A 
ATOM      3  C   UNL     1       0.820   3.005  19.446  0.00  0.00    +0.000 A 
ATOM      4  C   UNL     1       1.549   2.382  18.442  0.00  0.00    +0.000 A 
ATOM      5  C   UNL     1       2.730   2.969  17.972  0.00  0.00    +0.000 A 
ATOM      6  C   UNL     1       3.201   4.172  18.523  0.00  0.00    +0.000 A 
ENDROOT
BRANCH   6   7
ATOM      7  C   UNL     1       4.429   4.757  17.941  0.00  0.00    +0.000 C 
ATOM      8  C   UNL     1       5.624   4.250  18.276  0.00  0.00    +0.000 C 
ATOM      9  C   UNL     1       6.872   4.855  17.761  0.00  0.00    +0.000 C 
ATOM     10  O   UNL     1       7.959   4.408  18.129  0.00  0.00    +0.000 OA
ATOM     11  C   UNL     1       6.776   6.074  16.867  0.00  0.00    +0.000 C 
ATOM     12  C   UNL     1       5.470   6.088  16.087  0.00  0.00    +0.000 C 
ATOM     13  C   UNL     1       4.258   5.923  17.006  0.00  0.00    +0.000 C 
ENDBRANCH   6   7
BRANCH   1  15
ATOM     14  C   UNL     1       2.172   7.094  19.894  0.00  0.00    +0.000 C 
ATOM     15  O   UNL     1       2.983   5.937  20.110  0.00  0.00    +0.000 OA
ENDBRANCH   1  15
TORSDOF 2
ENDMDL
MODEL 8
REMARK VINA RESULT:      -6.6      1.501      2.397
REMARK  Name = 
REMARK  3 active torsions:
REMARK  status: ('A' for Active; 'I' for Inactive)
REMARK    1  A    between atoms: C_1  and  O_2
REMARK    2  A    between atoms: O_2  and  C_3
REMARK    3  A    between atoms: C_8  and  C_9
REMARK                            x       y       z     vdW  Elec       q    Type
REMARK                         _______ _______ _______ _____ _____    ______ ____
ROOT
ATOM      1  C   UNL     1       2.691   5.134  19.639  0.00  0.00    +0.000 A 
ATOM      2  C   UNL     1       1.515   4.895  20.366  0.00  0.00    +0.000 A 
ATOM      3  C   UNL     1       1.033   3.596  20.534  0.00  0.00    +0.000 A 
ATOM      4  C   UNL     1       1.713   2.525  19.969  0.00  0.00    +0.000 A 
ATOM      5  C   UNL     1       2.863   2.755  19.206  0.00  0.00    +0.000 A 
ATOM      6  C   UNL     1       3.355   4.058  19.025  0.00  0.00    +0.000 A 
ENDROOT
BRANCH   6   7
ATOM      7  C   UNL     1       4.547   4.226  18.166  0.00  0.00    +0.000 C 
ATOM      8  C   UNL     1       5.756   4.345  18.731  0.00  0.00    +0.000 C 
ATOM      9  C   UNL     1       6.959   4.580  17.900  0.00  0.00    +0.000 C 
ATOM     10  O   UNL     1       8.050   4.743  18.447  0.00  0.00    +0.000 OA
ATOM     11  C   UNL     1       6.794   4.707  16.400  0.00  0.00    +0.000 C 
ATOM     12  C   UNL     1       5.591   3.918  15.905  0.00  0.00    +0.000 C 
ATOM     13  C   UNL     1       4.321   4.275  16.679  0.00  0.00    +0.000 C 
ENDBRANCH   6   7
BRANCH   1  15
ATOM     14  C   UNL     1       2.477   7.226  18.560  0.00  0.00    +0.000 C 
ATOM     15  O   UNL     1       3.208   6.396  19.465  0.00  0.00    +0.000 OA
ENDBRANCH   1  15
TORSDOF 2
ENDMDL
MODEL 9
REMARK VINA RESULT:      -6.5      2.163      5.463
REMARK  Name = 
REMARK  3 active torsions:
REMARK  status: ('A' for Active; 'I' for Inactive)
REMARK    1  A    between atoms: C_1  and  O_2
REMARK    2  A    between atoms: O_2  and  C_3
REMARK    3  A    between atoms: C_8  and  C_9
REMARK                            x       y       z     vdW  Elec       q    Type
REMARK                         _______ _______ _______ _____ _____    ______ ____
ROOT
ATOM      1  C   UNL     1       3.993   6.249  17.487  0.00  0.00    +0.000 A 
ATOM      2  C   UNL     1       4.921   6.811  16.598  0.00  0.00    +0.000 A 
ATOM      3  C   UNL     1       5.630   6.006  15.705  0.00  0.00    +0.000 A 
ATOM      4  C   UNL     1       5.427   4.632  15.697  0.00  0.00    +0.000 A 
ATOM      5  C   UNL     1       4.535   4.055  16.608  0.00  0.00    +0.000 A 
ATOM      6  C   UNL     1       3.821   4.854  17.516  0.00  0.00    +0.000 A 
ENDROOT
BRANCH   6   7
ATOM      7  C   UNL     1       2.934   4.168  18.480  0.00  0.00    +0.000 C 
ATOM      8  C   UNL     1       1.946   3.385  18.025  0.00  0.00    +0.000 C 
ATOM      9  C   UNL     1       1.002   2.737  18.965  0.00  0.00    +0.000 C 
ATOM     10  O   UNL     1       0.068   2.070  18.520  0.00  0.00    +0.000 OA
ATOM     11  C   UNL     1       1.159   2.996  20.449  0.00  0.00    +0.000 C 
ATOM     12  C   UNL     1       2.606   3.296  20.810  0.00  0.00    +0.000 C 
ATOM     13  C   UNL     1       3.187   4.414  19.943  0.00  0.00    +0.000 C 
ENDBRANCH   6   7
BRANCH   1  15
ATOM     14  C   UNL     1       2.611   8.142  17.794  0.00  0.00    +0.000 C 
ATOM     15  O   UNL     1       3.262   7.008  18.370  0.00  0.00    +0.000 OA
ENDBRANCH   1  15
TORSDOF 2
ENDMDL
