MODEL 1
REMARK VINA RESULT:      -7.2      0.000      0.000
REMARK  Name = 
REMARK  5 active torsions:
REMARK  status: ('A' for Active; 'I' for Inactive)
REMARK    1  A    between atoms: C_2  and  C_3
REMARK    2  A    between atoms: C_3  and  O_4
REMARK    3  A    between atoms: O_4  and  C_5
REMARK    4  A    between atoms: C_5  and  C_7
REMARK    5  A    between atoms: N_11  and  C_12
REMARK                            x       y       z     vdW  Elec       q    Type
REMARK                         _______ _______ _______ _____ _____    ______ ____
ROOT
ATOM      1  O   UNL     1       2.844   4.692  17.572  0.00  0.00    +0.000 OA
ATOM      2  C   UNL     1       3.484   3.647  17.514  0.00  0.00    +0.000 C 
ATOM      3  N   UNL     1       4.850   3.498  17.674  0.00  0.00    +0.000 N 
ATOM      4  H   UNL     1       5.234   2.562  17.635  0.00  0.00    +0.000 HD
ENDROOT
BRANCH   3   5
ATOM      5  C   UNL     1       5.759   4.549  17.893  0.00  0.00    +0.000 A 
ATOM      6  N   UNL     1       6.238   4.765  19.136  0.00  0.00    +0.000 NA
ATOM      7  C   UNL     1       7.108   5.784  19.322  0.00  0.00    +0.000 A 
ATOM      8  C   UNL     1       7.538   6.617  18.305  0.00  0.00    +0.000 A 
ATOM      9 CL   UNL     1       8.642   7.891  18.618  0.00  0.00    +0.000 Cl
ATOM     10  C   UNL     1       7.053   6.396  17.023  0.00  0.00    +0.000 A 
ATOM     11  C   UNL     1       6.151   5.350  16.811  0.00  0.00    +0.000 A 
ATOM     12 CL   UNL     1       5.559   5.079  15.210  0.00  0.00    +0.000 Cl
ENDBRANCH   3   5
BRANCH   2  13
ATOM     13  C   UNL     1       2.758   2.310  17.354  0.00  0.00    +0.000 C 
BRANCH  13  14
ATOM     14  O   UNL     1       2.362   1.707  18.587  0.00  0.00    +0.000 OA
BRANCH  14  15
ATOM     15  C   UNL     1       1.148   2.126  19.062  0.00  0.00    +0.000 C 
ATOM     16  O   UNL     1       0.103   2.011  18.427  0.00  0.00    +0.000 OA
BRANCH  15  17
ATOM     17  C   UNL     1       1.271   2.735  20.476  0.00  0.00    +0.000 C 
ATOM     18  C   UNL     1       2.683   2.754  21.121  0.00  0.00    +0.000 C 
ATOM     19  C   UNL     1       2.316   4.113  21.741  0.00  0.00    +0.000 C 
ATOM     20  C   UNL     1       1.294   4.282  20.603  0.00  0.00    +0.000 C 
ENDBRANCH  15  17
ENDBRANCH  14  15
ENDBRANCH  13  14
ENDBRANCH   2  13
TORSDOF 5
ENDMDL
MODEL 2
REMARK VINA RESULT:      -7.0      3.409      6.446
REMARK  Name = 
REMARK  5 active torsions:
REMARK  status: ('A' for Active; 'I' for Inactive)
REMARK    1  A    between atoms: C_2  and  C_3
REMARK    2  A    between atoms: C_3  and  O_4
REMARK    3  A    between atoms: O_4  and  C_5
REMARK    4  A    between atoms: C_5  and  C_7
REMARK    5  A    between atoms: N_11  and  C_12
REMARK                            x       y       z     vdW  Elec       q    Type
REMARK                         _______ _______ _______ _____ _____    ______ ____
ROOT
ATOM      1  O   UNL     1       7.094   5.145  19.331  0.00  0.00    +0.000 OA
ATOM      2  C   UNL     1       6.765   4.646  18.260  0.00  0.00    +0.000 C 
ATOM      3  N   UNL     1       5.591   3.968  17.984  0.00  0.00    +0.000 N 
ATOM      4  H   UNL     1       5.443   3.641  17.037  0.00  0.00    +0.000 HD
ENDROOT
BRANCH   3   5
ATOM      5  C   UNL     1       4.575   3.697  18.916  0.00  0.00    +0.000 A 
ATOM      6  N   UNL     1       4.699   2.641  19.746  0.00  0.00    +0.000 NA
ATOM      7  C   UNL     1       3.706   2.397  20.631  0.00  0.00    +0.000 A 
ATOM      8  C   UNL     1       2.568   3.176  20.736  0.00  0.00    +0.000 A 
ATOM      9 CL   UNL     1       1.348   2.803  21.883  0.00  0.00    +0.000 Cl
ATOM     10  C   UNL     1       2.436   4.268  19.888  0.00  0.00    +0.000 A 
ATOM     11  C   UNL     1       3.450   4.534  18.965  0.00  0.00    +0.000 A 
ATOM     12 CL   UNL     1       3.280   5.899  17.919  0.00  0.00    +0.000 Cl
ENDBRANCH   3   5
BRANCH   2  13
ATOM     13  C   UNL     1       7.644   4.836  17.023  0.00  0.00    +0.000 C 
BRANCH  13  14
ATOM     14  O   UNL     1       7.178   5.844  16.124  0.00  0.00    +0.000 OA
BRANCH  14  15
ATOM     15  C   UNL     1       6.191   5.432  15.269  0.00  0.00    +0.000 C 
ATOM     16  O   UNL     1       5.038   5.851  15.323  0.00  0.00    +0.000 OA
BRANCH  15  17
ATOM     17  C   UNL     1       6.720   4.403  14.246  0.00  0.00    +0.000 C 
ATOM     18  C   UNL     1       5.695   3.803  13.246  0.00  0.00    +0.000 C 
ATOM     19  C   UNL     1       6.810   3.817  12.186  0.00  0.00    +0.000 C 
ATOM     20  C   UNL     1       7.479   4.937  13.002  0.00  0.00    +0.000 C 
ENDBRANCH  15  17
ENDBRANCH  14  15
ENDBRANCH  13  14
ENDBRANCH   2  13
TORSDOF 5
ENDMDL
MODEL 3
REMARK VINA RESULT:      -7.0      3.865      6.764
REMARK  Name = 
REMARK  5 active torsions:
REMARK  status: ('A' for Active; 'I' for Inactive)
REMARK    1  A    between atoms: C_2  and  C_3
REMARK    2  A    between atoms: C_3  and  O_4
REMARK    3  A    between atoms: O_4  and  C_5
REMARK    4  A    between atoms: C_5  and  C_7
REMARK    5  A    between atoms: N_11  and  C_12
REMARK                            x       y       z     vdW  Elec       q    Type
REMARK                         _______ _______ _______ _____ _____    ______ ____
ROOT
ATOM      1  O   UNL     1       4.470   4.132  16.250  0.00  0.00    +0.000 OA
ATOM      2  C   UNL     1       5.364   4.646  16.916  0.00  0.00    +0.000 C 
ATOM      3  N   UNL     1       5.459   4.679  18.295  0.00  0.00    +0.000 N 
ATOM      4  H   UNL     1       6.278   5.111  18.705  0.00  0.00    +0.000 HD
ENDROOT
BRANCH   3   5
ATOM      5  C   UNL     1       4.506   4.155  19.185  0.00  0.00    +0.000 A 
ATOM      6  N   UNL     1       4.676   2.913  19.685  0.00  0.00    +0.000 NA
ATOM      7  C   UNL     1       3.743   2.429  20.537  0.00  0.00    +0.000 A 
ATOM      8  C   UNL     1       2.623   3.140  20.928  0.00  0.00    +0.000 A 
ATOM      9 CL   UNL     1       1.481   2.458  22.011  0.00  0.00    +0.000 Cl
ATOM     10  C   UNL     1       2.445   4.421  20.422  0.00  0.00    +0.000 A 
ATOM     11  C   UNL     1       3.396   4.937  19.539  0.00  0.00    +0.000 A 
ATOM     12 CL   UNL     1       3.169   6.534  18.919  0.00  0.00    +0.000 Cl
ENDBRANCH   3   5
BRANCH   2  13
ATOM     13  C   UNL     1       6.589   5.244  16.223  0.00  0.00    +0.000 C 
BRANCH  13  14
ATOM     14  O   UNL     1       6.345   5.697  14.890  0.00  0.00    +0.000 OA
BRANCH  14  15
ATOM     15  C   UNL     1       7.150   5.129  13.939  0.00  0.00    +0.000 C 
ATOM     16  O   UNL     1       8.224   5.611  13.592  0.00  0.00    +0.000 OA
BRANCH  15  17
ATOM     17  C   UNL     1       6.539   3.822  13.387  0.00  0.00    +0.000 C 
ATOM     18  C   UNL     1       5.064   3.875  12.904  0.00  0.00    +0.000 C 
ATOM     19  C   UNL     1       5.457   2.894  11.786  0.00  0.00    +0.000 C 
ATOM     20  C   UNL     1       6.900   3.405  11.936  0.00  0.00    +0.000 C 
ENDBRANCH  15  17
ENDBRANCH  14  15
ENDBRANCH  13  14
ENDBRANCH   2  13
TORSDOF 5
ENDMDL
MODEL 4
REMARK VINA RESULT:      -6.9      3.293      6.339
REMARK  Name = 
REMARK  5 active torsions:
REMARK  status: ('A' for Active; 'I' for Inactive)
REMARK    1  A    between atoms: C_2  and  C_3
REMARK    2  A    between atoms: C_3  and  O_4
REMARK    3  A    between atoms: O_4  and  C_5
REMARK    4  A    between atoms: C_5  and  C_7
REMARK    5  A    between atoms: N_11  and  C_12
REMARK                            x       y       z     vdW  Elec       q    Type
REMARK                         _______ _______ _______ _____ _____    ______ ____
ROOT
ATOM      1  O   UNL     1       6.872   5.288  19.929  0.00  0.00    +0.000 OA
ATOM      2  C   UNL     1       6.921   4.610  18.908  0.00  0.00    +0.000 C 
ATOM      3  N   UNL     1       5.909   3.830  18.378  0.00  0.00    +0.000 N 
ATOM      4  H   UNL     1       6.086   3.352  17.504  0.00  0.00    +0.000 HD
ENDROOT
BRANCH   3   5
ATOM      5  C   UNL     1       4.640   3.648  18.956  0.00  0.00    +0.000 A 
ATOM      6  N   UNL     1       4.473   2.705  19.906  0.00  0.00    +0.000 NA
ATOM      7  C   UNL     1       3.241   2.545  20.444  0.00  0.00    +0.000 A 
ATOM      8  C   UNL     1       2.143   3.300  20.076  0.00  0.00    +0.000 A 
ATOM      9 CL   UNL     1       0.611   3.038  20.801  0.00  0.00    +0.000 Cl
ATOM     10  C   UNL     1       2.310   4.276  19.102  0.00  0.00    +0.000 A 
ATOM     11  C   UNL     1       3.573   4.455  18.533  0.00  0.00    +0.000 A 
ATOM     12 CL   UNL     1       3.773   5.676  17.327  0.00  0.00    +0.000 Cl
ENDBRANCH   3   5
BRANCH   2  13
ATOM     13  C   UNL     1       8.162   4.657  18.015  0.00  0.00    +0.000 C 
BRANCH  13  14
ATOM     14  O   UNL     1       7.887   4.495  16.622  0.00  0.00    +0.000 OA
BRANCH  14  15
ATOM     15  C   UNL     1       7.300   5.580  16.028  0.00  0.00    +0.000 C 
ATOM     16  O   UNL     1       7.499   6.735  16.392  0.00  0.00    +0.000 OA
BRANCH  15  17
ATOM     17  C   UNL     1       6.385   5.159  14.857  0.00  0.00    +0.000 C 
ATOM     18  C   UNL     1       7.071   4.808  13.509  0.00  0.00    +0.000 C 
ATOM     19  C   UNL     1       6.005   3.716  13.318  0.00  0.00    +0.000 C 
ATOM     20  C   UNL     1       5.836   3.706  14.847  0.00  0.00    +0.000 C 
ENDBRANCH  15  17
ENDBRANCH  14  15
ENDBRANCH  13  14
ENDBRANCH   2  13
TORSDOF 5
ENDMDL
MODEL 5
REMARK VINA RESULT:      -6.8      3.781      6.744
REMARK  Name = 
REMARK  5 active torsions:
REMARK  status: ('A' for Active; 'I' for Inactive)
REMARK    1  A    between atoms: C_2  and  C_3
REMARK    2  A    between atoms: C_3  and  O_4
REMARK    3  A    between atoms: O_4  and  C_5
REMARK    4  A    between atoms: C_5  and  C_7
REMARK    5  A    between atoms: N_11  and  C_12
REMARK                            x       y       z     vdW  Elec       q    Type
REMARK                         _______ _______ _______ _____ _____    ______ ____
ROOT
ATOM      1  O   UNL     1       6.099   5.300  18.065  0.00  0.00    +0.000 OA
ATOM      2  C   UNL     1       5.214   5.653  17.292  0.00  0.00    +0.000 C 
ATOM      3  N   UNL     1       3.853   5.454  17.440  0.00  0.00    +0.000 N 
ATOM      4  H   UNL     1       3.238   5.835  16.732  0.00  0.00    +0.000 HD
ENDROOT
BRANCH   3   5
ATOM      5  C   UNL     1       3.246   4.762  18.503  0.00  0.00    +0.000 A 
ATOM      6  N   UNL     1       3.356   3.420  18.571  0.00  0.00    +0.000 NA
ATOM      7  C   UNL     1       2.759   2.777  19.601  0.00  0.00    +0.000 A 
ATOM      8  C   UNL     1       2.045   3.422  20.594  0.00  0.00    +0.000 A 
ATOM      9 CL   UNL     1       1.314   2.538  21.869  0.00  0.00    +0.000 Cl
ATOM     10  C   UNL     1       1.934   4.805  20.533  0.00  0.00    +0.000 A 
ATOM     11  C   UNL     1       2.541   5.487  19.476  0.00  0.00    +0.000 A 
ATOM     12 CL   UNL     1       2.402   7.208  19.412  0.00  0.00    +0.000 Cl
ENDBRANCH   3   5
BRANCH   2  13
ATOM     13  C   UNL     1       5.560   6.495  16.064  0.00  0.00    +0.000 C 
BRANCH  13  14
ATOM     14  O   UNL     1       5.517   5.776  14.830  0.00  0.00    +0.000 OA
BRANCH  14  15
ATOM     15  C   UNL     1       6.650   5.061  14.548  0.00  0.00    +0.000 C 
ATOM     16  O   UNL     1       7.766   5.389  14.940  0.00  0.00    +0.000 OA
BRANCH  15  17
ATOM     17  C   UNL     1       6.334   3.808  13.702  0.00  0.00    +0.000 C 
ATOM     18  C   UNL     1       4.924   3.722  13.058  0.00  0.00    +0.000 C 
ATOM     19  C   UNL     1       5.586   3.053  11.841  0.00  0.00    +0.000 C 
ATOM     20  C   UNL     1       6.896   3.745  12.256  0.00  0.00    +0.000 C 
ENDBRANCH  15  17
ENDBRANCH  14  15
ENDBRANCH  13  14
ENDBRANCH   2  13
TORSDOF 5
ENDMDL
MODEL 6
REMARK VINA RESULT:      -6.7      4.011      6.861
REMARK  Name = 
REMARK  5 active torsions:
REMARK  status: ('A' for Active; 'I' for Inactive)
REMARK    1  A    between atoms: C_2  and  C_3
REMARK    2  A    between atoms: C_3  and  O_4
REMARK    3  A    between atoms: O_4  and  C_5
REMARK    4  A    between atoms: C_5  and  C_7
REMARK    5  A    between atoms: N_11  and  C_12
REMARK                            x       y       z     vdW  Elec       q    Type
REMARK                         _______ _______ _______ _____ _____    ______ ____
ROOT
ATOM      1  O   UNL     1       7.007   4.397  18.204  0.00  0.00    +0.000 OA
ATOM      2  C   UNL     1       6.391   4.474  17.146  0.00  0.00    +0.000 C 
ATOM      3  N   UNL     1       5.029   4.312  16.963  0.00  0.00    +0.000 N 
ATOM      4  H   UNL     1       4.656   4.440  16.031  0.00  0.00    +0.000 HD
ENDROOT
BRANCH   3   5
ATOM      5  C   UNL     1       4.110   3.985  17.975  0.00  0.00    +0.000 A 
ATOM      6  N   UNL     1       3.984   2.701  18.369  0.00  0.00    +0.000 NA
ATOM      7  C   UNL     1       3.090   2.411  19.342  0.00  0.00    +0.000 A 
ATOM      8  C   UNL     1       2.298   3.361  19.960  0.00  0.00    +0.000 A 
ATOM      9 CL   UNL     1       1.183   2.916  21.185  0.00  0.00    +0.000 Cl
ATOM     10  C   UNL     1       2.426   4.685  19.563  0.00  0.00    +0.000 A 
ATOM     11  C   UNL     1       3.342   5.005  18.558  0.00  0.00    +0.000 A 
ATOM     12 CL   UNL     1       3.500   6.656  18.076  0.00  0.00    +0.000 Cl
ENDBRANCH   3   5
BRANCH   2  13
ATOM     13  C   UNL     1       7.115   4.888  15.864  0.00  0.00    +0.000 C 
BRANCH  13  14
ATOM     14  O   UNL     1       6.652   4.221  14.688  0.00  0.00    +0.000 OA
BRANCH  14  15
ATOM     15  C   UNL     1       7.170   4.706  13.517  0.00  0.00    +0.000 C 
ATOM     16  O   UNL     1       8.068   5.541  13.475  0.00  0.00    +0.000 OA
BRANCH  15  17
ATOM     17  C   UNL     1       6.492   4.061  12.288  0.00  0.00    +0.000 C 
ATOM     18  C   UNL     1       6.964   2.640  11.879  0.00  0.00    +0.000 C 
ATOM     19  C   UNL     1       5.507   2.331  11.494  0.00  0.00    +0.000 C 
ATOM     20  C   UNL     1       5.084   3.436  12.477  0.00  0.00    +0.000 C 
ENDBRANCH  15  17
ENDBRANCH  14  15
ENDBRANCH  13  14
ENDBRANCH   2  13
TORSDOF 5
ENDMDL
MODEL 7
REMARK VINA RESULT:      -6.7      1.254      1.528
REMARK  Name = 
REMARK  5 active torsions:
REMARK  status: ('A' for Active; 'I' for Inactive)
REMARK    1  A    between atoms: C_2  and  C_3
REMARK    2  A    between atoms: C_3  and  O_4
REMARK    3  A    between atoms: O_4  and  C_5
REMARK    4  A    between atoms: C_5  and  C_7
REMARK    5  A    between atoms: N_11  and  C_12
REMARK                            x       y       z     vdW  Elec       q    Type
REMARK                         _______ _______ _______ _____ _____    ______ ____
ROOT
ATOM      1  O   UNL     1       4.993   2.353  20.117  0.00  0.00    +0.000 OA
ATOM      2  C   UNL     1       4.475   2.416  19.007  0.00  0.00    +0.000 C 
ATOM      3  N   UNL     1       4.754   3.334  18.009  0.00  0.00    +0.000 N 
ATOM      4  H   UNL     1       4.267   3.239  17.127  0.00  0.00    +0.000 HD
ENDROOT
BRANCH   3   5
ATOM      5  C   UNL     1       5.668   4.395  18.119  0.00  0.00    +0.000 A 
ATOM      6  N   UNL     1       6.178   4.712  19.327  0.00  0.00    +0.000 NA
ATOM      7  C   UNL     1       7.053   5.740  19.407  0.00  0.00    +0.000 A 
ATOM      8  C   UNL     1       7.459   6.485  18.315  0.00  0.00    +0.000 A 
ATOM      9 CL   UNL     1       8.572   7.778  18.496  0.00  0.00    +0.000 Cl
ATOM     10  C   UNL     1       6.942   6.161  17.068  0.00  0.00    +0.000 A 
ATOM     11  C   UNL     1       6.035   5.104  16.965  0.00  0.00    +0.000 A 
ATOM     12 CL   UNL     1       5.403   4.704  15.407  0.00  0.00    +0.000 Cl
ENDBRANCH   3   5
BRANCH   2  13
ATOM     13  C   UNL     1       3.479   1.343  18.563  0.00  0.00    +0.000 C 
BRANCH  13  14
ATOM     14  O   UNL     1       2.109   1.722  18.703  0.00  0.00    +0.000 OA
BRANCH  14  15
ATOM     15  C   UNL     1       1.783   2.912  18.108  0.00  0.00    +0.000 C 
ATOM     16  O   UNL     1       1.924   3.123  16.907  0.00  0.00    +0.000 OA
BRANCH  15  17
ATOM     17  C   UNL     1       1.218   3.921  19.132  0.00  0.00    +0.000 C 
ATOM     18  C   UNL     1       1.273   3.521  20.630  0.00  0.00    +0.000 C 
ATOM     19  C   UNL     1       1.558   4.998  20.953  0.00  0.00    +0.000 C 
ATOM     20  C   UNL     1       2.102   5.137  19.520  0.00  0.00    +0.000 C 
ENDBRANCH  15  17
ENDBRANCH  14  15
ENDBRANCH  13  14
ENDBRANCH   2  13
TORSDOF 5
ENDMDL
MODEL 8
REMARK VINA RESULT:      -6.6      3.611      6.702
REMARK  Name = 
REMARK  5 active torsions:
REMARK  status: ('A' for Active; 'I' for Inactive)
REMARK    1  A    between atoms: C_2  and  C_3
REMARK    2  A    between atoms: C_3  and  O_4
REMARK    3  A    between atoms: O_4  and  C_5
REMARK    4  A    between atoms: C_5  and  C_7
REMARK    5  A    between atoms: N_11  and  C_12
REMARK                            x       y       z     vdW  Elec       q    Type
REMARK                         _______ _______ _______ _____ _____    ______ ____
ROOT
ATOM      1  O   UNL     1       5.871   5.756  18.713  0.00  0.00    +0.000 OA
ATOM      2  C   UNL     1       5.077   5.846  17.782  0.00  0.00    +0.000 C 
ATOM      3  N   UNL     1       3.775   5.381  17.752  0.00  0.00    +0.000 N 
ATOM      4  H   UNL     1       3.225   5.561  16.921  0.00  0.00    +0.000 HD
ENDROOT
BRANCH   3   5
ATOM      5  C   UNL     1       3.142   4.676  18.791  0.00  0.00    +0.000 A 
ATOM      6  N   UNL     1       3.239   3.331  18.835  0.00  0.00    +0.000 NA
ATOM      7  C   UNL     1       2.618   2.674  19.842  0.00  0.00    +0.000 A 
ATOM      8  C   UNL     1       1.892   3.307  20.834  0.00  0.00    +0.000 A 
ATOM      9 CL   UNL     1       1.130   2.406  22.079  0.00  0.00    +0.000 Cl
ATOM     10  C   UNL     1       1.794   4.691  20.797  0.00  0.00    +0.000 A 
ATOM     11  C   UNL     1       2.425   5.388  19.764  0.00  0.00    +0.000 A 
ATOM     12 CL   UNL     1       2.303   7.111  19.731  0.00  0.00    +0.000 Cl
ENDBRANCH   3   5
BRANCH   2  13
ATOM     13  C   UNL     1       5.455   6.630  16.524  0.00  0.00    +0.000 C 
BRANCH  13  14
ATOM     14  O   UNL     1       6.820   6.480  16.130  0.00  0.00    +0.000 OA
BRANCH  14  15
ATOM     15  C   UNL     1       7.139   5.240  15.644  0.00  0.00    +0.000 C 
ATOM     16  O   UNL     1       7.871   4.454  16.238  0.00  0.00    +0.000 OA
BRANCH  15  17
ATOM     17  C   UNL     1       6.456   4.971  14.285  0.00  0.00    +0.000 C 
ATOM     18  C   UNL     1       7.379   4.726  13.061  0.00  0.00    +0.000 C 
ATOM     19  C   UNL     1       6.347   3.701  12.562  0.00  0.00    +0.000 C 
ATOM     20  C   UNL     1       5.890   3.549  14.024  0.00  0.00    +0.000 C 
ENDBRANCH  15  17
ENDBRANCH  14  15
ENDBRANCH  13  14
ENDBRANCH   2  13
TORSDOF 5
ENDMDL
MODEL 9
REMARK VINA RESULT:      -6.6      3.404      6.495
REMARK  Name = 
REMARK  5 active torsions:
REMARK  status: ('A' for Active; 'I' for Inactive)
REMARK    1  A    between atoms: C_2  and  C_3
REMARK    2  A    between atoms: C_3  and  O_4
REMARK    3  A    between atoms: O_4  and  C_5
REMARK    4  A    between atoms: C_5  and  C_7
REMARK    5  A    between atoms: N_11  and  C_12
REMARK                            x       y       z     vdW  Elec       q    Type
REMARK                         _______ _______ _______ _____ _____    ______ ____
ROOT
ATOM      1  O   UNL     1       6.821   5.416  19.606  0.00  0.00    +0.000 OA
ATOM      2  C   UNL     1       6.258   5.757  18.571  0.00  0.00    +0.000 C 
ATOM      3  N   UNL     1       4.932   5.548  18.239  0.00  0.00    +0.000 N 
ATOM      4  H   UNL     1       4.598   5.920  17.358  0.00  0.00    +0.000 HD
ENDROOT
BRANCH   3   5
ATOM      5  C   UNL     1       3.997   4.858  19.030  0.00  0.00    +0.000 A 
ATOM      6  N   UNL     1       3.423   5.485  20.078  0.00  0.00    +0.000 NA
ATOM      7  C   UNL     1       2.530   4.798  20.828  0.00  0.00    +0.000 A 
ATOM      8  C   UNL     1       2.169   3.487  20.576  0.00  0.00    +0.000 A 
ATOM      9 CL   UNL     1       1.030   2.681  21.573  0.00  0.00    +0.000 Cl
ATOM     10  C   UNL     1       2.752   2.839  19.496  0.00  0.00    +0.000 A 
ATOM     11  C   UNL     1       3.679   3.529  18.711  0.00  0.00    +0.000 A 
ATOM     12 CL   UNL     1       4.394   2.716  17.365  0.00  0.00    +0.000 Cl
ENDBRANCH   3   5
BRANCH   2  13
ATOM     13  C   UNL     1       7.004   6.595  17.532  0.00  0.00    +0.000 C 
BRANCH  13  14
ATOM     14  O   UNL     1       7.424   5.862  16.380  0.00  0.00    +0.000 OA
BRANCH  14  15
ATOM     15  C   UNL     1       6.472   5.742  15.403  0.00  0.00    +0.000 C 
ATOM     16  O   UNL     1       5.524   6.515  15.291  0.00  0.00    +0.000 OA
BRANCH  15  17
ATOM     17  C   UNL     1       6.756   4.537  14.479  0.00  0.00    +0.000 C 
ATOM     18  C   UNL     1       5.537   3.871  13.786  0.00  0.00    +0.000 C 
ATOM     19  C   UNL     1       6.434   3.648  12.556  0.00  0.00    +0.000 C 
ATOM     20  C   UNL     1       7.291   4.826  13.051  0.00  0.00    +0.000 C 
ENDBRANCH  15  17
ENDBRANCH  14  15
ENDBRANCH  13  14
ENDBRANCH   2  13
TORSDOF 5
ENDMDL
