MODEL 1
REMARK VINA RESULT:      -7.1      0.000      0.000
REMARK  Name = 
REMARK  7 active torsions:
REMARK  status: ('A' for Active; 'I' for Inactive)
REMARK    1  A    between atoms: C_1  and  O_2
REMARK    2  A    between atoms: O_2  and  C_3
REMARK    3  A    between atoms: N_13  and  C_14
REMARK    4  A    between atoms: C_14  and  C_15
REMARK    5  A    between atoms: C_15  and  C_16
REMARK    6  A    between atoms: C_16  and  N_17
REMARK    7  A    between atoms: C_22  and  N_23
REMARK                            x       y       z     vdW  Elec       q    Type
REMARK                         _______ _______ _______ _____ _____    ______ ____
ROOT
ATOM      1  C   UNL     1      -0.033   9.605  20.297  0.00  0.00    +0.000 A 
ATOM      2  C   UNL     1       0.086   8.592  21.232  0.00  0.00    +0.000 A 
ATOM      3  C   UNL     1       0.997   7.576  21.096  0.00  0.00    +0.000 A 
ATOM      4  C   UNL     1       1.848   7.588  19.934  0.00  0.00    +0.000 A 
ATOM      5  C   UNL     1       1.807   8.635  19.066  0.00  0.00    +0.000 A 
ATOM      6  C   UNL     1       0.891   9.670  19.227  0.00  0.00    +0.000 A 
ATOM      7  C   UNL     1       2.815   8.410  17.976  0.00  0.00    +0.000 C 
ATOM      8  O   UNL     1       2.957   9.129  17.003  0.00  0.00    +0.000 OA
ATOM      9  C   UNL     1       3.435   7.066  18.197  0.00  0.00    +0.000 A 
ATOM     10  C   UNL     1       2.805   6.595  19.360  0.00  0.00    +0.000 A 
ATOM     11  N   UNL     1       3.038   5.315  19.854  0.00  0.00    +0.000 N 
ATOM     12  C   UNL     1       3.862   4.487  19.151  0.00  0.00    +0.000 A 
ATOM     13  O   UNL     1       4.015   3.345  19.476  0.00  0.00    +0.000 OA
ATOM     14  C   UNL     1       4.480   4.930  17.931  0.00  0.00    +0.000 A 
ATOM     15  C   UNL     1       5.174   3.975  17.166  0.00  0.00    +0.000 A 
ATOM     16  C   UNL     1       5.649   4.320  15.906  0.00  0.00    +0.000 A 
ATOM     17  C   UNL     1       6.205   5.542  15.891  0.00  0.00    +0.000 A 
ATOM     18  C   UNL     1       5.364   6.607  16.442  0.00  0.00    +0.000 A 
ATOM     19  C   UNL     1       4.391   6.275  17.477  0.00  0.00    +0.000 A 
ENDROOT
BRANCH  16  20
ATOM     20  N   UNL     1       4.543   4.498  14.964  0.00  0.00    +0.000 N 
ATOM     21  H   UNL     1       3.740   5.109  15.219  0.00  0.00    +0.000 HD
ATOM     22  H   UNL     1       4.771   4.696  13.960  0.00  0.00    +0.000 HD
ENDBRANCH  16  20
BRANCH   1  24
ATOM     23  C   UNL     1      -1.471  11.322  19.382  0.00  0.00    +0.000 C 
ATOM     24  O   UNL     1      -1.094  10.432  20.353  0.00  0.00    +0.000 OA
ENDBRANCH   1  24
BRANCH  11  25
ATOM     25  C   UNL     1       2.491   4.789  21.112  0.00  0.00    +0.000 C 
BRANCH  25  26
ATOM     26  C   UNL     1       1.257   3.870  20.883  0.00  0.00    +0.000 C 
BRANCH  26  27
ATOM     27  C   UNL     1       1.388   2.560  21.659  0.00  0.00    +0.000 C 
BRANCH  27  28
ATOM     28  N   UNL     1       2.783   2.258  21.969  0.00  0.00    +0.000 NA
ATOM     29  H   UNL     1       2.938   1.225  21.912  0.00  0.00    +0.000 HD
ATOM     30  H   UNL     1       2.991   2.569  22.946  0.00  0.00    +0.000 HD
ENDBRANCH  27  28
ENDBRANCH  26  27
ENDBRANCH  25  26
ENDBRANCH  11  25
TORSDOF 6
ENDMDL
MODEL 2
REMARK VINA RESULT:      -6.6      4.460      9.361
REMARK  Name = 
REMARK  7 active torsions:
REMARK  status: ('A' for Active; 'I' for Inactive)
REMARK    1  A    between atoms: C_1  and  O_2
REMARK    2  A    between atoms: O_2  and  C_3
REMARK    3  A    between atoms: N_13  and  C_14
REMARK    4  A    between atoms: C_14  and  C_15
REMARK    5  A    between atoms: C_15  and  C_16
REMARK    6  A    between atoms: C_16  and  N_17
REMARK    7  A    between atoms: C_22  and  N_23
REMARK                            x       y       z     vdW  Elec       q    Type
REMARK                         _______ _______ _______ _____ _____    ______ ____
ROOT
ATOM      1  C   UNL     1       1.891   7.803  20.137  0.00  0.00    +0.000 A 
ATOM      2  C   UNL     1       1.525   8.398  18.942  0.00  0.00    +0.000 A 
ATOM      3  C   UNL     1       0.690   9.483  18.893  0.00  0.00    +0.000 A 
ATOM      4  C   UNL     1       0.192  10.005  20.140  0.00  0.00    +0.000 A 
ATOM      5  C   UNL     1       0.629   9.490  21.321  0.00  0.00    +0.000 A 
ATOM      6  C   UNL     1       1.493   8.400  21.356  0.00  0.00    +0.000 A 
ATOM      7  C   UNL     1      -0.015  10.238  22.452  0.00  0.00    +0.000 C 
ATOM      8  O   UNL     1       0.110   9.956  23.631  0.00  0.00    +0.000 OA
ATOM      9  C   UNL     1      -0.976  11.222  21.862  0.00  0.00    +0.000 A 
ATOM     10  C   UNL     1      -0.844  11.027  20.478  0.00  0.00    +0.000 A 
ATOM     11  N   UNL     1      -1.652  11.694  19.562  0.00  0.00    +0.000 N 
ATOM     12  C   UNL     1      -2.630  12.517  20.037  0.00  0.00    +0.000 A 
ATOM     13  O   UNL     1      -3.416  13.035  19.298  0.00  0.00    +0.000 OA
ATOM     14  C   UNL     1      -2.816  12.695  21.452  0.00  0.00    +0.000 A 
ATOM     15  C   UNL     1      -3.947  13.415  21.877  0.00  0.00    +0.000 A 
ATOM     16  C   UNL     1      -4.252  13.475  23.231  0.00  0.00    +0.000 A 
ATOM     17  C   UNL     1      -3.162  13.673  23.989  0.00  0.00    +0.000 A 
ATOM     18  C   UNL     1      -2.063  12.736  23.742  0.00  0.00    +0.000 A 
ATOM     19  C   UNL     1      -1.917  12.155  22.412  0.00  0.00    +0.000 A 
ENDROOT
BRANCH  16  20
ATOM     20  N   UNL     1      -4.707  12.172  23.720  0.00  0.00    +0.000 N 
ATOM     21  H   UNL     1      -4.767  11.996  24.744  0.00  0.00    +0.000 HD
ATOM     22  H   UNL     1      -5.563  11.749  23.286  0.00  0.00    +0.000 HD
ENDBRANCH  16  20
BRANCH   1  24
ATOM     23  C   UNL     1       1.946   5.407  20.470  0.00  0.00    +0.000 C 
ATOM     24  O   UNL     1       2.508   6.606  20.115  0.00  0.00    +0.000 OA
ENDBRANCH   1  24
BRANCH  11  25
ATOM     25  C   UNL     1      -1.509  11.614  18.102  0.00  0.00    +0.000 C 
BRANCH  25  26
ATOM     26  C   UNL     1      -2.345  10.454  17.488  0.00  0.00    +0.000 C 
BRANCH  26  27
ATOM     27  C   UNL     1      -3.163  10.933  16.290  0.00  0.00    +0.000 C 
BRANCH  27  28
ATOM     28  N   UNL     1      -4.177  11.907  16.687  0.00  0.00    +0.000 NA
ATOM     29  H   UNL     1      -5.124  11.467  16.633  0.00  0.00    +0.000 HD
ATOM     30  H   UNL     1      -4.151  12.715  16.025  0.00  0.00    +0.000 HD
ENDBRANCH  27  28
ENDBRANCH  26  27
ENDBRANCH  25  26
ENDBRANCH  11  25
TORSDOF 6
ENDMDL
MODEL 3
REMARK VINA RESULT:      -6.5      4.697      9.849
REMARK  Name = 
REMARK  7 active torsions:
REMARK  status: ('A' for Active; 'I' for Inactive)
REMARK    1  A    between atoms: C_1  and  O_2
REMARK    2  A    between atoms: O_2  and  C_3
REMARK    3  A    between atoms: N_13  and  C_14
REMARK    4  A    between atoms: C_14  and  C_15
REMARK    5  A    between atoms: C_15  and  C_16
REMARK    6  A    between atoms: C_16  and  N_17
REMARK    7  A    between atoms: C_22  and  N_23
REMARK                            x       y       z     vdW  Elec       q    Type
REMARK                         _______ _______ _______ _____ _____    ______ ____
ROOT
ATOM      1  C   UNL     1       1.459   8.677  19.584  0.00  0.00    +0.000 A 
ATOM      2  C   UNL     1       0.837   9.245  18.486  0.00  0.00    +0.000 A 
ATOM      3  C   UNL     1      -0.130  10.209  18.612  0.00  0.00    +0.000 A 
ATOM      4  C   UNL     1      -0.490  10.629  19.943  0.00  0.00    +0.000 A 
ATOM      5  C   UNL     1       0.190  10.150  21.020  0.00  0.00    +0.000 A 
ATOM      6  C   UNL     1       1.183   9.186  20.875  0.00  0.00    +0.000 A 
ATOM      7  C   UNL     1      -0.362  10.776  22.268  0.00  0.00    +0.000 C 
ATOM      8  O   UNL     1      -0.018  10.485  23.400  0.00  0.00    +0.000 OA
ATOM      9  C   UNL     1      -1.523  11.635  21.875  0.00  0.00    +0.000 A 
ATOM     10  C   UNL     1      -1.585  11.492  20.480  0.00  0.00    +0.000 A 
ATOM     11  N   UNL     1      -2.606  12.067  19.728  0.00  0.00    +0.000 N 
ATOM     12  C   UNL     1      -3.596  12.738  20.382  0.00  0.00    +0.000 A 
ATOM     13  O   UNL     1      -4.548  13.162  19.795  0.00  0.00    +0.000 OA
ATOM     14  C   UNL     1      -3.580  12.855  21.815  0.00  0.00    +0.000 A 
ATOM     15  C   UNL     1      -4.714  13.405  22.438  0.00  0.00    +0.000 A 
ATOM     16  C   UNL     1      -4.809  13.391  23.825  0.00  0.00    +0.000 A 
ATOM     17  C   UNL     1      -3.649  13.716  24.416  0.00  0.00    +0.000 A 
ATOM     18  C   UNL     1      -2.490  12.943  23.964  0.00  0.00    +0.000 A 
ATOM     19  C   UNL     1      -2.479  12.418  22.603  0.00  0.00    +0.000 A 
ENDROOT
BRANCH  16  20
ATOM     20  N   UNL     1      -5.008  12.027  24.318  0.00  0.00    +0.000 N 
ATOM     21  H   UNL     1      -5.545  11.343  23.745  0.00  0.00    +0.000 HD
ATOM     22  H   UNL     1      -4.182  11.514  24.711  0.00  0.00    +0.000 HD
ENDBRANCH  16  20
BRANCH   1  24
ATOM     23  C   UNL     1       2.912   7.247  18.281  0.00  0.00    +0.000 C 
ATOM     24  O   UNL     1       2.215   7.575  19.415  0.00  0.00    +0.000 OA
ENDBRANCH   1  24
BRANCH  11  25
ATOM     25  C   UNL     1      -2.683  12.041  18.261  0.00  0.00    +0.000 C 
BRANCH  25  26
ATOM     26  C   UNL     1      -3.519  10.839  17.733  0.00  0.00    +0.000 C 
BRANCH  26  27
ATOM     27  C   UNL     1      -4.492  11.277  16.639  0.00  0.00    +0.000 C 
BRANCH  27  28
ATOM     28  N   UNL     1      -5.318  12.402  17.074  0.00  0.00    +0.000 NA
ATOM     29  H   UNL     1      -4.849  13.300  16.815  0.00  0.00    +0.000 HD
ATOM     30  H   UNL     1      -5.417  12.369  18.114  0.00  0.00    +0.000 HD
ENDBRANCH  27  28
ENDBRANCH  26  27
ENDBRANCH  25  26
ENDBRANCH  11  25
TORSDOF 6
ENDMDL
MODEL 4
REMARK VINA RESULT:      -6.4      6.231      9.676
REMARK  Name = 
REMARK  7 active torsions:
REMARK  status: ('A' for Active; 'I' for Inactive)
REMARK    1  A    between atoms: C_1  and  O_2
REMARK    2  A    between atoms: O_2  and  C_3
REMARK    3  A    between atoms: N_13  and  C_14
REMARK    4  A    between atoms: C_14  and  C_15
REMARK    5  A    between atoms: C_15  and  C_16
REMARK    6  A    between atoms: C_16  and  N_17
REMARK    7  A    between atoms: C_22  and  N_23
REMARK                            x       y       z     vdW  Elec       q    Type
REMARK                         _______ _______ _______ _____ _____    ______ ____
ROOT
ATOM      1  C   UNL     1      -3.569  10.556  16.207  0.00  0.00    +0.000 A 
ATOM      2  C   UNL     1      -2.359  10.050  16.650  0.00  0.00    +0.000 A 
ATOM      3  C   UNL     1      -1.847  10.355  17.885  0.00  0.00    +0.000 A 
ATOM      4  C   UNL     1      -2.616  11.230  18.732  0.00  0.00    +0.000 A 
ATOM      5  C   UNL     1      -3.852  11.647  18.345  0.00  0.00    +0.000 A 
ATOM      6  C   UNL     1      -4.367  11.313  17.096  0.00  0.00    +0.000 A 
ATOM      7  C   UNL     1      -4.441  12.510  19.424  0.00  0.00    +0.000 C 
ATOM      8  O   UNL     1      -5.502  13.102  19.337  0.00  0.00    +0.000 OA
ATOM      9  C   UNL     1      -3.408  12.669  20.496  0.00  0.00    +0.000 A 
ATOM     10  C   UNL     1      -2.322  11.915  20.027  0.00  0.00    +0.000 A 
ATOM     11  N   UNL     1      -1.104  11.884  20.701  0.00  0.00    +0.000 N 
ATOM     12  C   UNL     1      -0.959  12.654  21.817  0.00  0.00    +0.000 A 
ATOM     13  O   UNL     1       0.096  12.742  22.375  0.00  0.00    +0.000 OA
ATOM     14  C   UNL     1      -2.043  13.472  22.289  0.00  0.00    +0.000 A 
ATOM     15  C   UNL     1      -1.774  14.371  23.337  0.00  0.00    +0.000 A 
ATOM     16  C   UNL     1      -2.744  15.291  23.716  0.00  0.00    +0.000 A 
ATOM     17  C   UNL     1      -3.969  14.746  23.765  0.00  0.00    +0.000 A 
ATOM     18  C   UNL     1      -4.373  14.032  22.551  0.00  0.00    +0.000 A 
ATOM     19  C   UNL     1      -3.346  13.414  21.721  0.00  0.00    +0.000 A 
ENDROOT
BRANCH  16  20
ATOM     20  N   UNL     1      -2.926  16.311  22.682  0.00  0.00    +0.000 N 
ATOM     21  H   UNL     1      -2.480  17.245  22.793  0.00  0.00    +0.000 HD
ATOM     22  H   UNL     1      -2.802  16.030  21.679  0.00  0.00    +0.000 HD
ENDBRANCH  16  20
BRANCH   1  24
ATOM     23  C   UNL     1      -3.082   9.960  13.913  0.00  0.00    +0.000 C 
ATOM     24  O   UNL     1      -3.903  10.423  14.910  0.00  0.00    +0.000 OA
ENDBRANCH   1  24
BRANCH  11  25
ATOM     25  C   UNL     1       0.042  11.046  20.324  0.00  0.00    +0.000 C 
BRANCH  25  26
ATOM     26  C   UNL     1      -0.039   9.619  20.942  0.00  0.00    +0.000 C 
BRANCH  26  27
ATOM     27  C   UNL     1       1.010   9.427  22.036  0.00  0.00    +0.000 C 
BRANCH  27  28
ATOM     28  N   UNL     1       0.463   9.714  23.360  0.00  0.00    +0.000 NA
ATOM     29  H   UNL     1       0.902   9.079  24.065  0.00  0.00    +0.000 HD
ATOM     30  H   UNL     1      -0.567   9.533  23.350  0.00  0.00    +0.000 HD
ENDBRANCH  27  28
ENDBRANCH  26  27
ENDBRANCH  25  26
ENDBRANCH  11  25
TORSDOF 6
ENDMDL
MODEL 5
REMARK VINA RESULT:      -6.3      2.429      7.042
REMARK  Name = 
REMARK  7 active torsions:
REMARK  status: ('A' for Active; 'I' for Inactive)
REMARK    1  A    between atoms: C_1  and  O_2
REMARK    2  A    between atoms: O_2  and  C_3
REMARK    3  A    between atoms: N_13  and  C_14
REMARK    4  A    between atoms: C_14  and  C_15
REMARK    5  A    between atoms: C_15  and  C_16
REMARK    6  A    between atoms: C_16  and  N_17
REMARK    7  A    between atoms: C_22  and  N_23
REMARK                            x       y       z     vdW  Elec       q    Type
REMARK                         _______ _______ _______ _____ _____    ______ ____
ROOT
ATOM      1  C   UNL     1       6.130   4.539  14.208  0.00  0.00    +0.000 A 
ATOM      2  C   UNL     1       5.941   5.865  14.556  0.00  0.00    +0.000 A 
ATOM      3  C   UNL     1       5.348   6.234  15.736  0.00  0.00    +0.000 A 
ATOM      4  C   UNL     1       4.920   5.187  16.628  0.00  0.00    +0.000 A 
ATOM      5  C   UNL     1       5.195   3.886  16.339  0.00  0.00    +0.000 A 
ATOM      6  C   UNL     1       5.815   3.527  15.146  0.00  0.00    +0.000 A 
ATOM      7  C   UNL     1       4.673   3.015  17.445  0.00  0.00    +0.000 C 
ATOM      8  O   UNL     1       4.691   1.797  17.437  0.00  0.00    +0.000 OA
ATOM      9  C   UNL     1       3.958   3.896  18.422  0.00  0.00    +0.000 A 
ATOM     10  C   UNL     1       4.102   5.181  17.878  0.00  0.00    +0.000 A 
ATOM     11  N   UNL     1       3.484   6.293  18.446  0.00  0.00    +0.000 N 
ATOM     12  C   UNL     1       2.678   6.104  19.529  0.00  0.00    +0.000 A 
ATOM     13  O   UNL     1       2.044   7.008  19.992  0.00  0.00    +0.000 OA
ATOM     14  C   UNL     1       2.477   4.790  20.074  0.00  0.00    +0.000 A 
ATOM     15  C   UNL     1       1.501   4.640  21.076  0.00  0.00    +0.000 A 
ATOM     16  C   UNL     1       1.162   3.367  21.518  0.00  0.00    +0.000 A 
ATOM     17  C   UNL     1       2.238   2.583  21.682  0.00  0.00    +0.000 A 
ATOM     18  C   UNL     1       3.131   2.513  20.523  0.00  0.00    +0.000 A 
ATOM     19  C   UNL     1       3.208   3.657  19.621  0.00  0.00    +0.000 A 
ENDROOT
BRANCH  16  20
ATOM     20  N   UNL     1       0.431   2.635  20.482  0.00  0.00    +0.000 N 
ATOM     21  H   UNL     1      -0.385   3.080  20.013  0.00  0.00    +0.000 HD
ATOM     22  H   UNL     1       0.982   2.145  19.736  0.00  0.00    +0.000 HD
ENDBRANCH  16  20
BRANCH   1  24
ATOM     23  C   UNL     1       6.006   3.186  12.206  0.00  0.00    +0.000 C 
ATOM     24  O   UNL     1       6.489   4.234  12.946  0.00  0.00    +0.000 OA
ENDBRANCH   1  24
BRANCH  11  25
ATOM     25  C   UNL     1       3.665   7.677  17.990  0.00  0.00    +0.000 C 
BRANCH  25  26
ATOM     26  C   UNL     1       2.357   8.285  17.406  0.00  0.00    +0.000 C 
BRANCH  26  27
ATOM     27  C   UNL     1       2.125   9.704  17.923  0.00  0.00    +0.000 C 
BRANCH  27  28
ATOM     28  N   UNL     1       0.721  10.094  17.809  0.00  0.00    +0.000 NA
ATOM     29  H   UNL     1       0.628  10.861  17.105  0.00  0.00    +0.000 HD
ATOM     30  H   UNL     1       0.391  10.453  18.734  0.00  0.00    +0.000 HD
ENDBRANCH  27  28
ENDBRANCH  26  27
ENDBRANCH  25  26
ENDBRANCH  11  25
TORSDOF 6
ENDMDL
MODEL 6
REMARK VINA RESULT:      -6.2      5.375     10.084
REMARK  Name = 
REMARK  7 active torsions:
REMARK  status: ('A' for Active; 'I' for Inactive)
REMARK    1  A    between atoms: C_1  and  O_2
REMARK    2  A    between atoms: O_2  and  C_3
REMARK    3  A    between atoms: N_13  and  C_14
REMARK    4  A    between atoms: C_14  and  C_15
REMARK    5  A    between atoms: C_15  and  C_16
REMARK    6  A    between atoms: C_16  and  N_17
REMARK    7  A    between atoms: C_22  and  N_23
REMARK                            x       y       z     vdW  Elec       q    Type
REMARK                         _______ _______ _______ _____ _____    ______ ____
ROOT
ATOM      1  C   UNL     1       0.841  10.036  18.626  0.00  0.00    +0.000 A 
ATOM      2  C   UNL     1       0.811  10.616  19.882  0.00  0.00    +0.000 A 
ATOM      3  C   UNL     1      -0.317  11.210  20.386  0.00  0.00    +0.000 A 
ATOM      4  C   UNL     1      -1.498  11.215  19.561  0.00  0.00    +0.000 A 
ATOM      5  C   UNL     1      -1.505  10.558  18.369  0.00  0.00    +0.000 A 
ATOM      6  C   UNL     1      -0.357   9.942  17.880  0.00  0.00    +0.000 A 
ATOM      7  C   UNL     1      -2.862  10.692  17.740  0.00  0.00    +0.000 C 
ATOM      8  O   UNL     1      -3.156  10.285  16.630  0.00  0.00    +0.000 OA
ATOM      9  C   UNL     1      -3.686  11.581  18.618  0.00  0.00    +0.000 A 
ATOM     10  C   UNL     1      -2.823  11.898  19.677  0.00  0.00    +0.000 A 
ATOM     11  N   UNL     1      -3.184  12.797  20.676  0.00  0.00    +0.000 N 
ATOM     12  C   UNL     1      -4.393  13.422  20.582  0.00  0.00    +0.000 A 
ATOM     13  O   UNL     1      -4.709  14.277  21.356  0.00  0.00    +0.000 OA
ATOM     14  C   UNL     1      -5.274  13.150  19.479  0.00  0.00    +0.000 A 
ATOM     15  C   UNL     1      -6.422  13.952  19.347  0.00  0.00    +0.000 A 
ATOM     16  C   UNL     1      -7.216  13.832  18.213  0.00  0.00    +0.000 A 
ATOM     17  C   UNL     1      -7.400  12.552  17.855  0.00  0.00    +0.000 A 
ATOM     18  C   UNL     1      -6.169  11.769  17.717  0.00  0.00    +0.000 A 
ATOM     19  C   UNL     1      -5.010  12.128  18.526  0.00  0.00    +0.000 A 
ENDROOT
BRANCH  16  20
ATOM     20  N   UNL     1      -6.523  14.361  17.036  0.00  0.00    +0.000 N 
ATOM     21  H   UNL     1      -5.847  15.146  17.143  0.00  0.00    +0.000 HD
ATOM     22  H   UNL     1      -6.097  13.680  16.362  0.00  0.00    +0.000 HD
ENDBRANCH  16  20
BRANCH   1  24
ATOM     23  C   UNL     1       2.455   8.408  17.852  0.00  0.00    +0.000 C 
ATOM     24  O   UNL     1       2.026   9.689  18.090  0.00  0.00    +0.000 OA
ENDBRANCH   1  24
BRANCH  11  25
ATOM     25  C   UNL     1      -2.374  13.104  21.863  0.00  0.00    +0.000 C 
BRANCH  25  26
ATOM     26  C   UNL     1      -2.647  12.118  23.037  0.00  0.00    +0.000 C 
BRANCH  26  27
ATOM     27  C   UNL     1      -3.492  12.774  24.127  0.00  0.00    +0.000 C 
BRANCH  27  28
ATOM     28  N   UNL     1      -4.554  11.883  24.591  0.00  0.00    +0.000 NA
ATOM     29  H   UNL     1      -5.479  12.242  24.263  0.00  0.00    +0.000 HD
ATOM     30  H   UNL     1      -4.557  11.872  25.637  0.00  0.00    +0.000 HD
ENDBRANCH  27  28
ENDBRANCH  26  27
ENDBRANCH  25  26
ENDBRANCH  11  25
TORSDOF 6
ENDMDL
MODEL 7
REMARK VINA RESULT:      -6.2      7.665     11.152
REMARK  Name = 
REMARK  7 active torsions:
REMARK  status: ('A' for Active; 'I' for Inactive)
REMARK    1  A    between atoms: C_1  and  O_2
REMARK    2  A    between atoms: O_2  and  C_3
REMARK    3  A    between atoms: N_13  and  C_14
REMARK    4  A    between atoms: C_14  and  C_15
REMARK    5  A    between atoms: C_15  and  C_16
REMARK    6  A    between atoms: C_16  and  N_17
REMARK    7  A    between atoms: C_22  and  N_23
REMARK                            x       y       z     vdW  Elec       q    Type
REMARK                         _______ _______ _______ _____ _____    ______ ____
ROOT
ATOM      1  C   UNL     1      -3.305  11.147  16.252  0.00  0.00    +0.000 A 
ATOM      2  C   UNL     1      -2.181  11.344  17.037  0.00  0.00    +0.000 A 
ATOM      3  C   UNL     1      -2.266  11.675  18.365  0.00  0.00    +0.000 A 
ATOM      4  C   UNL     1      -3.580  11.812  18.939  0.00  0.00    +0.000 A 
ATOM      5  C   UNL     1      -4.685  11.520  18.201  0.00  0.00    +0.000 A 
ATOM      6  C   UNL     1      -4.583  11.166  16.859  0.00  0.00    +0.000 A 
ATOM      7  C   UNL     1      -5.909  11.711  19.050  0.00  0.00    +0.000 C 
ATOM      8  O   UNL     1      -7.055  11.610  18.648  0.00  0.00    +0.000 OA
ATOM      9  C   UNL     1      -5.466  12.243  20.377  0.00  0.00    +0.000 A 
ATOM     10  C   UNL     1      -4.070  12.319  20.257  0.00  0.00    +0.000 A 
ATOM     11  N   UNL     1      -3.275  12.867  21.260  0.00  0.00    +0.000 N 
ATOM     12  C   UNL     1      -3.887  13.388  22.362  0.00  0.00    +0.000 A 
ATOM     13  O   UNL     1      -3.260  13.960  23.205  0.00  0.00    +0.000 OA
ATOM     14  C   UNL     1      -5.319  13.365  22.485  0.00  0.00    +0.000 A 
ATOM     15  C   UNL     1      -5.894  14.072  23.557  0.00  0.00    +0.000 A 
ATOM     16  C   UNL     1      -7.275  14.211  23.624  0.00  0.00    +0.000 A 
ATOM     17  C   UNL     1      -7.915  13.073  23.315  0.00  0.00    +0.000 A 
ATOM     18  C   UNL     1      -7.512  12.467  22.043  0.00  0.00    +0.000 A 
ATOM     19  C   UNL     1      -6.153  12.680  21.558  0.00  0.00    +0.000 A 
ENDROOT
BRANCH  16  20
ATOM     20  N   UNL     1      -7.759  15.106  22.573  0.00  0.00    +0.000 N 
ATOM     21  H   UNL     1      -7.159  15.304  21.745  0.00  0.00    +0.000 HD
ATOM     22  H   UNL     1      -8.737  14.973  22.217  0.00  0.00    +0.000 HD
ENDBRANCH  16  20
BRANCH   1  24
ATOM     23  C   UNL     1      -3.675  10.076  14.115  0.00  0.00    +0.000 C 
ATOM     24  O   UNL     1      -3.168  11.067  14.915  0.00  0.00    +0.000 OA
ENDBRANCH   1  24
BRANCH  11  25
ATOM     25  C   UNL     1      -1.807  12.893  21.246  0.00  0.00    +0.000 C 
BRANCH  25  26
ATOM     26  C   UNL     1      -1.187  11.496  21.539  0.00  0.00    +0.000 C 
BRANCH  26  27
ATOM     27  C   UNL     1      -1.158  11.204  23.038  0.00  0.00    +0.000 C 
BRANCH  27  28
ATOM     28  N   UNL     1      -0.135  10.215  23.373  0.00  0.00    +0.000 NA
ATOM     29  H   UNL     1      -0.567   9.264  23.407  0.00  0.00    +0.000 HD
ATOM     30  H   UNL     1       0.254  10.435  24.319  0.00  0.00    +0.000 HD
ENDBRANCH  27  28
ENDBRANCH  26  27
ENDBRANCH  25  26
ENDBRANCH  11  25
TORSDOF 6
ENDMDL
MODEL 8
REMARK VINA RESULT:      -6.1      1.017      1.164
REMARK  Name = 
REMARK  7 active torsions:
REMARK  status: ('A' for Active; 'I' for Inactive)
REMARK    1  A    between atoms: C_1  and  O_2
REMARK    2  A    between atoms: O_2  and  C_3
REMARK    3  A    between atoms: N_13  and  C_14
REMARK    4  A    between atoms: C_14  and  C_15
REMARK    5  A    between atoms: C_15  and  C_16
REMARK    6  A    between atoms: C_16  and  N_17
REMARK    7  A    between atoms: C_22  and  N_23
REMARK                            x       y       z     vdW  Elec       q    Type
REMARK                         _______ _______ _______ _____ _____    ______ ____
ROOT
ATOM      1  C   UNL     1       0.717   8.696  20.211  0.00  0.00    +0.000 A 
ATOM      2  C   UNL     1       0.860   7.561  20.991  0.00  0.00    +0.000 A 
ATOM      3  C   UNL     1       1.735   6.557  20.666  0.00  0.00    +0.000 A 
ATOM      4  C   UNL     1       2.522   6.714  19.470  0.00  0.00    +0.000 A 
ATOM      5  C   UNL     1       2.462   7.871  18.756  0.00  0.00    +0.000 A 
ATOM      6  C   UNL     1       1.583   8.890  19.110  0.00  0.00    +0.000 A 
ATOM      7  C   UNL     1       3.403   7.781  17.590  0.00  0.00    +0.000 C 
ATOM      8  O   UNL     1       3.512   8.625  16.719  0.00  0.00    +0.000 OA
ATOM      9  C   UNL     1       4.000   6.408  17.590  0.00  0.00    +0.000 A 
ATOM     10  C   UNL     1       3.421   5.793  18.711  0.00  0.00    +0.000 A 
ATOM     11  N   UNL     1       3.647   4.452  19.012  0.00  0.00    +0.000 N 
ATOM     12  C   UNL     1       4.410   3.714  18.156  0.00  0.00    +0.000 A 
ATOM     13  O   UNL     1       4.551   2.536  18.312  0.00  0.00    +0.000 OA
ATOM     14  C   UNL     1       4.973   4.311  16.975  0.00  0.00    +0.000 A 
ATOM     15  C   UNL     1       5.600   3.458  16.048  0.00  0.00    +0.000 A 
ATOM     16  C   UNL     1       6.016   3.965  14.823  0.00  0.00    +0.000 A 
ATOM     17  C   UNL     1       6.601   5.167  14.943  0.00  0.00    +0.000 A 
ATOM     18  C   UNL     1       5.819   6.161  15.682  0.00  0.00    +0.000 A 
ATOM     19  C   UNL     1       4.895   5.707  16.715  0.00  0.00    +0.000 A 
ENDROOT
BRANCH  16  20
ATOM     20  N   UNL     1       4.865   4.291  13.978  0.00  0.00    +0.000 N 
ATOM     21  H   UNL     1       4.935   4.183  12.945  0.00  0.00    +0.000 HD
ATOM     22  H   UNL     1       3.922   3.930  14.261  0.00  0.00    +0.000 HD
ENDBRANCH  16  20
BRANCH   1  24
ATOM     23  C   UNL     1      -0.823  10.443  19.556  0.00  0.00    +0.000 C 
ATOM     24  O   UNL     1      -0.319   9.526  20.441  0.00  0.00    +0.000 OA
ENDBRANCH   1  24
BRANCH  11  25
ATOM     25  C   UNL     1       3.155   3.768  20.215  0.00  0.00    +0.000 C 
BRANCH  25  26
ATOM     26  C   UNL     1       1.744   3.145  20.007  0.00  0.00    +0.000 C 
BRANCH  26  27
ATOM     27  C   UNL     1       1.136   2.692  21.333  0.00  0.00    +0.000 C 
BRANCH  27  28
ATOM     28  N   UNL     1       2.124   2.708  22.410  0.00  0.00    +0.000 NA
ATOM     29  H   UNL     1       1.961   1.894  23.045  0.00  0.00    +0.000 HD
ATOM     30  H   UNL     1       2.011   3.587  22.964  0.00  0.00    +0.000 HD
ENDBRANCH  27  28
ENDBRANCH  26  27
ENDBRANCH  25  26
ENDBRANCH  11  25
TORSDOF 6
ENDMDL
MODEL 9
REMARK VINA RESULT:      -6.1      5.098      9.382
REMARK  Name = 
REMARK  7 active torsions:
REMARK  status: ('A' for Active; 'I' for Inactive)
REMARK    1  A    between atoms: C_1  and  O_2
REMARK    2  A    between atoms: O_2  and  C_3
REMARK    3  A    between atoms: N_13  and  C_14
REMARK    4  A    between atoms: C_14  and  C_15
REMARK    5  A    between atoms: C_15  and  C_16
REMARK    6  A    between atoms: C_16  and  N_17
REMARK    7  A    between atoms: C_22  and  N_23
REMARK                            x       y       z     vdW  Elec       q    Type
REMARK                         _______ _______ _______ _____ _____    ______ ____
ROOT
ATOM      1  C   UNL     1      -3.670  10.649  16.132  0.00  0.00    +0.000 A 
ATOM      2  C   UNL     1      -2.342  10.284  16.265  0.00  0.00    +0.000 A 
ATOM      3  C   UNL     1      -1.614  10.575  17.390  0.00  0.00    +0.000 A 
ATOM      4  C   UNL     1      -2.277  11.282  18.455  0.00  0.00    +0.000 A 
ATOM      5  C   UNL     1      -3.608  11.552  18.373  0.00  0.00    +0.000 A 
ATOM      6  C   UNL     1      -4.340  11.233  17.232  0.00  0.00    +0.000 A 
ATOM      7  C   UNL     1      -4.046  12.257  19.624  0.00  0.00    +0.000 C 
ATOM      8  O   UNL     1      -5.162  12.706  19.814  0.00  0.00    +0.000 OA
ATOM      9  C   UNL     1      -2.831  12.485  20.469  0.00  0.00    +0.000 A 
ATOM     10  C   UNL     1      -1.792  11.916  19.718  0.00  0.00    +0.000 A 
ATOM     11  N   UNL     1      -0.461  12.006  20.119  0.00  0.00    +0.000 N 
ATOM     12  C   UNL     1      -0.169  12.715  21.246  0.00  0.00    +0.000 A 
ATOM     13  O   UNL     1       0.964  12.908  21.578  0.00  0.00    +0.000 OA
ATOM     14  C   UNL     1      -1.213  13.348  22.005  0.00  0.00    +0.000 A 
ATOM     15  C   UNL     1      -0.831  14.206  23.052  0.00  0.00    +0.000 A 
ATOM     16  C   UNL     1      -1.797  14.960  23.707  0.00  0.00    +0.000 A 
ATOM     17  C   UNL     1      -2.909  14.253  23.959  0.00  0.00    +0.000 A 
ATOM     18  C   UNL     1      -3.480  13.570  22.795  0.00  0.00    +0.000 A 
ATOM     19  C   UNL     1      -2.592  13.151  21.717  0.00  0.00    +0.000 A 
ENDROOT
BRANCH  16  20
ATOM     20  N   UNL     1      -2.318  16.011  22.831  0.00  0.00    +0.000 N 
ATOM     21  H   UNL     1      -1.683  16.762  22.490  0.00  0.00    +0.000 HD
ATOM     22  H   UNL     1      -2.921  15.729  22.020  0.00  0.00    +0.000 HD
ENDBRANCH  16  20
BRANCH   1  24
ATOM     23  C   UNL     1      -3.704  10.004  13.800  0.00  0.00    +0.000 C 
ATOM     24  O   UNL     1      -4.260  10.556  14.925  0.00  0.00    +0.000 OA
ENDBRANCH   1  24
BRANCH  11  25
ATOM     25  C   UNL     1       0.666  11.355  19.437  0.00  0.00    +0.000 C 
BRANCH  25  26
ATOM     26  C   UNL     1       0.831   9.865  19.856  0.00  0.00    +0.000 C 
BRANCH  26  27
ATOM     27  C   UNL     1       1.516   9.053  18.758  0.00  0.00    +0.000 C 
BRANCH  27  28
ATOM     28  N   UNL     1       1.865   9.889  17.610  0.00  0.00    +0.000 NA
ATOM     29  H   UNL     1       1.542  10.868  17.780  0.00  0.00    +0.000 HD
ATOM     30  H   UNL     1       1.376   9.523  16.762  0.00  0.00    +0.000 HD
ENDBRANCH  27  28
ENDBRANCH  26  27
ENDBRANCH  25  26
ENDBRANCH  11  25
TORSDOF 6
ENDMDL
