MODEL 1
REMARK VINA RESULT:      -8.4      0.000      0.000
REMARK  Name = 
REMARK  11 active torsions:
REMARK  status: ('A' for Active; 'I' for Inactive)
REMARK    1  A    between atoms: C_1  and  O_2
REMARK    2  A    between atoms: O_2  and  C_3
REMARK    3  A    between atoms: C_6  and  C_7
REMARK    4  A    between atoms: C_7  and  C_8
REMARK    5  A    between atoms: C_7  and  N_10
REMARK    6  A    between atoms: C_11  and  C_13
REMARK    7  A    between atoms: C_18  and  N_19
REMARK    8  A    between atoms: C_20  and  C_22
REMARK    9  A    between atoms: C_23  and  C_24
REMARK   10  A    between atoms: C_31  and  O_32
REMARK   11  A    between atoms: O_32  and  C_33
REMARK                            x       y       z     vdW  Elec       q    Type
REMARK                         _______ _______ _______ _____ _____    ______ ____
ROOT
ATOM      1  C   UNL     1       1.791   2.904  18.481  0.00  0.00    +0.000 C 
ATOM      2  C   UNL     1       0.899   2.584  19.697  0.00  0.00    +0.000 C 
ATOM      3  C   UNL     1       1.382   3.257  20.980  0.00  0.00    +0.000 C 
ATOM      4  C   UNL     1       2.832   2.908  21.282  0.00  0.00    +0.000 C 
ATOM      5  C   UNL     1       3.751   3.264  20.116  0.00  0.00    +0.000 C 
ATOM      6  C   UNL     1       3.276   2.618  18.808  0.00  0.00    +0.000 C 
ENDROOT
BRANCH   1   8
ATOM      7  N   UNL     1       2.263   5.293  18.581  0.00  0.00    +0.000 N 
ATOM      8  C   UNL     1       1.489   4.321  17.971  0.00  0.00    +0.000 C 
ATOM      9  O   UNL     1       0.653   4.585  17.115  0.00  0.00    +0.000 OA
ATOM     10  H   UNL     1       2.990   5.015  19.225  0.00  0.00    +0.000 HD
BRANCH   7  11
ATOM     11  C   UNL     1       2.261   6.688  18.128  0.00  0.00    +0.000 C 
BRANCH  11  15
ATOM     12  C   UNL     1       1.017   9.328  21.388  0.00  0.00    +0.000 A 
ATOM     13  C   UNL     1       1.322   7.969  21.604  0.00  0.00    +0.000 A 
ATOM     14  C   UNL     1       1.746   7.138  20.569  0.00  0.00    +0.000 A 
ATOM     15  C   UNL     1       1.811   7.618  19.255  0.00  0.00    +0.000 A 
ATOM     16  C   UNL     1       1.427   8.951  19.031  0.00  0.00    +0.000 A 
ATOM     17  C   UNL     1       1.025   9.812  20.073  0.00  0.00    +0.000 A 
BRANCH  12  19
ATOM     18  C   UNL     1      -0.638  10.260  22.789  0.00  0.00    +0.000 C 
ATOM     19  O   UNL     1       0.756  10.150  22.456  0.00  0.00    +0.000 OA
ENDBRANCH  12  19
BRANCH  17  20
ATOM     20  O   UNL     1       0.731  11.052  19.580  0.00  0.00    +0.000 OA
ATOM     21  C   UNL     1      -0.481  11.279  18.885  0.00  0.00    +0.000 C 
ENDBRANCH  17  20
ENDBRANCH  11  15
BRANCH  11  22
ATOM     22  C   UNL     1       3.590   7.099  17.599  0.00  0.00    +0.000 C 
ATOM     23  N   UNL     1       4.629   7.418  17.202  0.00  0.00    +0.000 NA
ENDBRANCH  11  22
ENDBRANCH   7  11
ENDBRANCH   1   8
BRANCH   6  24
ATOM     24  N   UNL     1       4.188   2.916  17.710  0.00  0.00    +0.000 N 
ATOM     25  C   UNL     1       5.196   3.840  17.850  0.00  0.00    +0.000 C 
ATOM     26  O   UNL     1       5.385   4.499  18.861  0.00  0.00    +0.000 OA
ATOM     27  H   UNL     1       4.142   2.330  16.884  0.00  0.00    +0.000 HD
BRANCH  25  28
ATOM     28  C   UNL     1       6.043   3.972  16.640  0.00  0.00    +0.000 C 
ATOM     29  C   UNL     1       5.471   4.218  15.449  0.00  0.00    +0.000 C 
BRANCH  29  30
ATOM     30  C   UNL     1       6.216   4.290  14.184  0.00  0.00    +0.000 A 
ATOM     31  C   UNL     1       5.838   3.463  13.117  0.00  0.00    +0.000 A 
ATOM     32  C   UNL     1       6.536   3.502  11.908  0.00  0.00    +0.000 A 
ATOM     33  C   UNL     1       7.609   4.376  11.746  0.00  0.00    +0.000 A 
ATOM     34  C   UNL     1       7.979   5.215  12.791  0.00  0.00    +0.000 A 
ATOM     35  C   UNL     1       7.283   5.178  14.001  0.00  0.00    +0.000 A 
ENDBRANCH  29  30
ENDBRANCH  25  28
ENDBRANCH   6  24
TORSDOF 9
ENDMDL
MODEL 2
REMARK VINA RESULT:      -8.3      6.585      8.866
REMARK  Name = 
REMARK  11 active torsions:
REMARK  status: ('A' for Active; 'I' for Inactive)
REMARK    1  A    between atoms: C_1  and  O_2
REMARK    2  A    between atoms: O_2  and  C_3
REMARK    3  A    between atoms: C_6  and  C_7
REMARK    4  A    between atoms: C_7  and  C_8
REMARK    5  A    between atoms: C_7  and  N_10
REMARK    6  A    between atoms: C_11  and  C_13
REMARK    7  A    between atoms: C_18  and  N_19
REMARK    8  A    between atoms: C_20  and  C_22
REMARK    9  A    between atoms: C_23  and  C_24
REMARK   10  A    between atoms: C_31  and  O_32
REMARK   11  A    between atoms: O_32  and  C_33
REMARK                            x       y       z     vdW  Elec       q    Type
REMARK                         _______ _______ _______ _____ _____    ______ ____
ROOT
ATOM      1  C   UNL     1       9.136  13.420  19.117  0.00  0.00    +0.000 C 
ATOM      2  C   UNL     1      10.066  14.574  19.539  0.00  0.00    +0.000 C 
ATOM      3  C   UNL     1      10.825  15.185  18.364  0.00  0.00    +0.000 C 
ATOM      4  C   UNL     1      11.608  14.130  17.595  0.00  0.00    +0.000 C 
ATOM      5  C   UNL     1      10.704  12.998  17.114  0.00  0.00    +0.000 C 
ATOM      6  C   UNL     1       9.912  12.379  18.274  0.00  0.00    +0.000 C 
ENDROOT
BRANCH   1   8
ATOM      7  N   UNL     1       7.182  14.869  19.280  0.00  0.00    +0.000 N 
ATOM      8  C   UNL     1       7.867  13.985  18.462  0.00  0.00    +0.000 C 
ATOM      9  O   UNL     1       7.482  13.697  17.336  0.00  0.00    +0.000 OA
ATOM     10  H   UNL     1       7.583  15.131  20.169  0.00  0.00    +0.000 HD
BRANCH   7  11
ATOM     11  C   UNL     1       6.040  15.653  18.796  0.00  0.00    +0.000 C 
BRANCH  11  15
ATOM     12  C   UNL     1       2.294  13.624  19.791  0.00  0.00    +0.000 A 
ATOM     13  C   UNL     1       2.839  13.587  18.492  0.00  0.00    +0.000 A 
ATOM     14  C   UNL     1       4.048  14.209  18.185  0.00  0.00    +0.000 A 
ATOM     15  C   UNL     1       4.725  14.961  19.154  0.00  0.00    +0.000 A 
ATOM     16  C   UNL     1       4.135  15.063  20.425  0.00  0.00    +0.000 A 
ATOM     17  C   UNL     1       2.928  14.414  20.758  0.00  0.00    +0.000 A 
BRANCH  12  19
ATOM     18  C   UNL     1      -0.017  13.300  19.434  0.00  0.00    +0.000 C 
ATOM     19  O   UNL     1       1.187  12.869  20.091  0.00  0.00    +0.000 OA
ENDBRANCH  12  19
BRANCH  17  20
ATOM     20  O   UNL     1       2.596  14.663  22.060  0.00  0.00    +0.000 OA
ATOM     21  C   UNL     1       1.559  15.574  22.375  0.00  0.00    +0.000 C 
ENDBRANCH  17  20
ENDBRANCH  11  15
BRANCH  11  22
ATOM     22  C   UNL     1       6.067  17.046  19.318  0.00  0.00    +0.000 C 
ATOM     23  N   UNL     1       6.096  18.134  19.711  0.00  0.00    +0.000 NA
ENDBRANCH  11  22
ENDBRANCH   7  11
ENDBRANCH   1   8
BRANCH   6  24
ATOM     24  N   UNL     1       9.093  11.263  17.818  0.00  0.00    +0.000 N 
ATOM     25  C   UNL     1       8.921  10.140  18.592  0.00  0.00    +0.000 C 
ATOM     26  O   UNL     1       9.455   9.969  19.678  0.00  0.00    +0.000 OA
ATOM     27  H   UNL     1       8.548  11.389  16.973  0.00  0.00    +0.000 HD
BRANCH  25  28
ATOM     28  C   UNL     1       8.021   9.135  17.977  0.00  0.00    +0.000 C 
ATOM     29  C   UNL     1       8.131   7.841  18.323  0.00  0.00    +0.000 C 
BRANCH  29  30
ATOM     30  C   UNL     1       7.338   6.763  17.715  0.00  0.00    +0.000 A 
ATOM     31  C   UNL     1       6.241   7.091  16.906  0.00  0.00    +0.000 A 
ATOM     32  C   UNL     1       5.463   6.086  16.325  0.00  0.00    +0.000 A 
ATOM     33  C   UNL     1       5.780   4.746  16.534  0.00  0.00    +0.000 A 
ATOM     34  C   UNL     1       6.879   4.411  17.317  0.00  0.00    +0.000 A 
ATOM     35  C   UNL     1       7.658   5.412  17.899  0.00  0.00    +0.000 A 
ENDBRANCH  29  30
ENDBRANCH  25  28
ENDBRANCH   6  24
TORSDOF 9
ENDMDL
MODEL 3
REMARK VINA RESULT:      -8.2      4.012      5.710
REMARK  Name = 
REMARK  11 active torsions:
REMARK  status: ('A' for Active; 'I' for Inactive)
REMARK    1  A    between atoms: C_1  and  O_2
REMARK    2  A    between atoms: O_2  and  C_3
REMARK    3  A    between atoms: C_6  and  C_7
REMARK    4  A    between atoms: C_7  and  C_8
REMARK    5  A    between atoms: C_7  and  N_10
REMARK    6  A    between atoms: C_11  and  C_13
REMARK    7  A    between atoms: C_18  and  N_19
REMARK    8  A    between atoms: C_20  and  C_22
REMARK    9  A    between atoms: C_23  and  C_24
REMARK   10  A    between atoms: C_31  and  O_32
REMARK   11  A    between atoms: O_32  and  C_33
REMARK                            x       y       z     vdW  Elec       q    Type
REMARK                         _______ _______ _______ _____ _____    ______ ____
ROOT
ATOM      1  C   UNL     1       4.462   5.876  16.819  0.00  0.00    +0.000 C 
ATOM      2  C   UNL     1       3.975   4.483  16.377  0.00  0.00    +0.000 C 
ATOM      3  C   UNL     1       4.960   3.371  16.730  0.00  0.00    +0.000 C 
ATOM      4  C   UNL     1       6.345   3.650  16.163  0.00  0.00    +0.000 C 
ATOM      5  C   UNL     1       6.880   5.003  16.628  0.00  0.00    +0.000 C 
ATOM      6  C   UNL     1       5.898   6.137  16.305  0.00  0.00    +0.000 C 
ENDROOT
BRANCH   1   8
ATOM      7  N   UNL     1       3.014   6.543  18.664  0.00  0.00    +0.000 N 
ATOM      8  C   UNL     1       4.263   6.043  18.333  0.00  0.00    +0.000 C 
ATOM      9  O   UNL     1       5.108   5.771  19.176  0.00  0.00    +0.000 OA
ATOM     10  H   UNL     1       2.328   6.679  17.936  0.00  0.00    +0.000 HD
BRANCH   7  11
ATOM     11  C   UNL     1       2.551   6.622  20.054  0.00  0.00    +0.000 C 
BRANCH  11  15
ATOM     12  C   UNL     1      -0.051  10.087  20.661  0.00  0.00    +0.000 A 
ATOM     13  C   UNL     1      -0.053   8.989  21.545  0.00  0.00    +0.000 A 
ATOM     14  C   UNL     1       0.798   7.901  21.365  0.00  0.00    +0.000 A 
ATOM     15  C   UNL     1       1.636   7.832  20.246  0.00  0.00    +0.000 A 
ATOM     16  C   UNL     1       1.575   8.890  19.323  0.00  0.00    +0.000 A 
ATOM     17  C   UNL     1       0.741  10.013  19.507  0.00  0.00    +0.000 A 
BRANCH  12  19
ATOM     18  C   UNL     1      -0.029  12.270  21.559  0.00  0.00    +0.000 C 
ATOM     19  O   UNL     1      -0.787  11.207  20.957  0.00  0.00    +0.000 OA
ENDBRANCH  12  19
BRANCH  17  20
ATOM     20  O   UNL     1       0.895  10.896  18.476  0.00  0.00    +0.000 OA
ATOM     21  C   UNL     1       2.165  11.453  18.192  0.00  0.00    +0.000 C 
ENDBRANCH  17  20
ENDBRANCH  11  15
BRANCH  11  22
ATOM     22  C   UNL     1       1.871   5.368  20.481  0.00  0.00    +0.000 C 
ATOM     23  N   UNL     1       1.330   4.399  20.806  0.00  0.00    +0.000 NA
ENDBRANCH  11  22
ENDBRANCH   7  11
ENDBRANCH   1   8
BRANCH   6  24
ATOM     24  N   UNL     1       6.439   7.432  16.700  0.00  0.00    +0.000 N 
ATOM     25  C   UNL     1       7.492   7.528  17.578  0.00  0.00    +0.000 C 
ATOM     26  O   UNL     1       8.025   6.569  18.116  0.00  0.00    +0.000 OA
ATOM     27  H   UNL     1       6.104   8.255  16.212  0.00  0.00    +0.000 HD
BRANCH  25  28
ATOM     28  C   UNL     1       7.926   8.925  17.823  0.00  0.00    +0.000 C 
ATOM     29  C   UNL     1       8.830   9.183  18.783  0.00  0.00    +0.000 C 
BRANCH  29  30
ATOM     30  C   UNL     1       9.265  10.538  19.152  0.00  0.00    +0.000 A 
ATOM     31  C   UNL     1       9.279  11.544  18.174  0.00  0.00    +0.000 A 
ATOM     32  C   UNL     1       9.699  12.837  18.494  0.00  0.00    +0.000 A 
ATOM     33  C   UNL     1      10.097  13.144  19.793  0.00  0.00    +0.000 A 
ATOM     34  C   UNL     1      10.067  12.159  20.774  0.00  0.00    +0.000 A 
ATOM     35  C   UNL     1       9.648  10.866  20.458  0.00  0.00    +0.000 A 
ENDBRANCH  29  30
ENDBRANCH  25  28
ENDBRANCH   6  24
TORSDOF 9
ENDMDL
MODEL 4
REMARK VINA RESULT:      -8.2      6.673      8.877
REMARK  Name = 
REMARK  11 active torsions:
REMARK  status: ('A' for Active; 'I' for Inactive)
REMARK    1  A    between atoms: C_1  and  O_2
REMARK    2  A    between atoms: O_2  and  C_3
REMARK    3  A    between atoms: C_6  and  C_7
REMARK    4  A    between atoms: C_7  and  C_8
REMARK    5  A    between atoms: C_7  and  N_10
REMARK    6  A    between atoms: C_11  and  C_13
REMARK    7  A    between atoms: C_18  and  N_19
REMARK    8  A    between atoms: C_20  and  C_22
REMARK    9  A    between atoms: C_23  and  C_24
REMARK   10  A    between atoms: C_31  and  O_32
REMARK   11  A    between atoms: O_32  and  C_33
REMARK                            x       y       z     vdW  Elec       q    Type
REMARK                         _______ _______ _______ _____ _____    ______ ____
ROOT
ATOM      1  C   UNL     1       9.320  13.034  19.230  0.00  0.00    +0.000 C 
ATOM      2  C   UNL     1      10.294  14.084  19.800  0.00  0.00    +0.000 C 
ATOM      3  C   UNL     1      11.207  14.686  18.735  0.00  0.00    +0.000 C 
ATOM      4  C   UNL     1      11.975  13.609  17.983  0.00  0.00    +0.000 C 
ATOM      5  C   UNL     1      11.034  12.580  17.358  0.00  0.00    +0.000 C 
ATOM      6  C   UNL     1      10.089  11.975  18.404  0.00  0.00    +0.000 C 
ENDROOT
BRANCH   1   8
ATOM      7  N   UNL     1       7.637  14.798  19.206  0.00  0.00    +0.000 N 
ATOM      8  C   UNL     1       8.168  13.735  18.494  0.00  0.00    +0.000 C 
ATOM      9  O   UNL     1       7.747  13.403  17.393  0.00  0.00    +0.000 OA
ATOM     10  H   UNL     1       8.070  15.076  20.075  0.00  0.00    +0.000 HD
BRANCH   7  11
ATOM     11  C   UNL     1       6.646  15.708  18.623  0.00  0.00    +0.000 C 
BRANCH  11  15
ATOM     12  C   UNL     1       2.594  14.240  19.375  0.00  0.00    +0.000 A 
ATOM     13  C   UNL     1       3.044  14.553  18.076  0.00  0.00    +0.000 A 
ATOM     14  C   UNL     1       4.345  14.993  17.837  0.00  0.00    +0.000 A 
ATOM     15  C   UNL     1       5.228  15.209  18.901  0.00  0.00    +0.000 A 
ATOM     16  C   UNL     1       4.749  14.974  20.201  0.00  0.00    +0.000 A 
ATOM     17  C   UNL     1       3.445  14.500  20.456  0.00  0.00    +0.000 A 
BRANCH  12  19
ATOM     18  C   UNL     1       1.397  12.235  19.722  0.00  0.00    +0.000 C 
ATOM     19  O   UNL     1       1.362  13.662  19.552  0.00  0.00    +0.000 OA
ENDBRANCH  12  19
BRANCH  17  20
ATOM     20  O   UNL     1       3.251  14.339  21.800  0.00  0.00    +0.000 OA
ATOM     21  C   UNL     1       3.475  15.414  22.692  0.00  0.00    +0.000 C 
ENDBRANCH  17  20
ENDBRANCH  11  15
BRANCH  11  22
ATOM     22  C   UNL     1       6.824  17.103  19.111  0.00  0.00    +0.000 C 
ATOM     23  N   UNL     1       6.973  18.190  19.480  0.00  0.00    +0.000 NA
ENDBRANCH  11  22
ENDBRANCH   7  11
ENDBRANCH   1   8
BRANCH   6  24
ATOM     24  N   UNL     1       9.232  10.954  17.812  0.00  0.00    +0.000 N 
ATOM     25  C   UNL     1       8.911   9.807  18.497  0.00  0.00    +0.000 C 
ATOM     26  O   UNL     1       9.333   9.533  19.611  0.00  0.00    +0.000 OA
ATOM     27  H   UNL     1       8.774  11.171  16.934  0.00  0.00    +0.000 HD
BRANCH  25  28
ATOM     28  C   UNL     1       7.995   8.912  17.748  0.00  0.00    +0.000 C 
ATOM     29  C   UNL     1       7.845   7.635  18.137  0.00  0.00    +0.000 C 
BRANCH  29  30
ATOM     30  C   UNL     1       7.022   6.654  17.415  0.00  0.00    +0.000 A 
ATOM     31  C   UNL     1       7.468   5.328  17.313  0.00  0.00    +0.000 A 
ATOM     32  C   UNL     1       6.712   4.378  16.623  0.00  0.00    +0.000 A 
ATOM     33  C   UNL     1       5.498   4.736  16.040  0.00  0.00    +0.000 A 
ATOM     34  C   UNL     1       5.037   6.042  16.155  0.00  0.00    +0.000 A 
ATOM     35  C   UNL     1       5.790   6.994  16.843  0.00  0.00    +0.000 A 
ENDBRANCH  29  30
ENDBRANCH  25  28
ENDBRANCH   6  24
TORSDOF 9
ENDMDL
MODEL 5
REMARK VINA RESULT:      -8.2      3.999      5.677
REMARK  Name = 
REMARK  11 active torsions:
REMARK  status: ('A' for Active; 'I' for Inactive)
REMARK    1  A    between atoms: C_1  and  O_2
REMARK    2  A    between atoms: O_2  and  C_3
REMARK    3  A    between atoms: C_6  and  C_7
REMARK    4  A    between atoms: C_7  and  C_8
REMARK    5  A    between atoms: C_7  and  N_10
REMARK    6  A    between atoms: C_11  and  C_13
REMARK    7  A    between atoms: C_18  and  N_19
REMARK    8  A    between atoms: C_20  and  C_22
REMARK    9  A    between atoms: C_23  and  C_24
REMARK   10  A    between atoms: C_31  and  O_32
REMARK   11  A    between atoms: O_32  and  C_33
REMARK                            x       y       z     vdW  Elec       q    Type
REMARK                         _______ _______ _______ _____ _____    ______ ____
ROOT
ATOM      1  C   UNL     1       4.910   6.175  16.829  0.00  0.00    +0.000 C 
ATOM      2  C   UNL     1       4.266   5.020  16.038  0.00  0.00    +0.000 C 
ATOM      3  C   UNL     1       4.983   3.688  16.244  0.00  0.00    +0.000 C 
ATOM      4  C   UNL     1       6.465   3.794  15.911  0.00  0.00    +0.000 C 
ATOM      5  C   UNL     1       7.146   4.896  16.719  0.00  0.00    +0.000 C 
ATOM      6  C   UNL     1       6.431   6.242  16.547  0.00  0.00    +0.000 C 
ENDROOT
BRANCH   1   8
ATOM      7  N   UNL     1       3.280   6.639  18.582  0.00  0.00    +0.000 N 
ATOM      8  C   UNL     1       4.517   6.078  18.310  0.00  0.00    +0.000 C 
ATOM      9  O   UNL     1       5.212   5.563  19.178  0.00  0.00    +0.000 OA
ATOM     10  H   UNL     1       2.716   6.982  17.818  0.00  0.00    +0.000 HD
BRANCH   7  11
ATOM     11  C   UNL     1       2.636   6.508  19.893  0.00  0.00    +0.000 C 
BRANCH  11  15
ATOM     12  C   UNL     1       0.135   9.988  20.775  0.00  0.00    +0.000 A 
ATOM     13  C   UNL     1       0.187   8.871  21.632  0.00  0.00    +0.000 A 
ATOM     14  C   UNL     1       1.007   7.777  21.364  0.00  0.00    +0.000 A 
ATOM     15  C   UNL     1       1.755   7.724  20.181  0.00  0.00    +0.000 A 
ATOM     16  C   UNL     1       1.636   8.803  19.289  0.00  0.00    +0.000 A 
ATOM     17  C   UNL     1       0.834   9.930  19.562  0.00  0.00    +0.000 A 
BRANCH  12  19
ATOM     18  C   UNL     1      -0.853  11.179  22.557  0.00  0.00    +0.000 C 
ATOM     19  O   UNL     1      -0.562  11.109  21.151  0.00  0.00    +0.000 OA
ENDBRANCH  12  19
BRANCH  17  20
ATOM     20  O   UNL     1       0.919  10.835  18.541  0.00  0.00    +0.000 OA
ATOM     21  C   UNL     1       1.774  11.958  18.646  0.00  0.00    +0.000 C 
ENDBRANCH  17  20
ENDBRANCH  11  15
BRANCH  11  22
ATOM     22  C   UNL     1       1.854   5.247  19.999  0.00  0.00    +0.000 C 
ATOM     23  N   UNL     1       1.256   4.260  20.093  0.00  0.00    +0.000 NA
ENDBRANCH  11  22
ENDBRANCH   7  11
ENDBRANCH   1   8
BRANCH   6  24
ATOM     24  N   UNL     1       7.118   7.302  17.277  0.00  0.00    +0.000 N 
ATOM     25  C   UNL     1       7.960   7.016  18.325  0.00  0.00    +0.000 C 
ATOM     26  O   UNL     1       8.169   5.890  18.749  0.00  0.00    +0.000 OA
ATOM     27  H   UNL     1       7.061   8.244  16.908  0.00  0.00    +0.000 HD
BRANCH  25  28
ATOM     28  C   UNL     1       8.597   8.221  18.911  0.00  0.00    +0.000 C 
ATOM     29  C   UNL     1       8.514   9.398  18.268  0.00  0.00    +0.000 C 
BRANCH  29  30
ATOM     30  C   UNL     1       9.174  10.628  18.729  0.00  0.00    +0.000 A 
ATOM     31  C   UNL     1       9.460  10.784  20.093  0.00  0.00    +0.000 A 
ATOM     32  C   UNL     1      10.076  11.948  20.560  0.00  0.00    +0.000 A 
ATOM     33  C   UNL     1      10.426  12.961  19.670  0.00  0.00    +0.000 A 
ATOM     34  C   UNL     1      10.166  12.806  18.313  0.00  0.00    +0.000 A 
ATOM     35  C   UNL     1       9.551  11.645  17.843  0.00  0.00    +0.000 A 
ENDBRANCH  29  30
ENDBRANCH  25  28
ENDBRANCH   6  24
TORSDOF 9
ENDMDL
MODEL 6
REMARK VINA RESULT:      -8.2      4.341      5.986
REMARK  Name = 
REMARK  11 active torsions:
REMARK  status: ('A' for Active; 'I' for Inactive)
REMARK    1  A    between atoms: C_1  and  O_2
REMARK    2  A    between atoms: O_2  and  C_3
REMARK    3  A    between atoms: C_6  and  C_7
REMARK    4  A    between atoms: C_7  and  C_8
REMARK    5  A    between atoms: C_7  and  N_10
REMARK    6  A    between atoms: C_11  and  C_13
REMARK    7  A    between atoms: C_18  and  N_19
REMARK    8  A    between atoms: C_20  and  C_22
REMARK    9  A    between atoms: C_23  and  C_24
REMARK   10  A    between atoms: C_31  and  O_32
REMARK   11  A    between atoms: O_32  and  C_33
REMARK                            x       y       z     vdW  Elec       q    Type
REMARK                         _______ _______ _______ _____ _____    ______ ____
ROOT
ATOM      1  C   UNL     1       5.437   6.105  16.773  0.00  0.00    +0.000 C 
ATOM      2  C   UNL     1       4.677   5.132  15.850  0.00  0.00    +0.000 C 
ATOM      3  C   UNL     1       5.141   3.686  16.002  0.00  0.00    +0.000 C 
ATOM      4  C   UNL     1       6.642   3.554  15.785  0.00  0.00    +0.000 C 
ATOM      5  C   UNL     1       7.428   4.467  16.724  0.00  0.00    +0.000 C 
ATOM      6  C   UNL     1       6.966   5.925  16.608  0.00  0.00    +0.000 C 
ENDROOT
BRANCH   1   8
ATOM      7  N   UNL     1       3.584   6.359  18.336  0.00  0.00    +0.000 N 
ATOM      8  C   UNL     1       4.910   5.980  18.210  0.00  0.00    +0.000 C 
ATOM      9  O   UNL     1       5.577   5.591  19.161  0.00  0.00    +0.000 OA
ATOM     10  H   UNL     1       3.058   6.599  17.508  0.00  0.00    +0.000 HD
BRANCH   7  11
ATOM     11  C   UNL     1       2.832   6.161  19.580  0.00  0.00    +0.000 C 
BRANCH  11  15
ATOM     12  C   UNL     1       0.720   9.817  20.728  0.00  0.00    +0.000 A 
ATOM     13  C   UNL     1       0.882   8.738  21.621  0.00  0.00    +0.000 A 
ATOM     14  C   UNL     1       1.581   7.587  21.262  0.00  0.00    +0.000 A 
ATOM     15  C   UNL     1       2.083   7.437  19.963  0.00  0.00    +0.000 A 
ATOM     16  C   UNL     1       1.847   8.480  19.052  0.00  0.00    +0.000 A 
ATOM     17  C   UNL     1       1.168   9.664  19.410  0.00  0.00    +0.000 A 
BRANCH  12  19
ATOM     18  C   UNL     1      -0.778  10.835  22.241  0.00  0.00    +0.000 C 
ATOM     19  O   UNL     1       0.165  10.992  21.168  0.00  0.00    +0.000 OA
ENDBRANCH  12  19
BRANCH  17  20
ATOM     20  O   UNL     1       1.099  10.515  18.343  0.00  0.00    +0.000 OA
ATOM     21  C   UNL     1       1.982  11.617  18.245  0.00  0.00    +0.000 C 
ENDBRANCH  17  20
ENDBRANCH  11  15
BRANCH  11  22
ATOM     22  C   UNL     1       1.898   5.006  19.483  0.00  0.00    +0.000 C 
ATOM     23  N   UNL     1       1.169   4.112  19.392  0.00  0.00    +0.000 NA
ENDBRANCH  11  22
ENDBRANCH   7  11
ENDBRANCH   1   8
BRANCH   6  24
ATOM     24  N   UNL     1       7.757   6.799  17.465  0.00  0.00    +0.000 N 
ATOM     25  C   UNL     1       7.572   8.161  17.461  0.00  0.00    +0.000 C 
ATOM     26  O   UNL     1       6.782   8.743  16.733  0.00  0.00    +0.000 OA
ATOM     27  H   UNL     1       8.356   6.367  18.159  0.00  0.00    +0.000 HD
BRANCH  25  28
ATOM     28  C   UNL     1       8.439   8.874  18.430  0.00  0.00    +0.000 C 
ATOM     29  C   UNL     1       8.810  10.143  18.186  0.00  0.00    +0.000 C 
BRANCH  29  30
ATOM     30  C   UNL     1       9.726  10.906  19.046  0.00  0.00    +0.000 A 
ATOM     31  C   UNL     1       9.357  11.177  20.371  0.00  0.00    +0.000 A 
ATOM     32  C   UNL     1      10.203  11.911  21.206  0.00  0.00    +0.000 A 
ATOM     33  C   UNL     1      11.430  12.368  20.733  0.00  0.00    +0.000 A 
ATOM     34  C   UNL     1      11.815  12.085  19.428  0.00  0.00    +0.000 A 
ATOM     35  C   UNL     1      10.972  11.353  18.591  0.00  0.00    +0.000 A 
ENDBRANCH  29  30
ENDBRANCH  25  28
ENDBRANCH   6  24
TORSDOF 9
ENDMDL
MODEL 7
REMARK VINA RESULT:      -8.1      4.255      5.997
REMARK  Name = 
REMARK  11 active torsions:
REMARK  status: ('A' for Active; 'I' for Inactive)
REMARK    1  A    between atoms: C_1  and  O_2
REMARK    2  A    between atoms: O_2  and  C_3
REMARK    3  A    between atoms: C_6  and  C_7
REMARK    4  A    between atoms: C_7  and  C_8
REMARK    5  A    between atoms: C_7  and  N_10
REMARK    6  A    between atoms: C_11  and  C_13
REMARK    7  A    between atoms: C_18  and  N_19
REMARK    8  A    between atoms: C_20  and  C_22
REMARK    9  A    between atoms: C_23  and  C_24
REMARK   10  A    between atoms: C_31  and  O_32
REMARK   11  A    between atoms: O_32  and  C_33
REMARK                            x       y       z     vdW  Elec       q    Type
REMARK                         _______ _______ _______ _____ _____    ______ ____
ROOT
ATOM      1  C   UNL     1       5.302   6.064  16.824  0.00  0.00    +0.000 C 
ATOM      2  C   UNL     1       4.430   5.107  15.989  0.00  0.00    +0.000 C 
ATOM      3  C   UNL     1       4.791   3.639  16.201  0.00  0.00    +0.000 C 
ATOM      4  C   UNL     1       6.266   3.380  15.930  0.00  0.00    +0.000 C 
ATOM      5  C   UNL     1       7.160   4.276  16.784  0.00  0.00    +0.000 C 
ATOM      6  C   UNL     1       6.804   5.758  16.607  0.00  0.00    +0.000 C 
ENDROOT
BRANCH   1   8
ATOM      7  N   UNL     1       3.556   6.566  18.450  0.00  0.00    +0.000 N 
ATOM      8  C   UNL     1       4.833   6.056  18.287  0.00  0.00    +0.000 C 
ATOM      9  O   UNL     1       5.504   5.647  19.227  0.00  0.00    +0.000 OA
ATOM     10  H   UNL     1       3.017   6.819  17.633  0.00  0.00    +0.000 HD
BRANCH   7  11
ATOM     11  C   UNL     1       2.847   6.498  19.732  0.00  0.00    +0.000 C 
BRANCH  11  15
ATOM     12  C   UNL     1       0.471  10.121  20.343  0.00  0.00    +0.000 A 
ATOM     13  C   UNL     1       0.923   9.733  19.066  0.00  0.00    +0.000 A 
ATOM     14  C   UNL     1       1.655   8.563  18.870  0.00  0.00    +0.000 A 
ATOM     15  C   UNL     1       2.029   7.769  19.961  0.00  0.00    +0.000 A 
ATOM     16  C   UNL     1       1.647   8.204  21.241  0.00  0.00    +0.000 A 
ATOM     17  C   UNL     1       0.881   9.369  21.452  0.00  0.00    +0.000 A 
BRANCH  12  19
ATOM     18  C   UNL     1       0.287  12.448  20.689  0.00  0.00    +0.000 C 
ATOM     19  O   UNL     1      -0.377  11.192  20.473  0.00  0.00    +0.000 OA
ENDBRANCH  12  19
BRANCH  17  20
ATOM     20  O   UNL     1       0.633   9.543  22.785  0.00  0.00    +0.000 OA
ATOM     21  C   UNL     1      -0.687   9.759  23.247  0.00  0.00    +0.000 C 
ENDBRANCH  17  20
ENDBRANCH  11  15
BRANCH  11  22
ATOM     22  C   UNL     1       1.986   5.287  19.822  0.00  0.00    +0.000 C 
ATOM     23  N   UNL     1       1.304   4.355  19.887  0.00  0.00    +0.000 NA
ENDBRANCH  11  22
ENDBRANCH   7  11
ENDBRANCH   1   8
BRANCH   6  24
ATOM     24  N   UNL     1       7.697   6.612  17.382  0.00  0.00    +0.000 N 
ATOM     25  C   UNL     1       7.512   7.973  17.439  0.00  0.00    +0.000 C 
ATOM     26  O   UNL     1       6.635   8.571  16.834  0.00  0.00    +0.000 OA
ATOM     27  H   UNL     1       8.379   6.163  17.982  0.00  0.00    +0.000 HD
BRANCH  25  28
ATOM     28  C   UNL     1       8.494   8.663  18.310  0.00  0.00    +0.000 C 
ATOM     29  C   UNL     1       8.633   9.996  18.232  0.00  0.00    +0.000 C 
BRANCH  29  30
ATOM     30  C   UNL     1       9.630  10.760  18.997  0.00  0.00    +0.000 A 
ATOM     31  C   UNL     1      10.862  11.067  18.403  0.00  0.00    +0.000 A 
ATOM     32  C   UNL     1      11.832  11.780  19.111  0.00  0.00    +0.000 A 
ATOM     33  C   UNL     1      11.578  12.206  20.413  0.00  0.00    +0.000 A 
ATOM     34  C   UNL     1      10.351  11.925  21.003  0.00  0.00    +0.000 A 
ATOM     35  C   UNL     1       9.380  11.212  20.298  0.00  0.00    +0.000 A 
ENDBRANCH  29  30
ENDBRANCH  25  28
ENDBRANCH   6  24
TORSDOF 9
ENDMDL
MODEL 8
REMARK VINA RESULT:      -8.1      4.326      5.933
REMARK  Name = 
REMARK  11 active torsions:
REMARK  status: ('A' for Active; 'I' for Inactive)
REMARK    1  A    between atoms: C_1  and  O_2
REMARK    2  A    between atoms: O_2  and  C_3
REMARK    3  A    between atoms: C_6  and  C_7
REMARK    4  A    between atoms: C_7  and  C_8
REMARK    5  A    between atoms: C_7  and  N_10
REMARK    6  A    between atoms: C_11  and  C_13
REMARK    7  A    between atoms: C_18  and  N_19
REMARK    8  A    between atoms: C_20  and  C_22
REMARK    9  A    between atoms: C_23  and  C_24
REMARK   10  A    between atoms: C_31  and  O_32
REMARK   11  A    between atoms: O_32  and  C_33
REMARK                            x       y       z     vdW  Elec       q    Type
REMARK                         _______ _______ _______ _____ _____    ______ ____
ROOT
ATOM      1  C   UNL     1       5.330   6.087  16.846  0.00  0.00    +0.000 C 
ATOM      2  C   UNL     1       4.504   5.125  15.970  0.00  0.00    +0.000 C 
ATOM      3  C   UNL     1       4.931   3.667  16.126  0.00  0.00    +0.000 C 
ATOM      4  C   UNL     1       6.417   3.487  15.851  0.00  0.00    +0.000 C 
ATOM      5  C   UNL     1       7.267   4.389  16.743  0.00  0.00    +0.000 C 
ATOM      6  C   UNL     1       6.844   5.859  16.622  0.00  0.00    +0.000 C 
ENDROOT
BRANCH   1   8
ATOM      7  N   UNL     1       3.570   6.476  18.488  0.00  0.00    +0.000 N 
ATOM      8  C   UNL     1       4.858   6.000  18.305  0.00  0.00    +0.000 C 
ATOM      9  O   UNL     1       5.535   5.561  19.226  0.00  0.00    +0.000 OA
ATOM     10  H   UNL     1       3.028   6.756  17.683  0.00  0.00    +0.000 HD
BRANCH   7  11
ATOM     11  C   UNL     1       2.861   6.333  19.764  0.00  0.00    +0.000 C 
BRANCH  11  15
ATOM     12  C   UNL     1       0.426   9.872  20.596  0.00  0.00    +0.000 A 
ATOM     13  C   UNL     1       0.856   9.005  21.620  0.00  0.00    +0.000 A 
ATOM     14  C   UNL     1       1.656   7.895  21.356  0.00  0.00    +0.000 A 
ATOM     15  C   UNL     1       1.997   7.564  20.039  0.00  0.00    +0.000 A 
ATOM     16  C   UNL     1       1.498   8.384  19.013  0.00  0.00    +0.000 A 
ATOM     17  C   UNL     1       0.712   9.528  19.268  0.00  0.00    +0.000 A 
BRANCH  12  19
ATOM     18  C   UNL     1       0.615  12.203  20.912  0.00  0.00    +0.000 C 
ATOM     19  O   UNL     1      -0.226  11.037  20.913  0.00  0.00    +0.000 OA
ENDBRANCH  12  19
BRANCH  17  20
ATOM     20  O   UNL     1       0.383  10.151  18.097  0.00  0.00    +0.000 OA
ATOM     21  C   UNL     1      -0.963  10.191  17.660  0.00  0.00    +0.000 C 
ENDBRANCH  17  20
ENDBRANCH  11  15
BRANCH  11  22
ATOM     22  C   UNL     1       2.043   5.089  19.803  0.00  0.00    +0.000 C 
ATOM     23  N   UNL     1       1.418   4.116  19.842  0.00  0.00    +0.000 NA
ENDBRANCH  11  22
ENDBRANCH   7  11
ENDBRANCH   1   8
BRANCH   6  24
ATOM     24  N   UNL     1       7.695   6.721  17.433  0.00  0.00    +0.000 N 
ATOM     25  C   UNL     1       7.525   8.085  17.445  0.00  0.00    +0.000 C 
ATOM     26  O   UNL     1       6.698   8.678  16.769  0.00  0.00    +0.000 OA
ATOM     27  H   UNL     1       8.331   6.280  18.088  0.00  0.00    +0.000 HD
BRANCH  25  28
ATOM     28  C   UNL     1       8.457   8.785  18.363  0.00  0.00    +0.000 C 
ATOM     29  C   UNL     1       8.731  10.086  18.170  0.00  0.00    +0.000 C 
BRANCH  29  30
ATOM     30  C   UNL     1       9.697  10.846  18.977  0.00  0.00    +0.000 A 
ATOM     31  C   UNL     1      10.906  11.253  18.395  0.00  0.00    +0.000 A 
ATOM     32  C   UNL     1      11.847  11.966  19.143  0.00  0.00    +0.000 A 
ATOM     33  C   UNL     1      11.586  12.290  20.472  0.00  0.00    +0.000 A 
ATOM     34  C   UNL     1      10.381  11.909  21.051  0.00  0.00    +0.000 A 
ATOM     35  C   UNL     1       9.439  11.197  20.307  0.00  0.00    +0.000 A 
ENDBRANCH  29  30
ENDBRANCH  25  28
ENDBRANCH   6  24
TORSDOF 9
ENDMDL
MODEL 9
REMARK VINA RESULT:      -8.0      4.984      9.525
REMARK  Name = 
REMARK  11 active torsions:
REMARK  status: ('A' for Active; 'I' for Inactive)
REMARK    1  A    between atoms: C_1  and  O_2
REMARK    2  A    between atoms: O_2  and  C_3
REMARK    3  A    between atoms: C_6  and  C_7
REMARK    4  A    between atoms: C_7  and  C_8
REMARK    5  A    between atoms: C_7  and  N_10
REMARK    6  A    between atoms: C_11  and  C_13
REMARK    7  A    between atoms: C_18  and  N_19
REMARK    8  A    between atoms: C_20  and  C_22
REMARK    9  A    between atoms: C_23  and  C_24
REMARK   10  A    between atoms: C_31  and  O_32
REMARK   11  A    between atoms: O_32  and  C_33
REMARK                            x       y       z     vdW  Elec       q    Type
REMARK                         _______ _______ _______ _____ _____    ______ ____
ROOT
ATOM      1  C   UNL     1      -3.055  12.554  22.872  0.00  0.00    +0.000 C 
ATOM      2  C   UNL     1      -3.712  13.449  23.942  0.00  0.00    +0.000 C 
ATOM      3  C   UNL     1      -3.023  14.804  24.085  0.00  0.00    +0.000 C 
ATOM      4  C   UNL     1      -1.536  14.648  24.368  0.00  0.00    +0.000 C 
ATOM      5  C   UNL     1      -0.844  13.811  23.295  0.00  0.00    +0.000 C 
ATOM      6  C   UNL     1      -1.530  12.450  23.114  0.00  0.00    +0.000 C 
ENDROOT
BRANCH   1   8
ATOM      7  N   UNL     1      -4.431  12.217  20.887  0.00  0.00    +0.000 N 
ATOM      8  C   UNL     1      -3.470  13.026  21.470  0.00  0.00    +0.000 C 
ATOM      9  O   UNL     1      -3.009  14.012  20.908  0.00  0.00    +0.000 OA
ATOM     10  H   UNL     1      -4.831  11.461  21.424  0.00  0.00    +0.000 HD
BRANCH   7  11
ATOM     11  C   UNL     1      -5.090  12.575  19.627  0.00  0.00    +0.000 C 
BRANCH  11  15
ATOM     12  C   UNL     1      -3.159  10.632  16.216  0.00  0.00    +0.000 A 
ATOM     13  C   UNL     1      -4.530  10.960  16.209  0.00  0.00    +0.000 A 
ATOM     14  C   UNL     1      -5.135  11.605  17.285  0.00  0.00    +0.000 A 
ATOM     15  C   UNL     1      -4.407  11.883  18.448  0.00  0.00    +0.000 A 
ATOM     16  C   UNL     1      -3.061  11.479  18.482  0.00  0.00    +0.000 A 
ATOM     17  C   UNL     1      -2.427  10.853  17.389  0.00  0.00    +0.000 A 
BRANCH  12  19
ATOM     18  C   UNL     1      -3.414  10.152  13.919  0.00  0.00    +0.000 C 
ATOM     19  O   UNL     1      -2.566  10.142  15.079  0.00  0.00    +0.000 OA
ENDBRANCH  12  19
BRANCH  17  20
ATOM     20  O   UNL     1      -1.118  10.591  17.684  0.00  0.00    +0.000 OA
ATOM     21  C   UNL     1      -0.353  11.513  18.436  0.00  0.00    +0.000 C 
ENDBRANCH  17  20
ENDBRANCH  11  15
BRANCH  11  22
ATOM     22  C   UNL     1      -6.545  12.261  19.658  0.00  0.00    +0.000 C 
ATOM     23  N   UNL     1      -7.677  12.022  19.667  0.00  0.00    +0.000 NA
ENDBRANCH  11  22
ENDBRANCH   7  11
ENDBRANCH   1   8
BRANCH   6  24
ATOM     24  N   UNL     1      -0.832  11.634  22.128  0.00  0.00    +0.000 N 
ATOM     25  C   UNL     1      -0.172  10.484  22.492  0.00  0.00    +0.000 C 
ATOM     26  O   UNL     1      -0.083  10.080  23.642  0.00  0.00    +0.000 OA
ATOM     27  H   UNL     1      -0.955  11.865  21.149  0.00  0.00    +0.000 HD
BRANCH  25  28
ATOM     28  C   UNL     1       0.439   9.770  21.344  0.00  0.00    +0.000 C 
ATOM     29  C   UNL     1       0.815   8.488  21.481  0.00  0.00    +0.000 C 
BRANCH  29  30
ATOM     30  C   UNL     1       1.497   7.720  20.428  0.00  0.00    +0.000 A 
ATOM     31  C   UNL     1       1.702   6.345  20.607  0.00  0.00    +0.000 A 
ATOM     32  C   UNL     1       2.358   5.594  19.629  0.00  0.00    +0.000 A 
ATOM     33  C   UNL     1       2.803   6.203  18.458  0.00  0.00    +0.000 A 
ATOM     34  C   UNL     1       2.584   7.562  18.262  0.00  0.00    +0.000 A 
ATOM     35  C   UNL     1       1.930   8.316  19.238  0.00  0.00    +0.000 A 
ENDBRANCH  29  30
ENDBRANCH  25  28
ENDBRANCH   6  24
TORSDOF 9
ENDMDL
