MODEL 1
REMARK VINA RESULT:      -7.1      0.000      0.000
REMARK  Name = 
REMARK  8 active torsions:
REMARK  status: ('A' for Active; 'I' for Inactive)
REMARK    1  A    between atoms: C_1  and  C_2
REMARK    2  A    between atoms: N_4  and  C_5
REMARK    3  A    between atoms: C_5  and  C_6
REMARK    4  A    between atoms: C_9  and  C_10
REMARK    5  A    between atoms: C_17  and  C_19
REMARK    6  A    between atoms: C_24  and  O_25
REMARK    7  A    between atoms: O_25  and  C_26
REMARK    8  A    between atoms: C_26  and  C_27
REMARK                            x       y       z     vdW  Elec       q    Type
REMARK                         _______ _______ _______ _____ _____    ______ ____
ROOT
ATOM      1  C   UNL     1       1.146   6.113  17.244  0.00  0.00    +0.000 C 
ATOM      2  C   UNL     1       2.414   6.872  17.679  0.00  0.00    +0.000 C 
ATOM      3  C   UNL     1       2.062   8.369  17.928  0.00  0.00    +0.000 C 
ATOM      4  N   UNL     1       1.299   8.609  19.163  0.00  0.00    +0.000 NA
ATOM      5  C   UNL     1       1.987   8.007  20.320  0.00  0.00    +0.000 C 
ATOM      6  C   UNL     1       2.272   6.501  20.112  0.00  0.00    +0.000 C 
ATOM      7  N   UNL     1       3.044   6.257  18.881  0.00  0.00    +0.000 N 
ATOM      8  C   UNL     1       4.317   5.632  19.009  0.00  0.00    +0.000 C 
ATOM      9  O   UNL     1       4.770   5.365  20.124  0.00  0.00    +0.000 OA
ENDROOT
BRANCH   8  10
ATOM     10  C   UNL     1       5.141   5.230  17.811  0.00  0.00    +0.000 A 
ATOM     11  C   UNL     1       6.248   6.031  17.467  0.00  0.00    +0.000 A 
ATOM     12  C   UNL     1       7.125   5.701  16.436  0.00  0.00    +0.000 A 
ATOM     13  C   UNL     1       6.867   4.596  15.658  0.00  0.00    +0.000 A 
ATOM     14  C   UNL     1       5.711   3.846  15.891  0.00  0.00    +0.000 A 
ATOM     15  C   UNL     1       4.820   4.153  16.943  0.00  0.00    +0.000 A 
BRANCH  15  16
ATOM     16  O   UNL     1       3.648   3.428  17.106  0.00  0.00    +0.000 OA
BRANCH  16  17
ATOM     17  C   UNL     1       3.769   2.200  17.856  0.00  0.00    +0.000 C 
BRANCH  17  18
ATOM     18  C   UNL     1       2.634   1.957  18.854  0.00  0.00    +0.000 C 
ATOM     19  C   UNL     1       1.435   2.862  18.637  0.00  0.00    +0.000 C 
ATOM     20  C   UNL     1       0.900   3.042  20.037  0.00  0.00    +0.000 C 
ATOM     21  C   UNL     1       2.166   3.076  20.862  0.00  0.00    +0.000 C 
ATOM     22  O   UNL     1       3.114   2.231  20.195  0.00  0.00    +0.000 OA
ENDBRANCH  17  18
ENDBRANCH  16  17
ENDBRANCH  15  16
ENDBRANCH   8  10
BRANCH   4  23
ATOM     23  C   UNL     1       0.917  10.017  19.358  0.00  0.00    +0.000 C 
BRANCH  23  24
ATOM     24  C   UNL     1      -0.456  10.440  18.867  0.00  0.00    +0.000 A 
ATOM     25  C   UNL     1      -1.021   9.854  17.722  0.00  0.00    +0.000 A 
ATOM     26  C   UNL     1      -2.270  10.267  17.248  0.00  0.00    +0.000 A 
ATOM     27  C   UNL     1      -2.979  11.259  17.928  0.00  0.00    +0.000 A 
ATOM     28  C   UNL     1      -2.445  11.823  19.087  0.00  0.00    +0.000 A 
ATOM     29  C   UNL     1      -1.191  11.420  19.552  0.00  0.00    +0.000 A 
BRANCH  27  30
ATOM     30  C   UNL     1      -4.253  11.697  17.432  0.00  0.00    +0.000 C 
ATOM     31  N   UNL     1      -5.281  12.053  17.029  0.00  0.00    +0.000 NA
ENDBRANCH  27  30
ENDBRANCH  23  24
ENDBRANCH   4  23
TORSDOF 7
ENDMDL
MODEL 2
REMARK VINA RESULT:      -6.6      4.852     10.437
REMARK  Name = 
REMARK  8 active torsions:
REMARK  status: ('A' for Active; 'I' for Inactive)
REMARK    1  A    between atoms: C_1  and  C_2
REMARK    2  A    between atoms: N_4  and  C_5
REMARK    3  A    between atoms: C_5  and  C_6
REMARK    4  A    between atoms: C_9  and  C_10
REMARK    5  A    between atoms: C_17  and  C_19
REMARK    6  A    between atoms: C_24  and  O_25
REMARK    7  A    between atoms: O_25  and  C_26
REMARK    8  A    between atoms: C_26  and  C_27
REMARK                            x       y       z     vdW  Elec       q    Type
REMARK                         _______ _______ _______ _____ _____    ______ ____
ROOT
ATOM      1  C   UNL     1      -0.341   9.463  21.842  0.00  0.00    +0.000 C 
ATOM      2  C   UNL     1       0.064  10.705  21.026  0.00  0.00    +0.000 C 
ATOM      3  C   UNL     1       1.203  10.325  20.034  0.00  0.00    +0.000 C 
ATOM      4  N   UNL     1       0.756   9.518  18.888  0.00  0.00    +0.000 NA
ATOM      5  C   UNL     1      -0.373  10.175  18.202  0.00  0.00    +0.000 C 
ATOM      6  C   UNL     1      -1.541  10.487  19.168  0.00  0.00    +0.000 C 
ATOM      7  N   UNL     1      -1.099  11.303  20.312  0.00  0.00    +0.000 N 
ATOM      8  C   UNL     1      -1.705  12.580  20.490  0.00  0.00    +0.000 C 
ATOM      9  O   UNL     1      -2.526  12.998  19.671  0.00  0.00    +0.000 OA
ENDROOT
BRANCH   8  10
ATOM     10  C   UNL     1      -1.415  13.449  21.688  0.00  0.00    +0.000 A 
ATOM     11  C   UNL     1      -0.384  14.403  21.583  0.00  0.00    +0.000 A 
ATOM     12  C   UNL     1      -0.094  15.314  22.597  0.00  0.00    +0.000 A 
ATOM     13  C   UNL     1      -0.779  15.237  23.789  0.00  0.00    +0.000 A 
ATOM     14  C   UNL     1      -1.724  14.225  23.975  0.00  0.00    +0.000 A 
ATOM     15  C   UNL     1      -2.045  13.305  22.953  0.00  0.00    +0.000 A 
BRANCH  15  16
ATOM     16  O   UNL     1      -2.941  12.272  23.193  0.00  0.00    +0.000 OA
BRANCH  16  17
ATOM     17  C   UNL     1      -4.186  12.654  23.815  0.00  0.00    +0.000 C 
BRANCH  17  18
ATOM     18  C   UNL     1      -5.223  13.230  22.848  0.00  0.00    +0.000 C 
ATOM     19  C   UNL     1      -6.401  13.884  23.546  0.00  0.00    +0.000 C 
ATOM     20  C   UNL     1      -7.537  13.630  22.585  0.00  0.00    +0.000 C 
ATOM     21  C   UNL     1      -7.203  12.256  22.050  0.00  0.00    +0.000 C 
ATOM     22  O   UNL     1      -5.772  12.156  22.044  0.00  0.00    +0.000 OA
ENDBRANCH  17  18
ENDBRANCH  16  17
ENDBRANCH  15  16
ENDBRANCH   8  10
BRANCH   4  23
ATOM     23  C   UNL     1       1.848   9.111  17.989  0.00  0.00    +0.000 C 
BRANCH  23  24
ATOM     24  C   UNL     1       2.589   7.831  18.330  0.00  0.00    +0.000 A 
ATOM     25  C   UNL     1       3.637   7.370  17.516  0.00  0.00    +0.000 A 
ATOM     26  C   UNL     1       4.299   6.174  17.809  0.00  0.00    +0.000 A 
ATOM     27  C   UNL     1       3.933   5.434  18.936  0.00  0.00    +0.000 A 
ATOM     28  C   UNL     1       2.919   5.901  19.773  0.00  0.00    +0.000 A 
ATOM     29  C   UNL     1       2.249   7.089  19.472  0.00  0.00    +0.000 A 
BRANCH  27  30
ATOM     30  C   UNL     1       4.599   4.197  19.229  0.00  0.00    +0.000 C 
ATOM     31  N   UNL     1       5.137   3.195  19.461  0.00  0.00    +0.000 NA
ENDBRANCH  27  30
ENDBRANCH  23  24
ENDBRANCH   4  23
TORSDOF 7
ENDMDL
MODEL 3
REMARK VINA RESULT:      -6.5      2.796      5.148
REMARK  Name = 
REMARK  8 active torsions:
REMARK  status: ('A' for Active; 'I' for Inactive)
REMARK    1  A    between atoms: C_1  and  C_2
REMARK    2  A    between atoms: N_4  and  C_5
REMARK    3  A    between atoms: C_5  and  C_6
REMARK    4  A    between atoms: C_9  and  C_10
REMARK    5  A    between atoms: C_17  and  C_19
REMARK    6  A    between atoms: C_24  and  O_25
REMARK    7  A    between atoms: O_25  and  C_26
REMARK    8  A    between atoms: C_26  and  C_27
REMARK                            x       y       z     vdW  Elec       q    Type
REMARK                         _______ _______ _______ _____ _____    ______ ____
ROOT
ATOM      1  C   UNL     1       1.871   8.905  22.079  0.00  0.00    +0.000 C 
ATOM      2  C   UNL     1       1.080   8.241  20.936  0.00  0.00    +0.000 C 
ATOM      3  C   UNL     1      -0.243   9.028  20.694  0.00  0.00    +0.000 C 
ATOM      4  N   UNL     1      -0.054  10.326  20.028  0.00  0.00    +0.000 NA
ATOM      5  C   UNL     1       0.721  10.161  18.784  0.00  0.00    +0.000 C 
ATOM      6  C   UNL     1       2.071   9.447  19.028  0.00  0.00    +0.000 C 
ATOM      7  N   UNL     1       1.887   8.142  19.688  0.00  0.00    +0.000 N 
ATOM      8  C   UNL     1       2.343   6.981  19.000  0.00  0.00    +0.000 C 
ATOM      9  O   UNL     1       2.820   7.076  17.867  0.00  0.00    +0.000 OA
ENDROOT
BRANCH   8  10
ATOM     10  C   UNL     1       2.312   5.610  19.627  0.00  0.00    +0.000 A 
ATOM     11  C   UNL     1       1.080   5.132  20.116  0.00  0.00    +0.000 A 
ATOM     12  C   UNL     1       0.923   3.847  20.632  0.00  0.00    +0.000 A 
ATOM     13  C   UNL     1       2.022   3.028  20.752  0.00  0.00    +0.000 A 
ATOM     14  C   UNL     1       3.283   3.513  20.392  0.00  0.00    +0.000 A 
ATOM     15  C   UNL     1       3.460   4.804  19.850  0.00  0.00    +0.000 A 
BRANCH  15  16
ATOM     16  O   UNL     1       4.733   5.278  19.563  0.00  0.00    +0.000 OA
BRANCH  16  17
ATOM     17  C   UNL     1       5.512   4.472  18.652  0.00  0.00    +0.000 C 
BRANCH  17  18
ATOM     18  C   UNL     1       6.734   5.185  18.069  0.00  0.00    +0.000 C 
ATOM     19  C   UNL     1       7.554   5.926  19.108  0.00  0.00    +0.000 C 
ATOM     20  C   UNL     1       8.103   7.093  18.325  0.00  0.00    +0.000 C 
ATOM     21  C   UNL     1       6.960   7.420  17.392  0.00  0.00    +0.000 C 
ATOM     22  O   UNL     1       6.292   6.181  17.113  0.00  0.00    +0.000 OA
ENDBRANCH  17  18
ENDBRANCH  16  17
ENDBRANCH  15  16
ENDBRANCH   8  10
BRANCH   4  23
ATOM     23  C   UNL     1      -1.301  11.091  19.860  0.00  0.00    +0.000 C 
BRANCH  23  24
ATOM     24  C   UNL     1      -1.730  11.984  21.010  0.00  0.00    +0.000 A 
ATOM     25  C   UNL     1      -2.948  12.681  20.962  0.00  0.00    +0.000 A 
ATOM     26  C   UNL     1      -3.330  13.531  22.004  0.00  0.00    +0.000 A 
ATOM     27  C   UNL     1      -2.503  13.677  23.121  0.00  0.00    +0.000 A 
ATOM     28  C   UNL     1      -1.308  12.962  23.197  0.00  0.00    +0.000 A 
ATOM     29  C   UNL     1      -0.921  12.124  22.148  0.00  0.00    +0.000 A 
BRANCH  27  30
ATOM     30  C   UNL     1      -2.884  14.563  24.184  0.00  0.00    +0.000 C 
ATOM     31  N   UNL     1      -3.190  15.278  25.046  0.00  0.00    +0.000 NA
ENDBRANCH  27  30
ENDBRANCH  23  24
ENDBRANCH   4  23
TORSDOF 7
ENDMDL
MODEL 4
REMARK VINA RESULT:      -6.4      2.000      2.534
REMARK  Name = 
REMARK  8 active torsions:
REMARK  status: ('A' for Active; 'I' for Inactive)
REMARK    1  A    between atoms: C_1  and  C_2
REMARK    2  A    between atoms: N_4  and  C_5
REMARK    3  A    between atoms: C_5  and  C_6
REMARK    4  A    between atoms: C_9  and  C_10
REMARK    5  A    between atoms: C_17  and  C_19
REMARK    6  A    between atoms: C_24  and  O_25
REMARK    7  A    between atoms: O_25  and  C_26
REMARK    8  A    between atoms: C_26  and  C_27
REMARK                            x       y       z     vdW  Elec       q    Type
REMARK                         _______ _______ _______ _____ _____    ______ ____
ROOT
ATOM      1  C   UNL     1       0.632   8.158  17.514  0.00  0.00    +0.000 C 
ATOM      2  C   UNL     1       1.954   8.357  18.280  0.00  0.00    +0.000 C 
ATOM      3  C   UNL     1       1.938   9.743  18.991  0.00  0.00    +0.000 C 
ATOM      4  N   UNL     1       1.058   9.804  20.168  0.00  0.00    +0.000 NA
ATOM      5  C   UNL     1       1.374   8.710  21.107  0.00  0.00    +0.000 C 
ATOM      6  C   UNL     1       1.317   7.323  20.426  0.00  0.00    +0.000 C 
ATOM      7  N   UNL     1       2.204   7.254  19.251  0.00  0.00    +0.000 N 
ATOM      8  C   UNL     1       3.248   6.285  19.263  0.00  0.00    +0.000 C 
ATOM      9  O   UNL     1       3.427   5.576  20.255  0.00  0.00    +0.000 OA
ENDROOT
BRANCH   8  10
ATOM     10  C   UNL     1       4.140   6.048  18.070  0.00  0.00    +0.000 A 
ATOM     11  C   UNL     1       5.116   7.019  17.768  0.00  0.00    +0.000 A 
ATOM     12  C   UNL     1       6.048   6.856  16.745  0.00  0.00    +0.000 A 
ATOM     13  C   UNL     1       5.973   5.746  15.934  0.00  0.00    +0.000 A 
ATOM     14  C   UNL     1       4.942   4.823  16.126  0.00  0.00    +0.000 A 
ATOM     15  C   UNL     1       4.000   4.960  17.169  0.00  0.00    +0.000 A 
BRANCH  15  16
ATOM     16  O   UNL     1       2.951   4.060  17.292  0.00  0.00    +0.000 OA
BRANCH  16  17
ATOM     17  C   UNL     1       3.304   2.748  17.783  0.00  0.00    +0.000 C 
BRANCH  17  18
ATOM     18  C   UNL     1       2.409   2.237  18.915  0.00  0.00    +0.000 C 
ATOM     19  C   UNL     1       1.232   3.148  19.211  0.00  0.00    +0.000 C 
ATOM     20  C   UNL     1       1.028   2.952  20.694  0.00  0.00    +0.000 C 
ATOM     21  C   UNL     1       2.445   2.793  21.194  0.00  0.00    +0.000 C 
ATOM     22  O   UNL     1       3.185   2.164  20.137  0.00  0.00    +0.000 OA
ENDBRANCH  17  18
ENDBRANCH  16  17
ENDBRANCH  15  16
ENDBRANCH   8  10
BRANCH   4  23
ATOM     23  C   UNL     1       1.001  11.134  20.796  0.00  0.00    +0.000 C 
BRANCH  23  24
ATOM     24  C   UNL     1      -0.354  11.617  21.282  0.00  0.00    +0.000 A 
ATOM     25  C   UNL     1      -0.752  11.417  22.613  0.00  0.00    +0.000 A 
ATOM     26  C   UNL     1      -2.013  11.829  23.055  0.00  0.00    +0.000 A 
ATOM     27  C   UNL     1      -2.884  12.469  22.170  0.00  0.00    +0.000 A 
ATOM     28  C   UNL     1      -2.486  12.707  20.854  0.00  0.00    +0.000 A 
ATOM     29  C   UNL     1      -1.231  12.281  20.411  0.00  0.00    +0.000 A 
BRANCH  27  30
ATOM     30  C   UNL     1      -4.186  12.877  22.616  0.00  0.00    +0.000 C 
ATOM     31  N   UNL     1      -5.237  13.208  22.980  0.00  0.00    +0.000 NA
ENDBRANCH  27  30
ENDBRANCH  23  24
ENDBRANCH   4  23
TORSDOF 7
ENDMDL
MODEL 5
REMARK VINA RESULT:      -6.4      1.947      2.372
REMARK  Name = 
REMARK  8 active torsions:
REMARK  status: ('A' for Active; 'I' for Inactive)
REMARK    1  A    between atoms: C_1  and  C_2
REMARK    2  A    between atoms: N_4  and  C_5
REMARK    3  A    between atoms: C_5  and  C_6
REMARK    4  A    between atoms: C_9  and  C_10
REMARK    5  A    between atoms: C_17  and  C_19
REMARK    6  A    between atoms: C_24  and  O_25
REMARK    7  A    between atoms: O_25  and  C_26
REMARK    8  A    between atoms: C_26  and  C_27
REMARK                            x       y       z     vdW  Elec       q    Type
REMARK                         _______ _______ _______ _____ _____    ______ ____
ROOT
ATOM      1  C   UNL     1       1.082   6.614  17.284  0.00  0.00    +0.000 C 
ATOM      2  C   UNL     1       2.432   7.193  17.749  0.00  0.00    +0.000 C 
ATOM      3  C   UNL     1       2.270   8.713  18.046  0.00  0.00    +0.000 C 
ATOM      4  N   UNL     1       1.533   9.007  19.286  0.00  0.00    +0.000 NA
ATOM      5  C   UNL     1       2.130   8.285  20.425  0.00  0.00    +0.000 C 
ATOM      6  C   UNL     1       2.224   6.763  20.167  0.00  0.00    +0.000 C 
ATOM      7  N   UNL     1       2.970   6.463  18.932  0.00  0.00    +0.000 N 
ATOM      8  C   UNL     1       4.153   5.679  19.045  0.00  0.00    +0.000 C 
ATOM      9  O   UNL     1       4.559   5.321  20.152  0.00  0.00    +0.000 OA
ENDROOT
BRANCH   8  10
ATOM     10  C   UNL     1       4.930   5.216  17.837  0.00  0.00    +0.000 A 
ATOM     11  C   UNL     1       6.070   5.951  17.459  0.00  0.00    +0.000 A 
ATOM     12  C   UNL     1       6.907   5.559  16.416  0.00  0.00    +0.000 A 
ATOM     13  C   UNL     1       6.575   4.457  15.662  0.00  0.00    +0.000 A 
ATOM     14  C   UNL     1       5.386   3.774  15.930  0.00  0.00    +0.000 A 
ATOM     15  C   UNL     1       4.534   4.144  16.994  0.00  0.00    +0.000 A 
BRANCH  15  16
ATOM     16  O   UNL     1       3.329   3.484  17.192  0.00  0.00    +0.000 OA
BRANCH  16  17
ATOM     17  C   UNL     1       3.395   2.283  17.991  0.00  0.00    +0.000 C 
BRANCH  17  18
ATOM     18  C   UNL     1       2.288   2.163  19.041  0.00  0.00    +0.000 C 
ATOM     19  C   UNL     1       1.251   3.267  18.953  0.00  0.00    +0.000 C 
ATOM     20  C   UNL     1       0.826   3.435  20.392  0.00  0.00    +0.000 C 
ATOM     21  C   UNL     1       2.119   3.202  21.138  0.00  0.00    +0.000 C 
ATOM     22  O   UNL     1       2.875   2.259  20.364  0.00  0.00    +0.000 OA
ENDBRANCH  17  18
ENDBRANCH  16  17
ENDBRANCH  15  16
ENDBRANCH   8  10
BRANCH   4  23
ATOM     23  C   UNL     1       1.330  10.444  19.526  0.00  0.00    +0.000 C 
BRANCH  23  24
ATOM     24  C   UNL     1       0.266  10.838  20.535  0.00  0.00    +0.000 A 
ATOM     25  C   UNL     1       0.252  10.271  21.820  0.00  0.00    +0.000 A 
ATOM     26  C   UNL     1      -0.747  10.606  22.740  0.00  0.00    +0.000 A 
ATOM     27  C   UNL     1      -1.734  11.531  22.390  0.00  0.00    +0.000 A 
ATOM     28  C   UNL     1      -1.709  12.128  21.129  0.00  0.00    +0.000 A 
ATOM     29  C   UNL     1      -0.718  11.782  20.206  0.00  0.00    +0.000 A 
BRANCH  27  30
ATOM     30  C   UNL     1      -2.770  11.862  23.326  0.00  0.00    +0.000 C 
ATOM     31  N   UNL     1      -3.611  12.128  24.080  0.00  0.00    +0.000 NA
ENDBRANCH  27  30
ENDBRANCH  23  24
ENDBRANCH   4  23
TORSDOF 7
ENDMDL
MODEL 6
REMARK VINA RESULT:      -6.3      1.781      4.273
REMARK  Name = 
REMARK  8 active torsions:
REMARK  status: ('A' for Active; 'I' for Inactive)
REMARK    1  A    between atoms: C_1  and  C_2
REMARK    2  A    between atoms: N_4  and  C_5
REMARK    3  A    between atoms: C_5  and  C_6
REMARK    4  A    between atoms: C_9  and  C_10
REMARK    5  A    between atoms: C_17  and  C_19
REMARK    6  A    between atoms: C_24  and  O_25
REMARK    7  A    between atoms: O_25  and  C_26
REMARK    8  A    between atoms: C_26  and  C_27
REMARK                            x       y       z     vdW  Elec       q    Type
REMARK                         _______ _______ _______ _____ _____    ______ ____
ROOT
ATOM      1  C   UNL     1       1.590   8.973  22.057  0.00  0.00    +0.000 C 
ATOM      2  C   UNL     1       0.954   8.278  20.839  0.00  0.00    +0.000 C 
ATOM      3  C   UNL     1      -0.385   8.985  20.478  0.00  0.00    +0.000 C 
ATOM      4  N   UNL     1      -0.216  10.302  19.843  0.00  0.00    +0.000 NA
ATOM      5  C   UNL     1       0.683  10.202  18.677  0.00  0.00    +0.000 C 
ATOM      6  C   UNL     1       2.045   9.569  19.044  0.00  0.00    +0.000 C 
ATOM      7  N   UNL     1       1.882   8.246  19.673  0.00  0.00    +0.000 N 
ATOM      8  C   UNL     1       2.473   7.125  19.023  0.00  0.00    +0.000 C 
ATOM      9  O   UNL     1       3.047   7.264  17.941  0.00  0.00    +0.000 OA
ENDROOT
BRANCH   8  10
ATOM     10  C   UNL     1       2.467   5.746  19.633  0.00  0.00    +0.000 A 
ATOM     11  C   UNL     1       1.297   5.314  20.288  0.00  0.00    +0.000 A 
ATOM     12  C   UNL     1       1.155   4.029  20.807  0.00  0.00    +0.000 A 
ATOM     13  C   UNL     1       2.222   3.160  20.760  0.00  0.00    +0.000 A 
ATOM     14  C   UNL     1       3.439   3.594  20.228  0.00  0.00    +0.000 A 
ATOM     15  C   UNL     1       3.597   4.886  19.680  0.00  0.00    +0.000 A 
BRANCH  15  16
ATOM     16  O   UNL     1       4.836   5.308  19.218  0.00  0.00    +0.000 OA
BRANCH  16  17
ATOM     17  C   UNL     1       5.535   4.381  18.360  0.00  0.00    +0.000 C 
BRANCH  17  18
ATOM     18  C   UNL     1       5.008   4.333  16.923  0.00  0.00    +0.000 C 
ATOM     19  C   UNL     1       5.921   3.582  15.971  0.00  0.00    +0.000 C 
ATOM     20  C   UNL     1       5.698   4.303  14.664  0.00  0.00    +0.000 C 
ATOM     21  C   UNL     1       5.521   5.735  15.113  0.00  0.00    +0.000 C 
ATOM     22  O   UNL     1       4.907   5.685  16.409  0.00  0.00    +0.000 OA
ENDBRANCH  17  18
ENDBRANCH  16  17
ENDBRANCH  15  16
ENDBRANCH   8  10
BRANCH   4  23
ATOM     23  C   UNL     1      -1.486  10.991  19.562  0.00  0.00    +0.000 C 
BRANCH  23  24
ATOM     24  C   UNL     1      -2.101  10.786  18.190  0.00  0.00    +0.000 A 
ATOM     25  C   UNL     1      -3.201  11.554  17.774  0.00  0.00    +0.000 A 
ATOM     26  C   UNL     1      -3.792  11.343  16.524  0.00  0.00    +0.000 A 
ATOM     27  C   UNL     1      -3.272  10.373  15.664  0.00  0.00    +0.000 A 
ATOM     28  C   UNL     1      -2.157   9.629  16.051  0.00  0.00    +0.000 A 
ATOM     29  C   UNL     1      -1.577   9.831  17.306  0.00  0.00    +0.000 A 
BRANCH  27  30
ATOM     30  C   UNL     1      -3.887  10.142  14.388  0.00  0.00    +0.000 C 
ATOM     31  N   UNL     1      -4.382   9.958  13.355  0.00  0.00    +0.000 NA
ENDBRANCH  27  30
ENDBRANCH  23  24
ENDBRANCH   4  23
TORSDOF 7
ENDMDL
MODEL 7
REMARK VINA RESULT:      -6.3      2.779      4.999
REMARK  Name = 
REMARK  8 active torsions:
REMARK  status: ('A' for Active; 'I' for Inactive)
REMARK    1  A    between atoms: C_1  and  C_2
REMARK    2  A    between atoms: N_4  and  C_5
REMARK    3  A    between atoms: C_5  and  C_6
REMARK    4  A    between atoms: C_9  and  C_10
REMARK    5  A    between atoms: C_17  and  C_19
REMARK    6  A    between atoms: C_24  and  O_25
REMARK    7  A    between atoms: O_25  and  C_26
REMARK    8  A    between atoms: C_26  and  C_27
REMARK                            x       y       z     vdW  Elec       q    Type
REMARK                         _______ _______ _______ _____ _____    ______ ____
ROOT
ATOM      1  C   UNL     1       1.849   8.909  22.164  0.00  0.00    +0.000 C 
ATOM      2  C   UNL     1       1.057   8.244  21.023  0.00  0.00    +0.000 C 
ATOM      3  C   UNL     1      -0.294   8.993  20.822  0.00  0.00    +0.000 C 
ATOM      4  N   UNL     1      -0.160  10.310  20.179  0.00  0.00    +0.000 NA
ATOM      5  C   UNL     1       0.596  10.195  18.918  0.00  0.00    +0.000 C 
ATOM      6  C   UNL     1       1.973   9.519  19.122  0.00  0.00    +0.000 C 
ATOM      7  N   UNL     1       1.843   8.196  19.757  0.00  0.00    +0.000 N 
ATOM      8  C   UNL     1       2.322   7.065  19.037  0.00  0.00    +0.000 C 
ATOM      9  O   UNL     1       2.773   7.197  17.898  0.00  0.00    +0.000 OA
ENDROOT
BRANCH   8  10
ATOM     10  C   UNL     1       2.346   5.680  19.636  0.00  0.00    +0.000 A 
ATOM     11  C   UNL     1       1.132   5.136  20.099  0.00  0.00    +0.000 A 
ATOM     12  C   UNL     1       1.027   3.835  20.587  0.00  0.00    +0.000 A 
ATOM     13  C   UNL     1       2.162   3.065  20.705  0.00  0.00    +0.000 A 
ATOM     14  C   UNL     1       3.403   3.614  20.371  0.00  0.00    +0.000 A 
ATOM     15  C   UNL     1       3.527   4.924  19.857  0.00  0.00    +0.000 A 
BRANCH  15  16
ATOM     16  O   UNL     1       4.780   5.461  19.596  0.00  0.00    +0.000 OA
BRANCH  16  17
ATOM     17  C   UNL     1       5.613   4.702  18.694  0.00  0.00    +0.000 C 
BRANCH  17  18
ATOM     18  C   UNL     1       5.540   5.158  17.234  0.00  0.00    +0.000 C 
ATOM     19  C   UNL     1       4.809   4.180  16.333  0.00  0.00    +0.000 C 
ATOM     20  C   UNL     1       5.513   4.361  15.010  0.00  0.00    +0.000 C 
ATOM     21  C   UNL     1       6.943   4.600  15.438  0.00  0.00    +0.000 C 
ATOM     22  O   UNL     1       6.884   5.273  16.704  0.00  0.00    +0.000 OA
ENDBRANCH  17  18
ENDBRANCH  16  17
ENDBRANCH  15  16
ENDBRANCH   8  10
BRANCH   4  23
ATOM     23  C   UNL     1      -1.433  11.037  20.051  0.00  0.00    +0.000 C 
BRANCH  23  24
ATOM     24  C   UNL     1      -1.673  12.193  21.005  0.00  0.00    +0.000 A 
ATOM     25  C   UNL     1      -1.770  11.973  22.389  0.00  0.00    +0.000 A 
ATOM     26  C   UNL     1      -2.025  13.031  23.267  0.00  0.00    +0.000 A 
ATOM     27  C   UNL     1      -2.167  14.329  22.770  0.00  0.00    +0.000 A 
ATOM     28  C   UNL     1      -2.036  14.566  21.401  0.00  0.00    +0.000 A 
ATOM     29  C   UNL     1      -1.794  13.506  20.524  0.00  0.00    +0.000 A 
BRANCH  27  30
ATOM     30  C   UNL     1      -2.447  15.413  23.667  0.00  0.00    +0.000 C 
ATOM     31  N   UNL     1      -2.677  16.288  24.394  0.00  0.00    +0.000 NA
ENDBRANCH  27  30
ENDBRANCH  23  24
ENDBRANCH   4  23
TORSDOF 7
ENDMDL
MODEL 8
REMARK VINA RESULT:      -6.3      4.484     10.183
REMARK  Name = 
REMARK  8 active torsions:
REMARK  status: ('A' for Active; 'I' for Inactive)
REMARK    1  A    between atoms: C_1  and  C_2
REMARK    2  A    between atoms: N_4  and  C_5
REMARK    3  A    between atoms: C_5  and  C_6
REMARK    4  A    between atoms: C_9  and  C_10
REMARK    5  A    between atoms: C_17  and  C_19
REMARK    6  A    between atoms: C_24  and  O_25
REMARK    7  A    between atoms: O_25  and  C_26
REMARK    8  A    between atoms: C_26  and  C_27
REMARK                            x       y       z     vdW  Elec       q    Type
REMARK                         _______ _______ _______ _____ _____    ______ ____
ROOT
ATOM      1  C   UNL     1      -0.381   9.629  22.076  0.00  0.00    +0.000 C 
ATOM      2  C   UNL     1      -0.080  10.898  21.255  0.00  0.00    +0.000 C 
ATOM      3  C   UNL     1       1.060  10.599  20.237  0.00  0.00    +0.000 C 
ATOM      4  N   UNL     1       0.643   9.765  19.098  0.00  0.00    +0.000 NA
ATOM      5  C   UNL     1      -0.543  10.344  18.439  0.00  0.00    +0.000 C 
ATOM      6  C   UNL     1      -1.707  10.574  19.432  0.00  0.00    +0.000 C 
ATOM      7  N   UNL     1      -1.297  11.416  20.569  0.00  0.00    +0.000 N 
ATOM      8  C   UNL     1      -1.985  12.648  20.764  0.00  0.00    +0.000 C 
ATOM      9  O   UNL     1      -2.850  13.011  19.965  0.00  0.00    +0.000 OA
ENDROOT
BRANCH   8  10
ATOM     10  C   UNL     1      -1.728  13.532  21.959  0.00  0.00    +0.000 A 
ATOM     11  C   UNL     1      -2.720  13.604  22.957  0.00  0.00    +0.000 A 
ATOM     12  C   UNL     1      -2.547  14.319  24.140  0.00  0.00    +0.000 A 
ATOM     13  C   UNL     1      -1.400  15.058  24.321  0.00  0.00    +0.000 A 
ATOM     14  C   UNL     1      -0.448  15.110  23.300  0.00  0.00    +0.000 A 
ATOM     15  C   UNL     1      -0.596  14.377  22.102  0.00  0.00    +0.000 A 
BRANCH  15  16
ATOM     16  O   UNL     1       0.337  14.501  21.082  0.00  0.00    +0.000 OA
BRANCH  16  17
ATOM     17  C   UNL     1       1.720  14.532  21.496  0.00  0.00    +0.000 C 
BRANCH  17  18
ATOM     18  C   UNL     1       2.711  14.808  20.363  0.00  0.00    +0.000 C 
ATOM     19  C   UNL     1       2.193  15.796  19.335  0.00  0.00    +0.000 C 
ATOM     20  C   UNL     1       2.846  15.320  18.060  0.00  0.00    +0.000 C 
ATOM     21  C   UNL     1       2.842  13.819  18.239  0.00  0.00    +0.000 C 
ATOM     22  O   UNL     1       2.970  13.574  19.648  0.00  0.00    +0.000 OA
ENDBRANCH  17  18
ENDBRANCH  16  17
ENDBRANCH  15  16
ENDBRANCH   8  10
BRANCH   4  23
ATOM     23  C   UNL     1       1.741   9.435  18.174  0.00  0.00    +0.000 C 
BRANCH  23  24
ATOM     24  C   UNL     1       2.467   8.122  18.397  0.00  0.00    +0.000 A 
ATOM     25  C   UNL     1       2.158   7.309  19.499  0.00  0.00    +0.000 A 
ATOM     26  C   UNL     1       2.850   6.115  19.727  0.00  0.00    +0.000 A 
ATOM     27  C   UNL     1       3.849   5.710  18.837  0.00  0.00    +0.000 A 
ATOM     28  C   UNL     1       4.139   6.490  17.719  0.00  0.00    +0.000 A 
ATOM     29  C   UNL     1       3.457   7.690  17.500  0.00  0.00    +0.000 A 
BRANCH  27  30
ATOM     30  C   UNL     1       4.572   4.494  19.079  0.00  0.00    +0.000 C 
ATOM     31  N   UNL     1       5.158   3.512  19.277  0.00  0.00    +0.000 NA
ENDBRANCH  27  30
ENDBRANCH  23  24
ENDBRANCH   4  23
TORSDOF 7
ENDMDL
MODEL 9
REMARK VINA RESULT:      -6.3      4.783     10.316
REMARK  Name = 
REMARK  8 active torsions:
REMARK  status: ('A' for Active; 'I' for Inactive)
REMARK    1  A    between atoms: C_1  and  C_2
REMARK    2  A    between atoms: N_4  and  C_5
REMARK    3  A    between atoms: C_5  and  C_6
REMARK    4  A    between atoms: C_9  and  C_10
REMARK    5  A    between atoms: C_17  and  C_19
REMARK    6  A    between atoms: C_24  and  O_25
REMARK    7  A    between atoms: O_25  and  C_26
REMARK    8  A    between atoms: C_26  and  C_27
REMARK                            x       y       z     vdW  Elec       q    Type
REMARK                         _______ _______ _______ _____ _____    ______ ____
ROOT
ATOM      1  C   UNL     1      -0.098   9.776  22.026  0.00  0.00    +0.000 C 
ATOM      2  C   UNL     1       0.148  10.973  21.089  0.00  0.00    +0.000 C 
ATOM      3  C   UNL     1       1.223  10.589  20.028  0.00  0.00    +0.000 C 
ATOM      4  N   UNL     1       0.738   9.667  18.989  0.00  0.00    +0.000 NA
ATOM      5  C   UNL     1      -0.489  10.195  18.361  0.00  0.00    +0.000 C 
ATOM      6  C   UNL     1      -1.589  10.507  19.403  0.00  0.00    +0.000 C 
ATOM      7  N   UNL     1      -1.111  11.437  20.441  0.00  0.00    +0.000 N 
ATOM      8  C   UNL     1      -1.787  12.683  20.578  0.00  0.00    +0.000 C 
ATOM      9  O   UNL     1      -2.702  12.983  19.808  0.00  0.00    +0.000 OA
ENDROOT
BRANCH   8  10
ATOM     10  C   UNL     1      -1.459  13.660  21.679  0.00  0.00    +0.000 A 
ATOM     11  C   UNL     1      -2.118  13.514  22.916  0.00  0.00    +0.000 A 
ATOM     12  C   UNL     1      -1.823  14.305  24.024  0.00  0.00    +0.000 A 
ATOM     13  C   UNL     1      -0.913  15.331  23.899  0.00  0.00    +0.000 A 
ATOM     14  C   UNL     1      -0.330  15.584  22.655  0.00  0.00    +0.000 A 
ATOM     15  C   UNL     1      -0.601  14.782  21.525  0.00  0.00    +0.000 A 
BRANCH  15  16
ATOM     16  O   UNL     1      -0.055  15.100  20.289  0.00  0.00    +0.000 OA
BRANCH  16  17
ATOM     17  C   UNL     1       1.305  14.666  20.073  0.00  0.00    +0.000 C 
BRANCH  17  18
ATOM     18  C   UNL     1       1.892  15.083  18.722  0.00  0.00    +0.000 C 
ATOM     19  C   UNL     1       3.126  14.291  18.331  0.00  0.00    +0.000 C 
ATOM     20  C   UNL     1       3.925  15.296  17.537  0.00  0.00    +0.000 C 
ATOM     21  C   UNL     1       3.636  16.586  18.269  0.00  0.00    +0.000 C 
ATOM     22  O   UNL     1       2.305  16.471  18.792  0.00  0.00    +0.000 OA
ENDBRANCH  17  18
ENDBRANCH  16  17
ENDBRANCH  15  16
ENDBRANCH   8  10
BRANCH   4  23
ATOM     23  C   UNL     1       1.775   9.261  18.028  0.00  0.00    +0.000 C 
BRANCH  23  24
ATOM     24  C   UNL     1       2.539   7.983  18.327  0.00  0.00    +0.000 A 
ATOM     25  C   UNL     1       3.569   7.548  17.478  0.00  0.00    +0.000 A 
ATOM     26  C   UNL     1       4.251   6.353  17.732  0.00  0.00    +0.000 A 
ATOM     27  C   UNL     1       3.922   5.590  18.854  0.00  0.00    +0.000 A 
ATOM     28  C   UNL     1       2.925   6.031  19.725  0.00  0.00    +0.000 A 
ATOM     29  C   UNL     1       2.235   7.217  19.463  0.00  0.00    +0.000 A 
BRANCH  27  30
ATOM     30  C   UNL     1       4.608   4.354  19.107  0.00  0.00    +0.000 C 
ATOM     31  N   UNL     1       5.164   3.356  19.308  0.00  0.00    +0.000 NA
ENDBRANCH  27  30
ENDBRANCH  23  24
ENDBRANCH   4  23
TORSDOF 7
ENDMDL
