MODEL 1
REMARK VINA RESULT:      -8.2      0.000      0.000
REMARK  Name = 
REMARK  2 active torsions:
REMARK  status: ('A' for Active; 'I' for Inactive)
REMARK    1  A    between atoms: N_6  and  C_7
REMARK    2  A    between atoms: C_7  and  C_8
REMARK                            x       y       z     vdW  Elec       q    Type
REMARK                         _______ _______ _______ _____ _____    ______ ____
ROOT
ATOM      1  C   UNL     1       3.498   4.364  17.657  0.00  0.00    +0.000 A 
ATOM      2  N   UNL     1       2.567   5.368  17.752  0.00  0.00    +0.000 NA
ATOM      3  N   UNL     1       3.185   6.526  17.569  0.00  0.00    +0.000 NA
ATOM      4  N   UNL     1       4.492   6.265  17.376  0.00  0.00    +0.000 N 
ATOM      5  C   UNL     1       4.731   4.919  17.375  0.00  0.00    +0.000 A 
ATOM      6  C   UNL     1       6.064   4.311  17.150  0.00  0.00    +0.000 C 
ATOM      7  N   UNL     1       6.915   5.061  16.246  0.00  0.00    +0.000 N 
ATOM      8  C   UNL     1       6.890   4.749  14.905  0.00  0.00    +0.000 A 
ATOM      9  N   UNL     1       5.949   3.907  14.447  0.00  0.00    +0.000 NA
ATOM     10  C   UNL     1       5.926   3.635  13.130  0.00  0.00    +0.000 A 
ATOM     11  C   UNL     1       6.820   4.160  12.237  0.00  0.00    +0.000 A 
ATOM     12  C   UNL     1       7.755   5.000  12.782  0.00  0.00    +0.000 A 
ATOM     13  N   UNL     1       7.801   5.314  14.091  0.00  0.00    +0.000 NA
ATOM     14  C   UNL     1       7.631   6.244  16.690  0.00  0.00    +0.000 C 
ATOM     15  C   UNL     1       6.852   7.044  17.738  0.00  0.00    +0.000 C 
ATOM     16  C   UNL     1       5.428   7.369  17.283  0.00  0.00    +0.000 C 
ENDROOT
BRANCH   1  17
ATOM     17  C   UNL     1       3.119   2.949  17.912  0.00  0.00    +0.000 C 
BRANCH  17  23
ATOM     18  O   UNL     1       4.757   2.489  20.314  0.00  0.00    +0.000 OA
ATOM     19  C   UNL     1       3.537   2.514  20.341  0.00  0.00    +0.000 C 
ATOM     20  C   UNL     1       2.684   2.271  21.563  0.00  0.00    +0.000 C 
ATOM     21  C   UNL     1       1.348   2.888  21.163  0.00  0.00    +0.000 C 
ATOM     22  C   UNL     1       1.296   2.690  19.660  0.00  0.00    +0.000 C 
ATOM     23  N   UNL     1       2.685   2.744  19.278  0.00  0.00    +0.000 N 
ENDBRANCH  17  23
ENDBRANCH   1  17
TORSDOF 2
ENDMDL
MODEL 2
REMARK VINA RESULT:      -8.0      0.994      1.277
REMARK  Name = 
REMARK  2 active torsions:
REMARK  status: ('A' for Active; 'I' for Inactive)
REMARK    1  A    between atoms: N_6  and  C_7
REMARK    2  A    between atoms: C_7  and  C_8
REMARK                            x       y       z     vdW  Elec       q    Type
REMARK                         _______ _______ _______ _____ _____    ______ ____
ROOT
ATOM      1  C   UNL     1       3.511   4.488  17.717  0.00  0.00    +0.000 A 
ATOM      2  N   UNL     1       2.590   5.503  17.798  0.00  0.00    +0.000 NA
ATOM      3  N   UNL     1       3.216   6.650  17.574  0.00  0.00    +0.000 NA
ATOM      4  N   UNL     1       4.518   6.372  17.370  0.00  0.00    +0.000 N 
ATOM      5  C   UNL     1       4.745   5.024  17.403  0.00  0.00    +0.000 A 
ATOM      6  C   UNL     1       6.069   4.398  17.175  0.00  0.00    +0.000 C 
ATOM      7  N   UNL     1       6.914   5.115  16.240  0.00  0.00    +0.000 N 
ATOM      8  C   UNL     1       6.867   4.767  14.909  0.00  0.00    +0.000 A 
ATOM      9  N   UNL     1       5.913   3.922  14.487  0.00  0.00    +0.000 NA
ATOM     10  C   UNL     1       5.868   3.615  13.178  0.00  0.00    +0.000 A 
ATOM     11  C   UNL     1       6.754   4.106  12.259  0.00  0.00    +0.000 A 
ATOM     12  C   UNL     1       7.704   4.953  12.768  0.00  0.00    +0.000 A 
ATOM     13  N   UNL     1       7.771   5.301  14.067  0.00  0.00    +0.000 NA
ATOM     14  C   UNL     1       7.646   6.303  16.642  0.00  0.00    +0.000 C 
ATOM     15  C   UNL     1       6.890   7.137  17.678  0.00  0.00    +0.000 C 
ATOM     16  C   UNL     1       5.463   7.464  17.235  0.00  0.00    +0.000 C 
ENDROOT
BRANCH   1  17
ATOM     17  C   UNL     1       3.123   3.084  18.015  0.00  0.00    +0.000 C 
BRANCH  17  23
ATOM     18  O   UNL     1       0.369   2.381  18.780  0.00  0.00    +0.000 OA
ATOM     19  C   UNL     1       1.238   2.633  19.599  0.00  0.00    +0.000 C 
ATOM     20  C   UNL     1       1.044   2.677  21.096  0.00  0.00    +0.000 C 
ATOM     21  C   UNL     1       2.469   2.542  21.620  0.00  0.00    +0.000 C 
ATOM     22  C   UNL     1       3.311   3.205  20.545  0.00  0.00    +0.000 C 
ATOM     23  N   UNL     1       2.558   2.950  19.342  0.00  0.00    +0.000 N 
ENDBRANCH  17  23
ENDBRANCH   1  17
TORSDOF 2
ENDMDL
MODEL 3
REMARK VINA RESULT:      -7.4      2.785      6.225
REMARK  Name = 
REMARK  2 active torsions:
REMARK  status: ('A' for Active; 'I' for Inactive)
REMARK    1  A    between atoms: N_6  and  C_7
REMARK    2  A    between atoms: C_7  and  C_8
REMARK                            x       y       z     vdW  Elec       q    Type
REMARK                         _______ _______ _______ _____ _____    ______ ____
ROOT
ATOM      1  C   UNL     1       3.534   3.903  17.115  0.00  0.00    +0.000 A 
ATOM      2  N   UNL     1       2.606   2.967  16.731  0.00  0.00    +0.000 NA
ATOM      3  N   UNL     1       1.672   2.900  17.668  0.00  0.00    +0.000 NA
ATOM      4  N   UNL     1       2.006   3.768  18.642  0.00  0.00    +0.000 N 
ATOM      5  C   UNL     1       3.143   4.456  18.319  0.00  0.00    +0.000 A 
ATOM      6  C   UNL     1       3.747   5.510  19.169  0.00  0.00    +0.000 C 
ATOM      7  N   UNL     1       2.786   6.284  19.930  0.00  0.00    +0.000 N 
ATOM      8  C   UNL     1       2.291   7.446  19.380  0.00  0.00    +0.000 A 
ATOM      9  N   UNL     1       2.556   7.725  18.094  0.00  0.00    +0.000 NA
ATOM     10  C   UNL     1       2.043   8.852  17.569  0.00  0.00    +0.000 A 
ATOM     11  C   UNL     1       1.278   9.735  18.282  0.00  0.00    +0.000 A 
ATOM     12  C   UNL     1       1.062   9.386  19.589  0.00  0.00    +0.000 A 
ATOM     13  N   UNL     1       1.541   8.258  20.147  0.00  0.00    +0.000 NA
ATOM     14  C   UNL     1       2.196   5.765  21.151  0.00  0.00    +0.000 C 
ATOM     15  C   UNL     1       1.990   4.249  21.107  0.00  0.00    +0.000 C 
ATOM     16  C   UNL     1       1.222   3.801  19.862  0.00  0.00    +0.000 C 
ENDROOT
BRANCH   1  17
ATOM     17  C   UNL     1       4.759   4.136  16.306  0.00  0.00    +0.000 C 
BRANCH  17  23
ATOM     18  O   UNL     1       5.267   7.015  15.957  0.00  0.00    +0.000 OA
ATOM     19  C   UNL     1       5.890   6.325  16.749  0.00  0.00    +0.000 C 
ATOM     20  C   UNL     1       7.026   6.803  17.620  0.00  0.00    +0.000 C 
ATOM     21  C   UNL     1       7.088   5.731  18.703  0.00  0.00    +0.000 C 
ATOM     22  C   UNL     1       6.630   4.473  17.990  0.00  0.00    +0.000 C 
ATOM     23  N   UNL     1       5.712   4.978  17.000  0.00  0.00    +0.000 N 
ENDBRANCH  17  23
ENDBRANCH   1  17
TORSDOF 2
ENDMDL
MODEL 4
REMARK VINA RESULT:      -7.3      2.344      6.101
REMARK  Name = 
REMARK  2 active torsions:
REMARK  status: ('A' for Active; 'I' for Inactive)
REMARK    1  A    between atoms: N_6  and  C_7
REMARK    2  A    between atoms: C_7  and  C_8
REMARK                            x       y       z     vdW  Elec       q    Type
REMARK                         _______ _______ _______ _____ _____    ______ ____
ROOT
ATOM      1  C   UNL     1       3.688   3.276  17.442  0.00  0.00    +0.000 A 
ATOM      2  N   UNL     1       2.749   2.430  16.906  0.00  0.00    +0.000 NA
ATOM      3  N   UNL     1       1.674   2.459  17.678  0.00  0.00    +0.000 NA
ATOM      4  N   UNL     1       1.927   3.299  18.701  0.00  0.00    +0.000 N 
ATOM      5  C   UNL     1       3.161   3.873  18.572  0.00  0.00    +0.000 A 
ATOM      6  C   UNL     1       3.717   4.871  19.517  0.00  0.00    +0.000 C 
ATOM      7  N   UNL     1       2.723   5.739  20.119  0.00  0.00    +0.000 N 
ATOM      8  C   UNL     1       2.437   6.938  19.505  0.00  0.00    +0.000 A 
ATOM      9  N   UNL     1       2.932   7.181  18.281  0.00  0.00    +0.000 NA
ATOM     10  C   UNL     1       2.619   8.348  17.689  0.00  0.00    +0.000 A 
ATOM     11  C   UNL     1       1.836   9.304  18.276  0.00  0.00    +0.000 A 
ATOM     12  C   UNL     1       1.379   8.987  19.529  0.00  0.00    +0.000 A 
ATOM     13  N   UNL     1       1.652   7.823  20.148  0.00  0.00    +0.000 NA
ATOM     14  C   UNL     1       1.897   5.287  21.224  0.00  0.00    +0.000 C 
ATOM     15  C   UNL     1       1.558   3.797  21.134  0.00  0.00    +0.000 C 
ATOM     16  C   UNL     1       0.963   3.415  19.778  0.00  0.00    +0.000 C 
ENDROOT
BRANCH   1  17
ATOM     17  C   UNL     1       5.044   3.387  16.844  0.00  0.00    +0.000 C 
BRANCH  17  23
ATOM     18  O   UNL     1       7.234   4.439  18.505  0.00  0.00    +0.000 OA
ATOM     19  C   UNL     1       6.584   5.141  17.748  0.00  0.00    +0.000 C 
ATOM     20  C   UNL     1       6.750   6.632  17.577  0.00  0.00    +0.000 C 
ATOM     21  C   UNL     1       6.082   6.889  16.231  0.00  0.00    +0.000 C 
ATOM     22  C   UNL     1       4.994   5.833  16.163  0.00  0.00    +0.000 C 
ATOM     23  N   UNL     1       5.557   4.740  16.915  0.00  0.00    +0.000 N 
ENDBRANCH  17  23
ENDBRANCH   1  17
TORSDOF 2
ENDMDL
MODEL 5
REMARK VINA RESULT:      -7.2      2.757      5.210
REMARK  Name = 
REMARK  2 active torsions:
REMARK  status: ('A' for Active; 'I' for Inactive)
REMARK    1  A    between atoms: N_6  and  C_7
REMARK    2  A    between atoms: C_7  and  C_8
REMARK                            x       y       z     vdW  Elec       q    Type
REMARK                         _______ _______ _______ _____ _____    ______ ____
ROOT
ATOM      1  C   UNL     1       4.826   3.619  18.956  0.00  0.00    +0.000 A 
ATOM      2  N   UNL     1       6.144   3.696  19.330  0.00  0.00    +0.000 NA
ATOM      3  N   UNL     1       6.623   4.864  18.930  0.00  0.00    +0.000 NA
ATOM      4  N   UNL     1       5.630   5.517  18.295  0.00  0.00    +0.000 N 
ATOM      5  C   UNL     1       4.468   4.796  18.326  0.00  0.00    +0.000 A 
ATOM      6  C   UNL     1       3.186   5.261  17.747  0.00  0.00    +0.000 C 
ATOM      7  N   UNL     1       2.990   6.697  17.808  0.00  0.00    +0.000 N 
ATOM      8  C   UNL     1       2.334   7.227  18.897  0.00  0.00    +0.000 A 
ATOM      9  N   UNL     1       2.070   6.437  19.950  0.00  0.00    +0.000 NA
ATOM     10  C   UNL     1       1.451   6.980  21.013  0.00  0.00    +0.000 A 
ATOM     11  C   UNL     1       1.062   8.291  21.070  0.00  0.00    +0.000 A 
ATOM     12  C   UNL     1       1.357   9.029  19.953  0.00  0.00    +0.000 A 
ATOM     13  N   UNL     1       1.992   8.529  18.877  0.00  0.00    +0.000 NA
ATOM     14  C   UNL     1       3.636   7.588  16.861  0.00  0.00    +0.000 C 
ATOM     15  C   UNL     1       5.020   7.091  16.436  0.00  0.00    +0.000 C 
ATOM     16  C   UNL     1       5.919   6.774  17.632  0.00  0.00    +0.000 C 
ENDROOT
BRANCH   1  17
ATOM     17  C   UNL     1       4.039   2.379  19.187  0.00  0.00    +0.000 C 
BRANCH  17  23
ATOM     18  O   UNL     1       1.288   2.357  18.140  0.00  0.00    +0.000 OA
ATOM     19  C   UNL     1       1.552   2.632  19.299  0.00  0.00    +0.000 C 
ATOM     20  C   UNL     1       0.549   3.045  20.351  0.00  0.00    +0.000 C 
ATOM     21  C   UNL     1       1.304   2.787  21.650  0.00  0.00    +0.000 C 
ATOM     22  C   UNL     1       2.754   3.032  21.278  0.00  0.00    +0.000 C 
ATOM     23  N   UNL     1       2.801   2.648  19.889  0.00  0.00    +0.000 N 
ENDBRANCH  17  23
ENDBRANCH   1  17
TORSDOF 2
ENDMDL
MODEL 6
REMARK VINA RESULT:      -6.8      2.647      5.087
REMARK  Name = 
REMARK  2 active torsions:
REMARK  status: ('A' for Active; 'I' for Inactive)
REMARK    1  A    between atoms: N_6  and  C_7
REMARK    2  A    between atoms: C_7  and  C_8
REMARK                            x       y       z     vdW  Elec       q    Type
REMARK                         _______ _______ _______ _____ _____    ______ ____
ROOT
ATOM      1  C   UNL     1       4.653   3.416  18.864  0.00  0.00    +0.000 A 
ATOM      2  N   UNL     1       5.956   3.397  19.296  0.00  0.00    +0.000 NA
ATOM      3  N   UNL     1       6.514   4.557  18.982  0.00  0.00    +0.000 NA
ATOM      4  N   UNL     1       5.587   5.298  18.346  0.00  0.00    +0.000 N 
ATOM      5  C   UNL     1       4.388   4.644  18.289  0.00  0.00    +0.000 A 
ATOM      6  C   UNL     1       3.159   5.212  17.685  0.00  0.00    +0.000 C 
ATOM      7  N   UNL     1       3.040   6.651  17.820  0.00  0.00    +0.000 N 
ATOM      8  C   UNL     1       2.366   7.157  18.909  0.00  0.00    +0.000 A 
ATOM      9  N   UNL     1       2.013   6.327  19.904  0.00  0.00    +0.000 NA
ATOM     10  C   UNL     1       1.378   6.846  20.970  0.00  0.00    +0.000 A 
ATOM     11  C   UNL     1       1.060   8.171  21.085  0.00  0.00    +0.000 A 
ATOM     12  C   UNL     1       1.443   8.952  20.026  0.00  0.00    +0.000 A 
ATOM     13  N   UNL     1       2.097   8.476  18.950  0.00  0.00    +0.000 NA
ATOM     14  C   UNL     1       3.774   7.555  16.952  0.00  0.00    +0.000 C 
ATOM     15  C   UNL     1       5.147   7.004  16.556  0.00  0.00    +0.000 C 
ATOM     16  C   UNL     1       5.973   6.571  17.768  0.00  0.00    +0.000 C 
ENDROOT
BRANCH   1  17
ATOM     17  C   UNL     1       3.791   2.212  18.991  0.00  0.00    +0.000 C 
BRANCH  17  23
ATOM     18  O   UNL     1       3.423   2.410  21.905  0.00  0.00    +0.000 OA
ATOM     19  C   UNL     1       2.504   2.545  21.112  0.00  0.00    +0.000 C 
ATOM     20  C   UNL     1       1.058   2.777  21.480  0.00  0.00    +0.000 C 
ATOM     21  C   UNL     1       0.475   3.344  20.190  0.00  0.00    +0.000 C 
ATOM     22  C   UNL     1       1.297   2.679  19.102  0.00  0.00    +0.000 C 
ATOM     23  N   UNL     1       2.579   2.492  19.734  0.00  0.00    +0.000 N 
ENDBRANCH  17  23
ENDBRANCH   1  17
TORSDOF 2
ENDMDL
MODEL 7
REMARK VINA RESULT:      -6.8      2.178      6.525
REMARK  Name = 
REMARK  2 active torsions:
REMARK  status: ('A' for Active; 'I' for Inactive)
REMARK    1  A    between atoms: N_6  and  C_7
REMARK    2  A    between atoms: C_7  and  C_8
REMARK                            x       y       z     vdW  Elec       q    Type
REMARK                         _______ _______ _______ _____ _____    ______ ____
ROOT
ATOM      1  C   UNL     1       6.604   5.274  16.453  0.00  0.00    +0.000 A 
ATOM      2  N   UNL     1       7.345   6.372  16.812  0.00  0.00    +0.000 NA
ATOM      3  N   UNL     1       6.540   7.239  17.409  0.00  0.00    +0.000 NA
ATOM      4  N   UNL     1       5.302   6.710  17.416  0.00  0.00    +0.000 N 
ATOM      5  C   UNL     1       5.299   5.457  16.869  0.00  0.00    +0.000 A 
ATOM      6  C   UNL     1       4.096   4.597  16.766  0.00  0.00    +0.000 C 
ATOM      7  N   UNL     1       3.147   4.770  17.849  0.00  0.00    +0.000 N 
ATOM      8  C   UNL     1       3.253   3.956  18.955  0.00  0.00    +0.000 A 
ATOM      9  N   UNL     1       4.333   3.170  19.088  0.00  0.00    +0.000 NA
ATOM     10  C   UNL     1       4.430   2.403  20.187  0.00  0.00    +0.000 A 
ATOM     11  C   UNL     1       3.477   2.369  21.169  0.00  0.00    +0.000 A 
ATOM     12  C   UNL     1       2.400   3.189  20.956  0.00  0.00    +0.000 A 
ATOM     13  N   UNL     1       2.274   3.988  19.879  0.00  0.00    +0.000 NA
ATOM     14  C   UNL     1       2.229   5.895  17.876  0.00  0.00    +0.000 C 
ATOM     15  C   UNL     1       2.836   7.164  17.273  0.00  0.00    +0.000 C 
ATOM     16  C   UNL     1       4.191   7.512  17.891  0.00  0.00    +0.000 C 
ENDROOT
BRANCH   1  17
ATOM     17  C   UNL     1       7.216   4.163  15.677  0.00  0.00    +0.000 C 
BRANCH  17  23
ATOM     18  O   UNL     1       8.651   5.760  13.663  0.00  0.00    +0.000 OA
ATOM     19  C   UNL     1       7.673   5.082  13.394  0.00  0.00    +0.000 C 
ATOM     20  C   UNL     1       7.020   4.988  12.035  0.00  0.00    +0.000 C 
ATOM     21  C   UNL     1       6.215   3.698  12.142  0.00  0.00    +0.000 C 
ATOM     22  C   UNL     1       5.839   3.629  13.610  0.00  0.00    +0.000 C 
ATOM     23  N   UNL     1       6.948   4.285  14.258  0.00  0.00    +0.000 N 
ENDBRANCH  17  23
ENDBRANCH   1  17
TORSDOF 2
ENDMDL
MODEL 8
REMARK VINA RESULT:      -6.7      1.373      1.509
REMARK  Name = 
REMARK  2 active torsions:
REMARK  status: ('A' for Active; 'I' for Inactive)
REMARK    1  A    between atoms: N_6  and  C_7
REMARK    2  A    between atoms: C_7  and  C_8
REMARK                            x       y       z     vdW  Elec       q    Type
REMARK                         _______ _______ _______ _____ _____    ______ ____
ROOT
ATOM      1  C   UNL     1       2.990   5.506  17.810  0.00  0.00    +0.000 A 
ATOM      2  N   UNL     1       2.540   6.802  17.862  0.00  0.00    +0.000 NA
ATOM      3  N   UNL     1       3.578   7.609  17.704  0.00  0.00    +0.000 NA
ATOM      4  N   UNL     1       4.677   6.842  17.569  0.00  0.00    +0.000 N 
ATOM      5  C   UNL     1       4.353   5.513  17.582  0.00  0.00    +0.000 A 
ATOM      6  C   UNL     1       5.337   4.416  17.416  0.00  0.00    +0.000 C 
ATOM      7  N   UNL     1       6.453   4.743  16.550  0.00  0.00    +0.000 N 
ATOM      8  C   UNL     1       6.358   4.442  15.210  0.00  0.00    +0.000 A 
ATOM      9  N   UNL     1       5.177   4.041  14.712  0.00  0.00    +0.000 NA
ATOM     10  C   UNL     1       5.099   3.776  13.396  0.00  0.00    +0.000 A 
ATOM     11  C   UNL     1       6.163   3.880  12.542  0.00  0.00    +0.000 A 
ATOM     12  C   UNL     1       7.335   4.284  13.127  0.00  0.00    +0.000 A 
ATOM     13  N   UNL     1       7.451   4.578  14.436  0.00  0.00    +0.000 NA
ATOM     14  C   UNL     1       7.566   5.547  17.024  0.00  0.00    +0.000 C 
ATOM     15  C   UNL     1       7.133   6.612  18.035  0.00  0.00    +0.000 C 
ATOM     16  C   UNL     1       5.981   7.474  17.517  0.00  0.00    +0.000 C 
ENDROOT
BRANCH   1  17
ATOM     17  C   UNL     1       2.065   4.368  18.049  0.00  0.00    +0.000 C 
BRANCH  17  23
ATOM     18  O   UNL     1       1.154   5.515  20.602  0.00  0.00    +0.000 OA
ATOM     19  C   UNL     1       1.759   4.458  20.532  0.00  0.00    +0.000 C 
ATOM     20  C   UNL     1       2.177   3.608  21.708  0.00  0.00    +0.000 C 
ATOM     21  C   UNL     1       2.427   2.249  21.065  0.00  0.00    +0.000 C 
ATOM     22  C   UNL     1       2.900   2.596  19.665  0.00  0.00    +0.000 C 
ATOM     23  N   UNL     1       2.207   3.828  19.386  0.00  0.00    +0.000 N 
ENDBRANCH  17  23
ENDBRANCH   1  17
TORSDOF 2
ENDMDL
MODEL 9
REMARK VINA RESULT:      -6.6      2.741      6.533
REMARK  Name = 
REMARK  2 active torsions:
REMARK  status: ('A' for Active; 'I' for Inactive)
REMARK    1  A    between atoms: N_6  and  C_7
REMARK    2  A    between atoms: C_7  and  C_8
REMARK                            x       y       z     vdW  Elec       q    Type
REMARK                         _______ _______ _______ _____ _____    ______ ____
ROOT
ATOM      1  C   UNL     1       4.173   3.947  17.616  0.00  0.00    +0.000 A 
ATOM      2  N   UNL     1       3.432   3.029  16.915  0.00  0.00    +0.000 NA
ATOM      3  N   UNL     1       2.235   2.945  17.476  0.00  0.00    +0.000 NA
ATOM      4  N   UNL     1       2.217   3.784  18.529  0.00  0.00    +0.000 N 
ATOM      5  C   UNL     1       3.395   4.471  18.631  0.00  0.00    +0.000 A 
ATOM      6  C   UNL     1       3.673   5.498  19.664  0.00  0.00    +0.000 C 
ATOM      7  N   UNL     1       2.509   6.259  20.074  0.00  0.00    +0.000 N 
ATOM      8  C   UNL     1       2.229   7.439  19.421  0.00  0.00    +0.000 A 
ATOM      9  N   UNL     1       2.915   7.750  18.309  0.00  0.00    +0.000 NA
ATOM     10  C   UNL     1       2.608   8.894  17.672  0.00  0.00    +0.000 A 
ATOM     11  C   UNL     1       1.646   9.763  18.107  0.00  0.00    +0.000 A 
ATOM     12  C   UNL     1       0.998   9.382  19.253  0.00  0.00    +0.000 A 
ATOM     13  N   UNL     1       1.261   8.236  19.910  0.00  0.00    +0.000 NA
ATOM     14  C   UNL     1       1.540   5.713  21.008  0.00  0.00    +0.000 C 
ATOM     15  C   UNL     1       1.364   4.200  20.854  0.00  0.00    +0.000 C 
ATOM     16  C   UNL     1       1.065   3.791  19.411  0.00  0.00    +0.000 C 
ENDROOT
BRANCH   1  17
ATOM     17  C   UNL     1       5.600   4.192  17.278  0.00  0.00    +0.000 C 
BRANCH  17  23
ATOM     18  O   UNL     1       5.220   6.700  15.785  0.00  0.00    +0.000 OA
ATOM     19  C   UNL     1       5.559   5.658  15.250  0.00  0.00    +0.000 C 
ATOM     20  C   UNL     1       5.785   5.468  13.769  0.00  0.00    +0.000 C 
ATOM     21  C   UNL     1       6.630   4.200  13.721  0.00  0.00    +0.000 C 
ATOM     22  C   UNL     1       6.160   3.409  14.928  0.00  0.00    +0.000 C 
ATOM     23  N   UNL     1       5.784   4.440  15.863  0.00  0.00    +0.000 N 
ENDBRANCH  17  23
ENDBRANCH   1  17
TORSDOF 2
ENDMDL
