MODEL 1
REMARK VINA RESULT:      -8.6      0.000      0.000
REMARK  Name = 
REMARK  9 active torsions:
REMARK  status: ('A' for Active; 'I' for Inactive)
REMARK    1  A    between atoms: C_1  and  C_2
REMARK    2  A    between atoms: C_4  and  C_5
REMARK    3  A    between atoms: C_10  and  O_11
REMARK    4  A    between atoms: O_11  and  C_12
REMARK    5  A    between atoms: C_12  and  C_13
REMARK    6  A    between atoms: N_18  and  C_19
REMARK    7  A    between atoms: C_19  and  C_20
REMARK    8  A    between atoms: C_19  and  C_21
REMARK    9  A    between atoms: N_28  and  C_29
REMARK                            x       y       z     vdW  Elec       q    Type
REMARK                         _______ _______ _______ _____ _____    ______ ____
ROOT
ATOM      1  C   UNL     1       3.683   7.228  17.924  0.00  0.00    +0.000 A 
ATOM      2  N   UNL     1       3.415   8.349  17.294  0.00  0.00    +0.000 NA
ATOM      3  C   UNL     1       2.394   8.945  17.974  0.00  0.00    +0.000 A 
ATOM      4  C   UNL     1       1.772  10.163  17.693  0.00  0.00    +0.000 A 
ATOM      5  N   UNL     1       0.757  10.622  18.463  0.00  0.00    +0.000 NA
ATOM      6  C   UNL     1       0.355   9.890  19.520  0.00  0.00    +0.000 A 
ATOM      7  C   UNL     1       0.941   8.666  19.900  0.00  0.00    +0.000 A 
ATOM      8  C   UNL     1       1.986   8.179  19.073  0.00  0.00    +0.000 A 
ATOM      9  N   UNL     1       2.784   7.028  18.985  0.00  0.00    +0.000 N 
ENDROOT
BRANCH   1  13
ATOM     10  C   UNL     1       6.112   3.991  14.887  0.00  0.00    +0.000 C 
ATOM     11  C   UNL     1       5.954   4.807  16.129  0.00  0.00    +0.000 A 
ATOM     12  C   UNL     1       4.883   5.572  16.398  0.00  0.00    +0.000 A 
ATOM     13  C   UNL     1       4.764   6.339  17.627  0.00  0.00    +0.000 A 
ATOM     14  C   UNL     1       5.816   6.343  18.469  0.00  0.00    +0.000 A 
ATOM     15  N   UNL     1       6.949   5.585  18.232  0.00  0.00    +0.000 N 
ATOM     16  C   UNL     1       8.082   5.666  19.136  0.00  0.00    +0.000 C 
ATOM     17  C   UNL     1       7.087   4.772  17.102  0.00  0.00    +0.000 A 
ATOM     18  O   UNL     1       8.084   4.078  16.882  0.00  0.00    +0.000 OA
ENDBRANCH   1  13
BRANCH   9  19
ATOM     19  C   UNL     1       2.799   5.808  19.814  0.00  0.00    +0.000 C 
ATOM     20  C   UNL     1       1.802   5.735  20.973  0.00  0.00    +0.000 C 
BRANCH  19  21
ATOM     21  C   UNL     1       2.774   4.512  19.005  0.00  0.00    +0.000 A 
ATOM     22  C   UNL     1       3.675   3.454  19.170  0.00  0.00    +0.000 A 
ATOM     23  C   UNL     1       3.540   2.288  18.408  0.00  0.00    +0.000 A 
ATOM     24  C   UNL     1       2.526   2.226  17.473  0.00  0.00    +0.000 A 
ATOM     25  N   UNL     1       1.655   3.228  17.254  0.00  0.00    +0.000 NA
ATOM     26  C   UNL     1       1.800   4.339  18.021  0.00  0.00    +0.000 A 
ENDBRANCH  19  21
ENDBRANCH   9  19
BRANCH   6  27
ATOM     27  O   UNL     1      -0.896  10.242  19.964  0.00  0.00    +0.000 OA
BRANCH  27  28
ATOM     28  C   UNL     1      -1.719  10.994  19.075  0.00  0.00    +0.000 C 
BRANCH  28  29
ATOM     29  C   UNL     1      -2.316  10.054  18.040  0.00  0.00    +0.000 C 
ATOM     30  C   UNL     1      -3.749  10.213  17.575  0.00  0.00    +0.000 C 
ATOM     31  C   UNL     1      -2.627  10.512  16.627  0.00  0.00    +0.000 C 
ENDBRANCH  28  29
ENDBRANCH  27  28
ENDBRANCH   6  27
TORSDOF 6
ENDMDL
MODEL 2
REMARK VINA RESULT:      -8.5      1.275      1.889
REMARK  Name = 
REMARK  9 active torsions:
REMARK  status: ('A' for Active; 'I' for Inactive)
REMARK    1  A    between atoms: C_1  and  C_2
REMARK    2  A    between atoms: C_4  and  C_5
REMARK    3  A    between atoms: C_10  and  O_11
REMARK    4  A    between atoms: O_11  and  C_12
REMARK    5  A    between atoms: C_12  and  C_13
REMARK    6  A    between atoms: N_18  and  C_19
REMARK    7  A    between atoms: C_19  and  C_20
REMARK    8  A    between atoms: C_19  and  C_21
REMARK    9  A    between atoms: N_28  and  C_29
REMARK                            x       y       z     vdW  Elec       q    Type
REMARK                         _______ _______ _______ _____ _____    ______ ____
ROOT
ATOM      1  C   UNL     1       3.653   7.189  17.931  0.00  0.00    +0.000 A 
ATOM      2  N   UNL     1       3.338   8.308  17.319  0.00  0.00    +0.000 NA
ATOM      3  C   UNL     1       2.341   8.885  18.049  0.00  0.00    +0.000 A 
ATOM      4  C   UNL     1       1.687  10.095  17.803  0.00  0.00    +0.000 A 
ATOM      5  N   UNL     1       0.703  10.534  18.623  0.00  0.00    +0.000 NA
ATOM      6  C   UNL     1       0.364   9.793  19.695  0.00  0.00    +0.000 A 
ATOM      7  C   UNL     1       0.986   8.577  20.041  0.00  0.00    +0.000 A 
ATOM      8  C   UNL     1       1.998   8.109  19.163  0.00  0.00    +0.000 A 
ATOM      9  N   UNL     1       2.809   6.972  19.032  0.00  0.00    +0.000 N 
ENDROOT
BRANCH   1  13
ATOM     10  C   UNL     1       6.026   4.066  14.735  0.00  0.00    +0.000 C 
ATOM     11  C   UNL     1       5.895   4.843  16.005  0.00  0.00    +0.000 A 
ATOM     12  C   UNL     1       4.825   5.590  16.324  0.00  0.00    +0.000 A 
ATOM     13  C   UNL     1       4.733   6.319  17.579  0.00  0.00    +0.000 A 
ATOM     14  C   UNL     1       5.806   6.306  18.393  0.00  0.00    +0.000 A 
ATOM     15  N   UNL     1       6.939   5.565  18.105  0.00  0.00    +0.000 N 
ATOM     16  C   UNL     1       8.094   5.628  18.981  0.00  0.00    +0.000 C 
ATOM     17  C   UNL     1       7.053   4.788  16.948  0.00  0.00    +0.000 A 
ATOM     18  O   UNL     1       8.049   4.109  16.680  0.00  0.00    +0.000 OA
ENDBRANCH   1  13
BRANCH   9  19
ATOM     19  C   UNL     1       2.883   5.749  19.855  0.00  0.00    +0.000 C 
ATOM     20  C   UNL     1       1.968   5.671  21.080  0.00  0.00    +0.000 C 
BRANCH  19  21
ATOM     21  C   UNL     1       2.804   4.456  19.046  0.00  0.00    +0.000 A 
ATOM     22  C   UNL     1       3.722   3.403  19.138  0.00  0.00    +0.000 A 
ATOM     23  C   UNL     1       3.537   2.238  18.384  0.00  0.00    +0.000 A 
ATOM     24  C   UNL     1       2.454   2.172  17.529  0.00  0.00    +0.000 A 
ATOM     25  N   UNL     1       1.562   3.169  17.382  0.00  0.00    +0.000 NA
ATOM     26  C   UNL     1       1.759   4.279  18.139  0.00  0.00    +0.000 A 
ENDBRANCH  19  21
ENDBRANCH   9  19
BRANCH   6  27
ATOM     27  O   UNL     1      -0.870  10.124  20.199  0.00  0.00    +0.000 OA
BRANCH  27  28
ATOM     28  C   UNL     1      -1.071  11.476  20.606  0.00  0.00    +0.000 C 
BRANCH  28  29
ATOM     29  C   UNL     1      -0.775  11.593  22.092  0.00  0.00    +0.000 C 
ATOM     30  C   UNL     1      -1.112  12.855  22.859  0.00  0.00    +0.000 C 
ATOM     31  C   UNL     1      -1.881  11.598  23.131  0.00  0.00    +0.000 C 
ENDBRANCH  28  29
ENDBRANCH  27  28
ENDBRANCH   6  27
TORSDOF 6
ENDMDL
MODEL 3
REMARK VINA RESULT:      -8.3      3.746      9.908
REMARK  Name = 
REMARK  9 active torsions:
REMARK  status: ('A' for Active; 'I' for Inactive)
REMARK    1  A    between atoms: C_1  and  C_2
REMARK    2  A    between atoms: C_4  and  C_5
REMARK    3  A    between atoms: C_10  and  O_11
REMARK    4  A    between atoms: O_11  and  C_12
REMARK    5  A    between atoms: C_12  and  C_13
REMARK    6  A    between atoms: N_18  and  C_19
REMARK    7  A    between atoms: C_19  and  C_20
REMARK    8  A    between atoms: C_19  and  C_21
REMARK    9  A    between atoms: N_28  and  C_29
REMARK                            x       y       z     vdW  Elec       q    Type
REMARK                         _______ _______ _______ _____ _____    ______ ____
ROOT
ATOM      1  C   UNL     1      -0.885  11.249  21.956  0.00  0.00    +0.000 A 
ATOM      2  N   UNL     1      -0.287  10.198  22.470  0.00  0.00    +0.000 NA
ATOM      3  C   UNL     1       0.409   9.611  21.455  0.00  0.00    +0.000 A 
ATOM      4  C   UNL     1       1.213   8.469  21.515  0.00  0.00    +0.000 A 
ATOM      5  N   UNL     1       1.839   8.000  20.410  0.00  0.00    +0.000 NA
ATOM      6  C   UNL     1       1.686   8.655  19.243  0.00  0.00    +0.000 A 
ATOM      7  C   UNL     1       0.922   9.829  19.091  0.00  0.00    +0.000 A 
ATOM      8  C   UNL     1       0.248  10.300  20.248  0.00  0.00    +0.000 A 
ATOM      9  N   UNL     1      -0.656  11.323  20.573  0.00  0.00    +0.000 N 
ENDROOT
BRANCH   1  13
ATOM     10  C   UNL     1      -4.975  12.769  24.519  0.00  0.00    +0.000 C 
ATOM     11  C   UNL     1      -3.597  12.938  23.964  0.00  0.00    +0.000 A 
ATOM     12  C   UNL     1      -2.966  12.016  23.219  0.00  0.00    +0.000 A 
ATOM     13  C   UNL     1      -1.629  12.228  22.687  0.00  0.00    +0.000 A 
ATOM     14  C   UNL     1      -0.984  13.356  23.042  0.00  0.00    +0.000 A 
ATOM     15  N   UNL     1      -1.583  14.332  23.821  0.00  0.00    +0.000 N 
ATOM     16  C   UNL     1      -0.829  15.503  24.229  0.00  0.00    +0.000 C 
ATOM     17  C   UNL     1      -2.892  14.212  24.299  0.00  0.00    +0.000 A 
ATOM     18  O   UNL     1      -3.448  15.078  24.982  0.00  0.00    +0.000 OA
ENDBRANCH   1  13
BRANCH   9  19
ATOM     19  C   UNL     1      -1.277  12.357  19.723  0.00  0.00    +0.000 C 
ATOM     20  C   UNL     1      -0.388  13.030  18.674  0.00  0.00    +0.000 C 
BRANCH  19  21
ATOM     21  C   UNL     1      -2.606  11.931  19.103  0.00  0.00    +0.000 A 
ATOM     22  C   UNL     1      -3.866  12.307  19.583  0.00  0.00    +0.000 A 
ATOM     23  C   UNL     1      -5.026  11.898  18.916  0.00  0.00    +0.000 A 
ATOM     24  C   UNL     1      -4.896  11.091  17.803  0.00  0.00    +0.000 A 
ATOM     25  N   UNL     1      -3.710  10.677  17.320  0.00  0.00    +0.000 NA
ATOM     26  C   UNL     1      -2.602  11.104  17.979  0.00  0.00    +0.000 A 
ENDBRANCH  19  21
ENDBRANCH   9  19
BRANCH   6  27
ATOM     27  O   UNL     1       2.022   7.885  18.156  0.00  0.00    +0.000 OA
BRANCH  27  28
ATOM     28  C   UNL     1       2.845   6.743  18.389  0.00  0.00    +0.000 C 
BRANCH  28  29
ATOM     29  C   UNL     1       2.126   5.505  17.879  0.00  0.00    +0.000 C 
ATOM     30  C   UNL     1       2.865   4.197  17.687  0.00  0.00    +0.000 C 
ATOM     31  C   UNL     1       1.845   4.315  18.778  0.00  0.00    +0.000 C 
ENDBRANCH  28  29
ENDBRANCH  27  28
ENDBRANCH   6  27
TORSDOF 6
ENDMDL
MODEL 4
REMARK VINA RESULT:      -8.2      3.570      9.799
REMARK  Name = 
REMARK  9 active torsions:
REMARK  status: ('A' for Active; 'I' for Inactive)
REMARK    1  A    between atoms: C_1  and  C_2
REMARK    2  A    between atoms: C_4  and  C_5
REMARK    3  A    between atoms: C_10  and  O_11
REMARK    4  A    between atoms: O_11  and  C_12
REMARK    5  A    between atoms: C_12  and  C_13
REMARK    6  A    between atoms: N_18  and  C_19
REMARK    7  A    between atoms: C_19  and  C_20
REMARK    8  A    between atoms: C_19  and  C_21
REMARK    9  A    between atoms: N_28  and  C_29
REMARK                            x       y       z     vdW  Elec       q    Type
REMARK                         _______ _______ _______ _____ _____    ______ ____
ROOT
ATOM      1  C   UNL     1      -0.723  11.179  21.700  0.00  0.00    +0.000 A 
ATOM      2  N   UNL     1      -0.155  10.095  22.178  0.00  0.00    +0.000 NA
ATOM      3  C   UNL     1       0.531   9.526  21.146  0.00  0.00    +0.000 A 
ATOM      4  C   UNL     1       1.304   8.363  21.168  0.00  0.00    +0.000 A 
ATOM      5  N   UNL     1       1.924   7.917  20.050  0.00  0.00    +0.000 NA
ATOM      6  C   UNL     1       1.796   8.617  18.906  0.00  0.00    +0.000 A 
ATOM      7  C   UNL     1       1.063   9.816  18.794  0.00  0.00    +0.000 A 
ATOM      8  C   UNL     1       0.394  10.262  19.963  0.00  0.00    +0.000 A 
ATOM      9  N   UNL     1      -0.485  11.296  20.320  0.00  0.00    +0.000 N 
ENDROOT
BRANCH   1  13
ATOM     10  C   UNL     1      -4.601  12.589  24.628  0.00  0.00    +0.000 C 
ATOM     11  C   UNL     1      -3.306  12.810  23.915  0.00  0.00    +0.000 A 
ATOM     12  C   UNL     1      -2.700  11.888  23.149  0.00  0.00    +0.000 A 
ATOM     13  C   UNL     1      -1.446  12.150  22.461  0.00  0.00    +0.000 A 
ATOM     14  C   UNL     1      -0.841  13.331  22.689  0.00  0.00    +0.000 A 
ATOM     15  N   UNL     1      -1.414  14.311  23.482  0.00  0.00    +0.000 N 
ATOM     16  C   UNL     1      -0.697  15.545  23.748  0.00  0.00    +0.000 C 
ATOM     17  C   UNL     1      -2.652  14.139  24.109  0.00  0.00    +0.000 A 
ATOM     18  O   UNL     1      -3.186  15.007  24.808  0.00  0.00    +0.000 OA
ENDBRANCH   1  13
BRANCH   9  19
ATOM     19  C   UNL     1      -1.074  12.376  19.506  0.00  0.00    +0.000 C 
ATOM     20  C   UNL     1      -0.113  13.233  18.677  0.00  0.00    +0.000 C 
BRANCH  19  21
ATOM     21  C   UNL     1      -2.261  11.930  18.656  0.00  0.00    +0.000 A 
ATOM     22  C   UNL     1      -3.595  11.946  19.081  0.00  0.00    +0.000 A 
ATOM     23  C   UNL     1      -4.618  11.557  18.209  0.00  0.00    +0.000 A 
ATOM     24  C   UNL     1      -4.276  11.129  16.942  0.00  0.00    +0.000 A 
ATOM     25  N   UNL     1      -3.008  11.066  16.496  0.00  0.00    +0.000 NA
ATOM     26  C   UNL     1      -2.038  11.465  17.359  0.00  0.00    +0.000 A 
ENDBRANCH  19  21
ENDBRANCH   9  19
BRANCH   6  27
ATOM     27  O   UNL     1       2.118   7.879  17.794  0.00  0.00    +0.000 OA
BRANCH  27  28
ATOM     28  C   UNL     1       2.938   6.728  17.986  0.00  0.00    +0.000 C 
BRANCH  28  29
ATOM     29  C   UNL     1       4.342   7.034  17.489  0.00  0.00    +0.000 C 
ATOM     30  C   UNL     1       5.457   6.017  17.624  0.00  0.00    +0.000 C 
ATOM     31  C   UNL     1       4.924   6.351  16.265  0.00  0.00    +0.000 C 
ENDBRANCH  28  29
ENDBRANCH  27  28
ENDBRANCH   6  27
TORSDOF 6
ENDMDL
MODEL 5
REMARK VINA RESULT:      -8.2      3.746      9.841
REMARK  Name = 
REMARK  9 active torsions:
REMARK  status: ('A' for Active; 'I' for Inactive)
REMARK    1  A    between atoms: C_1  and  C_2
REMARK    2  A    between atoms: C_4  and  C_5
REMARK    3  A    between atoms: C_10  and  O_11
REMARK    4  A    between atoms: O_11  and  C_12
REMARK    5  A    between atoms: C_12  and  C_13
REMARK    6  A    between atoms: N_18  and  C_19
REMARK    7  A    between atoms: C_19  and  C_20
REMARK    8  A    between atoms: C_19  and  C_21
REMARK    9  A    between atoms: N_28  and  C_29
REMARK                            x       y       z     vdW  Elec       q    Type
REMARK                         _______ _______ _______ _____ _____    ______ ____
ROOT
ATOM      1  C   UNL     1      -0.567  11.291  21.998  0.00  0.00    +0.000 A 
ATOM      2  N   UNL     1      -0.031  10.194  22.483  0.00  0.00    +0.000 NA
ATOM      3  C   UNL     1       0.597   9.573  21.444  0.00  0.00    +0.000 A 
ATOM      4  C   UNL     1       1.320   8.378  21.468  0.00  0.00    +0.000 A 
ATOM      5  N   UNL     1       1.883   7.881  20.342  0.00  0.00    +0.000 NA
ATOM      6  C   UNL     1       1.747   8.561  19.187  0.00  0.00    +0.000 A 
ATOM      7  C   UNL     1       1.064   9.787  19.070  0.00  0.00    +0.000 A 
ATOM      8  C   UNL     1       0.453  10.288  20.249  0.00  0.00    +0.000 A 
ATOM      9  N   UNL     1      -0.369  11.367  20.609  0.00  0.00    +0.000 N 
ENDROOT
BRANCH   1  13
ATOM     10  C   UNL     1      -0.933  16.013  23.777  0.00  0.00    +0.000 C 
ATOM     11  C   UNL     1      -1.412  14.611  23.578  0.00  0.00    +0.000 A 
ATOM     12  C   UNL     1      -0.724  13.666  22.916  0.00  0.00    +0.000 A 
ATOM     13  C   UNL     1      -1.222  12.309  22.759  0.00  0.00    +0.000 A 
ATOM     14  C   UNL     1      -2.459  12.037  23.219  0.00  0.00    +0.000 A 
ATOM     15  N   UNL     1      -3.216  12.978  23.895  0.00  0.00    +0.000 N 
ATOM     16  C   UNL     1      -4.566  12.658  24.320  0.00  0.00    +0.000 C 
ATOM     17  C   UNL     1      -2.757  14.277  24.137  0.00  0.00    +0.000 A 
ATOM     18  O   UNL     1      -3.411  15.125  24.751  0.00  0.00    +0.000 OA
ENDBRANCH   1  13
BRANCH   9  19
ATOM     19  C   UNL     1      -0.937  12.453  19.789  0.00  0.00    +0.000 C 
ATOM     20  C   UNL     1       0.042  13.307  18.979  0.00  0.00    +0.000 C 
BRANCH  19  21
ATOM     21  C   UNL     1      -2.113  12.018  18.917  0.00  0.00    +0.000 A 
ATOM     22  C   UNL     1      -1.992  11.455  17.641  0.00  0.00    +0.000 A 
ATOM     23  C   UNL     1      -3.132  11.047  16.938  0.00  0.00    +0.000 A 
ATOM     24  C   UNL     1      -4.369  11.246  17.518  0.00  0.00    +0.000 A 
ATOM     25  N   UNL     1      -4.540  11.811  18.728  0.00  0.00    +0.000 NA
ATOM     26  C   UNL     1      -3.415  12.181  19.392  0.00  0.00    +0.000 A 
ENDBRANCH  19  21
ENDBRANCH   9  19
BRANCH   6  27
ATOM     27  O   UNL     1       2.001   7.785  18.083  0.00  0.00    +0.000 OA
BRANCH  27  28
ATOM     28  C   UNL     1       2.806   6.622  18.269  0.00  0.00    +0.000 C 
BRANCH  28  29
ATOM     29  C   UNL     1       1.994   5.394  17.891  0.00  0.00    +0.000 C 
ATOM     30  C   UNL     1       2.662   4.051  17.678  0.00  0.00    +0.000 C 
ATOM     31  C   UNL     1       1.770   4.251  18.865  0.00  0.00    +0.000 C 
ENDBRANCH  28  29
ENDBRANCH  27  28
ENDBRANCH   6  27
TORSDOF 6
ENDMDL
MODEL 6
REMARK VINA RESULT:      -8.2      3.490      9.512
REMARK  Name = 
REMARK  9 active torsions:
REMARK  status: ('A' for Active; 'I' for Inactive)
REMARK    1  A    between atoms: C_1  and  C_2
REMARK    2  A    between atoms: C_4  and  C_5
REMARK    3  A    between atoms: C_10  and  O_11
REMARK    4  A    between atoms: O_11  and  C_12
REMARK    5  A    between atoms: C_12  and  C_13
REMARK    6  A    between atoms: N_18  and  C_19
REMARK    7  A    between atoms: C_19  and  C_20
REMARK    8  A    between atoms: C_19  and  C_21
REMARK    9  A    between atoms: N_28  and  C_29
REMARK                            x       y       z     vdW  Elec       q    Type
REMARK                         _______ _______ _______ _____ _____    ______ ____
ROOT
ATOM      1  C   UNL     1      -0.513  10.967  21.657  0.00  0.00    +0.000 A 
ATOM      2  N   UNL     1       0.039   9.910  22.208  0.00  0.00    +0.000 NA
ATOM      3  C   UNL     1       0.705   9.255  21.215  0.00  0.00    +0.000 A 
ATOM      4  C   UNL     1       1.456   8.081  21.315  0.00  0.00    +0.000 A 
ATOM      5  N   UNL     1       2.057   7.544  20.227  0.00  0.00    +0.000 NA
ATOM      6  C   UNL     1       1.931   8.162  19.037  0.00  0.00    +0.000 A 
ATOM      7  C   UNL     1       1.220   9.363  18.844  0.00  0.00    +0.000 A 
ATOM      8  C   UNL     1       0.571   9.906  19.983  0.00  0.00    +0.000 A 
ATOM      9  N   UNL     1      -0.286  10.980  20.271  0.00  0.00    +0.000 N 
ENDROOT
BRANCH   1  13
ATOM     10  C   UNL     1      -4.281  12.643  24.589  0.00  0.00    +0.000 C 
ATOM     11  C   UNL     1      -3.015  12.796  23.809  0.00  0.00    +0.000 A 
ATOM     12  C   UNL     1      -2.436  11.807  23.109  0.00  0.00    +0.000 A 
ATOM     13  C   UNL     1      -1.211  12.005  22.352  0.00  0.00    +0.000 A 
ATOM     14  C   UNL     1      -0.602  13.203  22.445  0.00  0.00    +0.000 A 
ATOM     15  N   UNL     1      -1.149  14.252  23.164  0.00  0.00    +0.000 N 
ATOM     16  C   UNL     1      -0.428  15.506  23.285  0.00  0.00    +0.000 C 
ATOM     17  C   UNL     1      -2.361  14.139  23.852  0.00  0.00    +0.000 A 
ATOM     18  O   UNL     1      -2.872  15.067  24.487  0.00  0.00    +0.000 OA
ENDBRANCH   1  13
BRANCH   9  19
ATOM     19  C   UNL     1      -0.862  12.009  19.385  0.00  0.00    +0.000 C 
ATOM     20  C   UNL     1       0.109  12.797  18.502  0.00  0.00    +0.000 C 
BRANCH  19  21
ATOM     21  C   UNL     1      -2.054  11.521  18.565  0.00  0.00    +0.000 A 
ATOM     22  C   UNL     1      -1.966  10.646  17.476  0.00  0.00    +0.000 A 
ATOM     23  C   UNL     1      -3.126  10.222  16.816  0.00  0.00    +0.000 A 
ATOM     24  C   UNL     1      -4.343  10.715  17.243  0.00  0.00    +0.000 A 
ATOM     25  N   UNL     1      -4.478  11.581  18.263  0.00  0.00    +0.000 NA
ATOM     26  C   UNL     1      -3.337  11.961  18.895  0.00  0.00    +0.000 A 
ENDBRANCH  19  21
ENDBRANCH   9  19
BRANCH   6  27
ATOM     27  O   UNL     1       2.228   7.339  17.979  0.00  0.00    +0.000 OA
BRANCH  27  28
ATOM     28  C   UNL     1       3.383   6.509  18.097  0.00  0.00    +0.000 C 
BRANCH  28  29
ATOM     29  C   UNL     1       2.938   5.076  18.338  0.00  0.00    +0.000 C 
ATOM     30  C   UNL     1       1.705   4.516  17.659  0.00  0.00    +0.000 C 
ATOM     31  C   UNL     1       3.059   4.009  17.266  0.00  0.00    +0.000 C 
ENDBRANCH  28  29
ENDBRANCH  27  28
ENDBRANCH   6  27
TORSDOF 6
ENDMDL
MODEL 7
REMARK VINA RESULT:      -8.2      3.727      9.917
REMARK  Name = 
REMARK  9 active torsions:
REMARK  status: ('A' for Active; 'I' for Inactive)
REMARK    1  A    between atoms: C_1  and  C_2
REMARK    2  A    between atoms: C_4  and  C_5
REMARK    3  A    between atoms: C_10  and  O_11
REMARK    4  A    between atoms: O_11  and  C_12
REMARK    5  A    between atoms: C_12  and  C_13
REMARK    6  A    between atoms: N_18  and  C_19
REMARK    7  A    between atoms: C_19  and  C_20
REMARK    8  A    between atoms: C_19  and  C_21
REMARK    9  A    between atoms: N_28  and  C_29
REMARK                            x       y       z     vdW  Elec       q    Type
REMARK                         _______ _______ _______ _____ _____    ______ ____
ROOT
ATOM      1  C   UNL     1      -0.854  11.204  21.874  0.00  0.00    +0.000 A 
ATOM      2  N   UNL     1      -0.238  10.155  22.369  0.00  0.00    +0.000 NA
ATOM      3  C   UNL     1       0.437   9.575  21.335  0.00  0.00    +0.000 A 
ATOM      4  C   UNL     1       1.248   8.438  21.371  0.00  0.00    +0.000 A 
ATOM      5  N   UNL     1       1.850   7.976  20.249  0.00  0.00    +0.000 NA
ATOM      6  C   UNL     1       1.666   8.634  19.088  0.00  0.00    +0.000 A 
ATOM      7  C   UNL     1       0.892   9.805  18.960  0.00  0.00    +0.000 A 
ATOM      8  C   UNL     1       0.243  10.268  20.134  0.00  0.00    +0.000 A 
ATOM      9  N   UNL     1      -0.659  11.284  20.485  0.00  0.00    +0.000 N 
ENDROOT
BRANCH   1  13
ATOM     10  C   UNL     1      -4.812  12.641  24.679  0.00  0.00    +0.000 C 
ATOM     11  C   UNL     1      -3.486  12.847  24.021  0.00  0.00    +0.000 A 
ATOM     12  C   UNL     1      -2.870  11.927  23.260  0.00  0.00    +0.000 A 
ATOM     13  C   UNL     1      -1.586  12.176  22.626  0.00  0.00    +0.000 A 
ATOM     14  C   UNL     1      -0.966  13.340  22.898  0.00  0.00    +0.000 A 
ATOM     15  N   UNL     1      -1.550  14.317  23.688  0.00  0.00    +0.000 N 
ATOM     16  C   UNL     1      -0.820  15.531  24.003  0.00  0.00    +0.000 C 
ATOM     17  C   UNL     1      -2.814  14.160  24.264  0.00  0.00    +0.000 A 
ATOM     18  O   UNL     1      -3.357  15.025  24.958  0.00  0.00    +0.000 OA
ENDBRANCH   1  13
BRANCH   9  19
ATOM     19  C   UNL     1      -1.306  12.318  19.655  0.00  0.00    +0.000 C 
ATOM     20  C   UNL     1      -0.414  13.101  18.689  0.00  0.00    +0.000 C 
BRANCH  19  21
ATOM     21  C   UNL     1      -2.570  11.837  18.945  0.00  0.00    +0.000 A 
ATOM     22  C   UNL     1      -2.582  11.035  17.797  0.00  0.00    +0.000 A 
ATOM     23  C   UNL     1      -3.797  10.611  17.246  0.00  0.00    +0.000 A 
ATOM     24  C   UNL     1      -4.971  11.031  17.838  0.00  0.00    +0.000 A 
ATOM     25  N   UNL     1      -5.013  11.827  18.923  0.00  0.00    +0.000 NA
ATOM     26  C   UNL     1      -3.819  12.208  19.445  0.00  0.00    +0.000 A 
ENDBRANCH  19  21
ENDBRANCH   9  19
BRANCH   6  27
ATOM     27  O   UNL     1       1.980   7.871  17.991  0.00  0.00    +0.000 OA
BRANCH  27  28
ATOM     28  C   UNL     1       3.362   7.635  17.730  0.00  0.00    +0.000 C 
BRANCH  28  29
ATOM     29  C   UNL     1       3.608   6.135  17.695  0.00  0.00    +0.000 C 
ATOM     30  C   UNL     1       4.780   5.554  16.931  0.00  0.00    +0.000 C 
ATOM     31  C   UNL     1       4.774   5.498  18.428  0.00  0.00    +0.000 C 
ENDBRANCH  28  29
ENDBRANCH  27  28
ENDBRANCH   6  27
TORSDOF 6
ENDMDL
MODEL 8
REMARK VINA RESULT:      -8.1      0.962      1.390
REMARK  Name = 
REMARK  9 active torsions:
REMARK  status: ('A' for Active; 'I' for Inactive)
REMARK    1  A    between atoms: C_1  and  C_2
REMARK    2  A    between atoms: C_4  and  C_5
REMARK    3  A    between atoms: C_10  and  O_11
REMARK    4  A    between atoms: O_11  and  C_12
REMARK    5  A    between atoms: C_12  and  C_13
REMARK    6  A    between atoms: N_18  and  C_19
REMARK    7  A    between atoms: C_19  and  C_20
REMARK    8  A    between atoms: C_19  and  C_21
REMARK    9  A    between atoms: N_28  and  C_29
REMARK                            x       y       z     vdW  Elec       q    Type
REMARK                         _______ _______ _______ _____ _____    ______ ____
ROOT
ATOM      1  C   UNL     1       3.653   7.191  17.938  0.00  0.00    +0.000 A 
ATOM      2  N   UNL     1       3.351   8.308  17.316  0.00  0.00    +0.000 NA
ATOM      3  C   UNL     1       2.345   8.891  18.028  0.00  0.00    +0.000 A 
ATOM      4  C   UNL     1       1.698  10.102  17.765  0.00  0.00    +0.000 A 
ATOM      5  N   UNL     1       0.704  10.549  18.568  0.00  0.00    +0.000 NA
ATOM      6  C   UNL     1       0.345   9.813  19.638  0.00  0.00    +0.000 A 
ATOM      7  C   UNL     1       0.958   8.597  20.000  0.00  0.00    +0.000 A 
ATOM      8  C   UNL     1       1.981   8.122  19.140  0.00  0.00    +0.000 A 
ATOM      9  N   UNL     1       2.791   6.981  19.027  0.00  0.00    +0.000 N 
ENDROOT
BRANCH   1  13
ATOM     10  C   UNL     1       6.047   4.017  14.808  0.00  0.00    +0.000 C 
ATOM     11  C   UNL     1       5.907   4.814  16.065  0.00  0.00    +0.000 A 
ATOM     12  C   UNL     1       4.835   5.566  16.365  0.00  0.00    +0.000 A 
ATOM     13  C   UNL     1       4.734   6.315  17.608  0.00  0.00    +0.000 A 
ATOM     14  C   UNL     1       5.802   6.315  18.429  0.00  0.00    +0.000 A 
ATOM     15  N   UNL     1       6.937   5.569  18.159  0.00  0.00    +0.000 N 
ATOM     16  C   UNL     1       8.086   5.647  19.043  0.00  0.00    +0.000 C 
ATOM     17  C   UNL     1       7.059   4.775  17.015  0.00  0.00    +0.000 A 
ATOM     18  O   UNL     1       8.057   4.091  16.766  0.00  0.00    +0.000 OA
ENDBRANCH   1  13
BRANCH   9  19
ATOM     19  C   UNL     1       2.848   5.762  19.857  0.00  0.00    +0.000 C 
ATOM     20  C   UNL     1       1.890   5.679  21.048  0.00  0.00    +0.000 C 
BRANCH  19  21
ATOM     21  C   UNL     1       2.812   4.466  19.051  0.00  0.00    +0.000 A 
ATOM     22  C   UNL     1       1.912   4.199  18.012  0.00  0.00    +0.000 A 
ATOM     23  C   UNL     1       1.989   2.994  17.304  0.00  0.00    +0.000 A 
ATOM     24  C   UNL     1       2.945   2.071  17.678  0.00  0.00    +0.000 A 
ATOM     25  N   UNL     1       3.812   2.266  18.688  0.00  0.00    +0.000 NA
ATOM     26  C   UNL     1       3.723   3.451  19.346  0.00  0.00    +0.000 A 
ENDBRANCH  19  21
ENDBRANCH   9  19
BRANCH   6  27
ATOM     27  O   UNL     1      -0.895  10.151  20.121  0.00  0.00    +0.000 OA
BRANCH  27  28
ATOM     28  C   UNL     1      -1.010  11.384  20.830  0.00  0.00    +0.000 C 
BRANCH  28  29
ATOM     29  C   UNL     1      -1.779  12.376  19.973  0.00  0.00    +0.000 C 
ATOM     30  C   UNL     1      -2.803  11.904  18.960  0.00  0.00    +0.000 C 
ATOM     31  C   UNL     1      -3.259  12.637  20.184  0.00  0.00    +0.000 C 
ENDBRANCH  28  29
ENDBRANCH  27  28
ENDBRANCH   6  27
TORSDOF 6
ENDMDL
MODEL 9
REMARK VINA RESULT:      -8.1      3.706      9.931
REMARK  Name = 
REMARK  9 active torsions:
REMARK  status: ('A' for Active; 'I' for Inactive)
REMARK    1  A    between atoms: C_1  and  C_2
REMARK    2  A    between atoms: C_4  and  C_5
REMARK    3  A    between atoms: C_10  and  O_11
REMARK    4  A    between atoms: O_11  and  C_12
REMARK    5  A    between atoms: C_12  and  C_13
REMARK    6  A    between atoms: N_18  and  C_19
REMARK    7  A    between atoms: C_19  and  C_20
REMARK    8  A    between atoms: C_19  and  C_21
REMARK    9  A    between atoms: N_28  and  C_29
REMARK                            x       y       z     vdW  Elec       q    Type
REMARK                         _______ _______ _______ _____ _____    ______ ____
ROOT
ATOM      1  C   UNL     1      -0.592  11.251  21.970  0.00  0.00    +0.000 A 
ATOM      2  N   UNL     1      -0.050  10.140  22.416  0.00  0.00    +0.000 NA
ATOM      3  C   UNL     1       0.579   9.559  21.354  0.00  0.00    +0.000 A 
ATOM      4  C   UNL     1       1.307   8.367  21.336  0.00  0.00    +0.000 A 
ATOM      5  N   UNL     1       1.871   7.913  20.192  0.00  0.00    +0.000 NA
ATOM      6  C   UNL     1       1.731   8.633  19.062  0.00  0.00    +0.000 A 
ATOM      7  C   UNL     1       1.042   9.860  18.989  0.00  0.00    +0.000 A 
ATOM      8  C   UNL     1       0.431  10.316  20.186  0.00  0.00    +0.000 A 
ATOM      9  N   UNL     1      -0.396  11.377  20.585  0.00  0.00    +0.000 N 
ENDROOT
BRANCH   1  13
ATOM     10  C   UNL     1      -0.998  15.917  23.884  0.00  0.00    +0.000 C 
ATOM     11  C   UNL     1      -1.461  14.515  23.653  0.00  0.00    +0.000 A 
ATOM     12  C   UNL     1      -0.769  13.598  22.956  0.00  0.00    +0.000 A 
ATOM     13  C   UNL     1      -1.251  12.239  22.767  0.00  0.00    +0.000 A 
ATOM     14  C   UNL     1      -2.477  11.937  23.236  0.00  0.00    +0.000 A 
ATOM     15  N   UNL     1      -3.238  12.849  23.947  0.00  0.00    +0.000 N 
ATOM     16  C   UNL     1      -4.578  12.499  24.381  0.00  0.00    +0.000 C 
ATOM     17  C   UNL     1      -2.793  14.147  24.220  0.00  0.00    +0.000 A 
ATOM     18  O   UNL     1      -3.451  14.969  24.865  0.00  0.00    +0.000 OA
ENDBRANCH   1  13
BRANCH   9  19
ATOM     19  C   UNL     1      -0.970  12.490  19.804  0.00  0.00    +0.000 C 
ATOM     20  C   UNL     1      -0.011  13.298  18.926  0.00  0.00    +0.000 C 
BRANCH  19  21
ATOM     21  C   UNL     1      -2.223  12.110  19.018  0.00  0.00    +0.000 A 
ATOM     22  C   UNL     1      -3.529  12.201  19.512  0.00  0.00    +0.000 A 
ATOM     23  C   UNL     1      -4.616  11.868  18.695  0.00  0.00    +0.000 A 
ATOM     24  C   UNL     1      -4.365  11.420  17.413  0.00  0.00    +0.000 A 
ATOM     25  N   UNL     1      -3.127  11.285  16.903  0.00  0.00    +0.000 NA
ATOM     26  C   UNL     1      -2.093  11.631  17.714  0.00  0.00    +0.000 A 
ENDBRANCH  19  21
ENDBRANCH   9  19
BRANCH   6  27
ATOM     27  O   UNL     1       1.987   7.898  17.931  0.00  0.00    +0.000 OA
BRANCH  27  28
ATOM     28  C   UNL     1       2.814   6.744  18.071  0.00  0.00    +0.000 C 
BRANCH  28  29
ATOM     29  C   UNL     1       4.224   7.089  17.619  0.00  0.00    +0.000 C 
ATOM     30  C   UNL     1       5.325   6.049  17.632  0.00  0.00    +0.000 C 
ATOM     31  C   UNL     1       4.802   6.553  16.322  0.00  0.00    +0.000 C 
ENDBRANCH  28  29
ENDBRANCH  27  28
ENDBRANCH   6  27
TORSDOF 6
ENDMDL
