MODEL 1
REMARK VINA RESULT:      -7.8      0.000      0.000
REMARK  Name = 
REMARK  9 active torsions:
REMARK  status: ('A' for Active; 'I' for Inactive)
REMARK    1  A    between atoms: C_2  and  C_3
REMARK    2  A    between atoms: C_3  and  C_4
REMARK    3  A    between atoms: C_4  and  N_5
REMARK    4  A    between atoms: N_5  and  C_6
REMARK    5  A    between atoms: C_6  and  C_7
REMARK    6  A    between atoms: C_13  and  C_15
REMARK    7  A    between atoms: C_15  and  C_16
REMARK    8  A    between atoms: C_16  and  C_17
REMARK    9  A    between atoms: C_17  and  C_19
REMARK                            x       y       z     vdW  Elec       q    Type
REMARK                         _______ _______ _______ _____ _____    ______ ____
ROOT
ATOM      1  N   UNL     1       2.002   4.518  19.418  0.00  0.00    +0.000 N 
ATOM      2  C   UNL     1       1.963   3.806  18.221  0.00  0.00    +0.000 C 
ATOM      3  O   UNL     1       1.168   2.877  18.051  0.00  0.00    +0.000 OA
ENDROOT
BRANCH   1   4
ATOM      4  C   UNL     1       1.019   4.163  20.450  0.00  0.00    +0.000 C 
BRANCH   4   5
ATOM      5  C   UNL     1       1.520   3.204  21.538  0.00  0.00    +0.000 C 
BRANCH   5   7
ATOM      6  N   UNL     1       4.046   2.159  21.025  0.00  0.00    +0.000 NA
ATOM      7  C   UNL     1       2.901   2.634  21.257  0.00  0.00    +0.000 C 
ENDBRANCH   5   7
ENDBRANCH   4   5
ENDBRANCH   1   4
BRANCH   1   8
ATOM      8  C   UNL     1       2.976   5.589  19.718  0.00  0.00    +0.000 C 
BRANCH   8   9
ATOM      9  C   UNL     1       2.518   7.011  19.432  0.00  0.00    +0.000 A 
ATOM     10  C   UNL     1       1.769   7.773  20.338  0.00  0.00    +0.000 A 
ATOM     11  C   UNL     1       1.145   8.956  19.921  0.00  0.00    +0.000 A 
ATOM     12  C   UNL     1       1.297   9.415  18.619  0.00  0.00    +0.000 A 
ATOM     13  C   UNL     1       2.138   8.737  17.746  0.00  0.00    +0.000 A 
ATOM     14  C   UNL     1       2.755   7.548  18.153  0.00  0.00    +0.000 A 
ENDBRANCH   8   9
ENDBRANCH   1   8
BRANCH   2  15
ATOM     15  C   UNL     1       2.958   4.167  17.135  0.00  0.00    +0.000 C 
BRANCH  15  16
ATOM     16  C   UNL     1       4.273   3.405  17.297  0.00  0.00    +0.000 C 
BRANCH  16  17
ATOM     17  C   UNL     1       5.358   4.054  16.459  0.00  0.00    +0.000 C 
ATOM     18  O   UNL     1       5.585   3.718  15.299  0.00  0.00    +0.000 OA
BRANCH  17  19
ATOM     19  C   UNL     1       6.211   5.111  17.079  0.00  0.00    +0.000 A 
ATOM     20  C   UNL     1       7.092   4.721  18.094  0.00  0.00    +0.000 A 
ATOM     21  C   UNL     1       7.905   5.672  18.709  0.00  0.00    +0.000 A 
ATOM     22  C   UNL     1       7.849   6.997  18.289  0.00  0.00    +0.000 A 
ATOM     23  F   UNL     1       8.624   7.904  18.884  0.00  0.00    +0.000 F 
ATOM     24  C   UNL     1       6.992   7.390  17.268  0.00  0.00    +0.000 A 
ATOM     25  C   UNL     1       6.168   6.438  16.653  0.00  0.00    +0.000 A 
ENDBRANCH  17  19
ENDBRANCH  16  17
ENDBRANCH  15  16
ENDBRANCH   2  15
TORSDOF 9
ENDMDL
MODEL 2
REMARK VINA RESULT:      -7.4      2.670      3.455
REMARK  Name = 
REMARK  9 active torsions:
REMARK  status: ('A' for Active; 'I' for Inactive)
REMARK    1  A    between atoms: C_2  and  C_3
REMARK    2  A    between atoms: C_3  and  C_4
REMARK    3  A    between atoms: C_4  and  N_5
REMARK    4  A    between atoms: N_5  and  C_6
REMARK    5  A    between atoms: C_6  and  C_7
REMARK    6  A    between atoms: C_13  and  C_15
REMARK    7  A    between atoms: C_15  and  C_16
REMARK    8  A    between atoms: C_16  and  C_17
REMARK    9  A    between atoms: C_17  and  C_19
REMARK                            x       y       z     vdW  Elec       q    Type
REMARK                         _______ _______ _______ _____ _____    ______ ____
ROOT
ATOM      1  N   UNL     1       2.968   4.874  19.060  0.00  0.00    +0.000 N 
ATOM      2  C   UNL     1       4.082   4.398  18.373  0.00  0.00    +0.000 C 
ATOM      3  O   UNL     1       4.029   3.364  17.700  0.00  0.00    +0.000 OA
ENDROOT
BRANCH   1   4
ATOM      4  C   UNL     1       1.708   4.136  18.903  0.00  0.00    +0.000 C 
BRANCH   4   5
ATOM      5  C   UNL     1       0.934   3.867  20.199  0.00  0.00    +0.000 C 
BRANCH   5   7
ATOM      6  N   UNL     1       2.432   2.552  22.139  0.00  0.00    +0.000 NA
ATOM      7  C   UNL     1       1.753   3.149  21.259  0.00  0.00    +0.000 C 
ENDBRANCH   5   7
ENDBRANCH   4   5
ENDBRANCH   1   4
BRANCH   1   8
ATOM      8  C   UNL     1       2.978   6.060  19.943  0.00  0.00    +0.000 C 
BRANCH   8   9
ATOM      9  C   UNL     1       2.253   7.291  19.422  0.00  0.00    +0.000 A 
ATOM     10  C   UNL     1       2.386   7.763  18.110  0.00  0.00    +0.000 A 
ATOM     11  C   UNL     1       1.922   9.038  17.765  0.00  0.00    +0.000 A 
ATOM     12  C   UNL     1       1.283   9.836  18.706  0.00  0.00    +0.000 A 
ATOM     13  C   UNL     1       1.032   9.333  19.976  0.00  0.00    +0.000 A 
ATOM     14  C   UNL     1       1.503   8.063  20.330  0.00  0.00    +0.000 A 
ENDBRANCH   8   9
ENDBRANCH   1   8
BRANCH   2  15
ATOM     15  C   UNL     1       5.390   5.154  18.508  0.00  0.00    +0.000 C 
BRANCH  15  16
ATOM     16  C   UNL     1       5.833   5.760  17.177  0.00  0.00    +0.000 C 
BRANCH  16  17
ATOM     17  C   UNL     1       6.934   4.918  16.561  0.00  0.00    +0.000 C 
ATOM     18  O   UNL     1       7.847   4.435  17.228  0.00  0.00    +0.000 OA
BRANCH  17  19
ATOM     19  C   UNL     1       6.933   4.701  15.084  0.00  0.00    +0.000 A 
ATOM     20  C   UNL     1       7.851   5.431  14.321  0.00  0.00    +0.000 A 
ATOM     21  C   UNL     1       7.886   5.269  12.937  0.00  0.00    +0.000 A 
ATOM     22  C   UNL     1       7.022   4.363  12.331  0.00  0.00    +0.000 A 
ATOM     23  F   UNL     1       7.055   4.215  11.006  0.00  0.00    +0.000 F 
ATOM     24  C   UNL     1       6.122   3.617  13.082  0.00  0.00    +0.000 A 
ATOM     25  C   UNL     1       6.079   3.784  14.473  0.00  0.00    +0.000 A 
ENDBRANCH  17  19
ENDBRANCH  16  17
ENDBRANCH  15  16
ENDBRANCH   2  15
TORSDOF 9
ENDMDL
MODEL 3
REMARK VINA RESULT:      -7.2      3.397      5.874
REMARK  Name = 
REMARK  9 active torsions:
REMARK  status: ('A' for Active; 'I' for Inactive)
REMARK    1  A    between atoms: C_2  and  C_3
REMARK    2  A    between atoms: C_3  and  C_4
REMARK    3  A    between atoms: C_4  and  N_5
REMARK    4  A    between atoms: N_5  and  C_6
REMARK    5  A    between atoms: C_6  and  C_7
REMARK    6  A    between atoms: C_13  and  C_15
REMARK    7  A    between atoms: C_15  and  C_16
REMARK    8  A    between atoms: C_16  and  C_17
REMARK    9  A    between atoms: C_17  and  C_19
REMARK                            x       y       z     vdW  Elec       q    Type
REMARK                         _______ _______ _______ _____ _____    ______ ____
ROOT
ATOM      1  N   UNL     1       6.017   4.721  16.586  0.00  0.00    +0.000 N 
ATOM      2  C   UNL     1       7.115   4.879  17.429  0.00  0.00    +0.000 C 
ATOM      3  O   UNL     1       8.167   4.262  17.237  0.00  0.00    +0.000 OA
ENDROOT
BRANCH   1   4
ATOM      4  C   UNL     1       6.178   3.841  15.421  0.00  0.00    +0.000 C 
BRANCH   4   5
ATOM      5  C   UNL     1       5.875   4.483  14.062  0.00  0.00    +0.000 C 
BRANCH   5   7
ATOM      6  N   UNL     1       6.191   2.745  11.913  0.00  0.00    +0.000 NA
ATOM      7  C   UNL     1       6.048   3.533  12.888  0.00  0.00    +0.000 C 
ENDBRANCH   5   7
ENDBRANCH   4   5
ENDBRANCH   1   4
BRANCH   1   8
ATOM      8  C   UNL     1       4.705   5.368  16.799  0.00  0.00    +0.000 C 
BRANCH   8   9
ATOM      9  C   UNL     1       3.661   4.541  17.534  0.00  0.00    +0.000 A 
ATOM     10  C   UNL     1       3.441   3.181  17.280  0.00  0.00    +0.000 A 
ATOM     11  C   UNL     1       2.298   2.544  17.779  0.00  0.00    +0.000 A 
ATOM     12  C   UNL     1       1.390   3.237  18.570  0.00  0.00    +0.000 A 
ATOM     13  C   UNL     1       1.660   4.550  18.934  0.00  0.00    +0.000 A 
ATOM     14  C   UNL     1       2.794   5.196  18.430  0.00  0.00    +0.000 A 
ENDBRANCH   8   9
ENDBRANCH   1   8
BRANCH   2  15
ATOM     15  C   UNL     1       6.977   5.796  18.629  0.00  0.00    +0.000 C 
BRANCH  15  16
ATOM     16  C   UNL     1       8.130   6.796  18.713  0.00  0.00    +0.000 C 
BRANCH  16  17
ATOM     17  C   UNL     1       7.837   8.002  17.841  0.00  0.00    +0.000 C 
ATOM     18  O   UNL     1       7.188   7.922  16.800  0.00  0.00    +0.000 OA
BRANCH  17  19
ATOM     19  C   UNL     1       8.394   9.330  18.238  0.00  0.00    +0.000 A 
ATOM     20  C   UNL     1       8.034  10.440  17.467  0.00  0.00    +0.000 A 
ATOM     21  C   UNL     1       8.532  11.701  17.793  0.00  0.00    +0.000 A 
ATOM     22  C   UNL     1       9.365  11.844  18.898  0.00  0.00    +0.000 A 
ATOM     23  F   UNL     1       9.844  13.051  19.203  0.00  0.00    +0.000 F 
ATOM     24  C   UNL     1       9.711  10.751  19.682  0.00  0.00    +0.000 A 
ATOM     25  C   UNL     1       9.218   9.481  19.353  0.00  0.00    +0.000 A 
ENDBRANCH  17  19
ENDBRANCH  16  17
ENDBRANCH  15  16
ENDBRANCH   2  15
TORSDOF 9
ENDMDL
MODEL 4
REMARK VINA RESULT:      -7.2      3.190      6.636
REMARK  Name = 
REMARK  9 active torsions:
REMARK  status: ('A' for Active; 'I' for Inactive)
REMARK    1  A    between atoms: C_2  and  C_3
REMARK    2  A    between atoms: C_3  and  C_4
REMARK    3  A    between atoms: C_4  and  N_5
REMARK    4  A    between atoms: N_5  and  C_6
REMARK    5  A    between atoms: C_6  and  C_7
REMARK    6  A    between atoms: C_13  and  C_15
REMARK    7  A    between atoms: C_15  and  C_16
REMARK    8  A    between atoms: C_16  and  C_17
REMARK    9  A    between atoms: C_17  and  C_19
REMARK                            x       y       z     vdW  Elec       q    Type
REMARK                         _______ _______ _______ _____ _____    ______ ____
ROOT
ATOM      1  N   UNL     1       6.127   5.414  17.057  0.00  0.00    +0.000 N 
ATOM      2  C   UNL     1       5.659   4.361  17.841  0.00  0.00    +0.000 C 
ATOM      3  O   UNL     1       6.185   4.080  18.921  0.00  0.00    +0.000 OA
ENDROOT
BRANCH   1   4
ATOM      4  C   UNL     1       7.231   6.220  17.595  0.00  0.00    +0.000 C 
BRANCH   4   5
ATOM      5  C   UNL     1       7.338   7.646  17.042  0.00  0.00    +0.000 C 
BRANCH   5   7
ATOM      6  N   UNL     1       8.757   9.378  18.692  0.00  0.00    +0.000 NA
ATOM      7  C   UNL     1       8.113   8.593  17.943  0.00  0.00    +0.000 C 
ENDBRANCH   5   7
ENDBRANCH   4   5
ENDBRANCH   1   4
BRANCH   1   8
ATOM      8  C   UNL     1       5.596   5.758  15.721  0.00  0.00    +0.000 C 
BRANCH   8   9
ATOM      9  C   UNL     1       6.231   5.037  14.542  0.00  0.00    +0.000 A 
ATOM     10  C   UNL     1       7.453   5.420  13.975  0.00  0.00    +0.000 A 
ATOM     11  C   UNL     1       7.852   4.905  12.735  0.00  0.00    +0.000 A 
ATOM     12  C   UNL     1       7.065   3.972  12.071  0.00  0.00    +0.000 A 
ATOM     13  C   UNL     1       5.912   3.489  12.679  0.00  0.00    +0.000 A 
ATOM     14  C   UNL     1       5.504   4.009  13.912  0.00  0.00    +0.000 A 
ENDBRANCH   8   9
ENDBRANCH   1   8
BRANCH   2  15
ATOM     15  C   UNL     1       4.509   3.525  17.312  0.00  0.00    +0.000 C 
BRANCH  15  16
ATOM     16  C   UNL     1       3.610   3.021  18.441  0.00  0.00    +0.000 C 
BRANCH  16  17
ATOM     17  C   UNL     1       2.265   3.719  18.386  0.00  0.00    +0.000 C 
ATOM     18  O   UNL     1       1.295   3.238  17.803  0.00  0.00    +0.000 OA
BRANCH  17  19
ATOM     19  C   UNL     1       2.123   5.060  19.027  0.00  0.00    +0.000 A 
ATOM     20  C   UNL     1       2.446   6.184  18.259  0.00  0.00    +0.000 A 
ATOM     21  C   UNL     1       2.336   7.458  18.813  0.00  0.00    +0.000 A 
ATOM     22  C   UNL     1       1.881   7.599  20.120  0.00  0.00    +0.000 A 
ATOM     23  F   UNL     1       1.783   8.820  20.650  0.00  0.00    +0.000 F 
ATOM     24  C   UNL     1       1.537   6.491  20.885  0.00  0.00    +0.000 A 
ATOM     25  C   UNL     1       1.654   5.208  20.332  0.00  0.00    +0.000 A 
ENDBRANCH  17  19
ENDBRANCH  16  17
ENDBRANCH  15  16
ENDBRANCH   2  15
TORSDOF 9
ENDMDL
MODEL 5
REMARK VINA RESULT:      -7.2      2.767      3.407
REMARK  Name = 
REMARK  9 active torsions:
REMARK  status: ('A' for Active; 'I' for Inactive)
REMARK    1  A    between atoms: C_2  and  C_3
REMARK    2  A    between atoms: C_3  and  C_4
REMARK    3  A    between atoms: C_4  and  N_5
REMARK    4  A    between atoms: N_5  and  C_6
REMARK    5  A    between atoms: C_6  and  C_7
REMARK    6  A    between atoms: C_13  and  C_15
REMARK    7  A    between atoms: C_15  and  C_16
REMARK    8  A    between atoms: C_16  and  C_17
REMARK    9  A    between atoms: C_17  and  C_19
REMARK                            x       y       z     vdW  Elec       q    Type
REMARK                         _______ _______ _______ _____ _____    ______ ____
ROOT
ATOM      1  N   UNL     1       2.688   4.609  18.773  0.00  0.00    +0.000 N 
ATOM      2  C   UNL     1       3.474   4.017  17.787  0.00  0.00    +0.000 C 
ATOM      3  O   UNL     1       3.055   3.073  17.111  0.00  0.00    +0.000 OA
ENDROOT
BRANCH   1   4
ATOM      4  C   UNL     1       1.316   4.111  18.936  0.00  0.00    +0.000 C 
BRANCH   4   5
ATOM      5  C   UNL     1       0.837   3.955  20.384  0.00  0.00    +0.000 C 
BRANCH   5   7
ATOM      6  N   UNL     1       2.621   2.566  22.004  0.00  0.00    +0.000 NA
ATOM      7  C   UNL     1       1.811   3.196  21.269  0.00  0.00    +0.000 C 
ENDBRANCH   5   7
ENDBRANCH   4   5
ENDBRANCH   1   4
BRANCH   1   8
ATOM      8  C   UNL     1       3.151   5.689  19.670  0.00  0.00    +0.000 C 
BRANCH   8   9
ATOM      9  C   UNL     1       2.552   7.066  19.426  0.00  0.00    +0.000 A 
ATOM     10  C   UNL     1       1.814   7.765  20.389  0.00  0.00    +0.000 A 
ATOM     11  C   UNL     1       1.062   8.889  20.027  0.00  0.00    +0.000 A 
ATOM     12  C   UNL     1       1.072   9.355  18.718  0.00  0.00    +0.000 A 
ATOM     13  C   UNL     1       1.897   8.748  17.780  0.00  0.00    +0.000 A 
ATOM     14  C   UNL     1       2.643   7.618  18.133  0.00  0.00    +0.000 A 
ENDBRANCH   8   9
ENDBRANCH   1   8
BRANCH   2  15
ATOM     15  C   UNL     1       4.889   4.526  17.591  0.00  0.00    +0.000 C 
BRANCH  15  16
ATOM     16  C   UNL     1       4.944   5.668  16.576  0.00  0.00    +0.000 C 
BRANCH  16  17
ATOM     17  C   UNL     1       6.304   5.703  15.906  0.00  0.00    +0.000 C 
ATOM     18  O   UNL     1       7.258   6.316  16.380  0.00  0.00    +0.000 OA
BRANCH  17  19
ATOM     19  C   UNL     1       6.481   5.003  14.599  0.00  0.00    +0.000 A 
ATOM     20  C   UNL     1       7.619   5.312  13.846  0.00  0.00    +0.000 A 
ATOM     21  C   UNL     1       7.827   4.690  12.616  0.00  0.00    +0.000 A 
ATOM     22  C   UNL     1       6.910   3.748  12.161  0.00  0.00    +0.000 A 
ATOM     23  F   UNL     1       7.109   3.160  10.981  0.00  0.00    +0.000 F 
ATOM     24  C   UNL     1       5.788   3.419  12.911  0.00  0.00    +0.000 A 
ATOM     25  C   UNL     1       5.572   4.048  14.144  0.00  0.00    +0.000 A 
ENDBRANCH  17  19
ENDBRANCH  16  17
ENDBRANCH  15  16
ENDBRANCH   2  15
TORSDOF 9
ENDMDL
MODEL 6
REMARK VINA RESULT:      -7.1      3.439      6.598
REMARK  Name = 
REMARK  9 active torsions:
REMARK  status: ('A' for Active; 'I' for Inactive)
REMARK    1  A    between atoms: C_2  and  C_3
REMARK    2  A    between atoms: C_3  and  C_4
REMARK    3  A    between atoms: C_4  and  N_5
REMARK    4  A    between atoms: N_5  and  C_6
REMARK    5  A    between atoms: C_6  and  C_7
REMARK    6  A    between atoms: C_13  and  C_15
REMARK    7  A    between atoms: C_15  and  C_16
REMARK    8  A    between atoms: C_16  and  C_17
REMARK    9  A    between atoms: C_17  and  C_19
REMARK                            x       y       z     vdW  Elec       q    Type
REMARK                         _______ _______ _______ _____ _____    ______ ____
ROOT
ATOM      1  N   UNL     1       5.997   4.957  16.081  0.00  0.00    +0.000 N 
ATOM      2  C   UNL     1       6.377   6.137  16.717  0.00  0.00    +0.000 C 
ATOM      3  O   UNL     1       7.513   6.599  16.587  0.00  0.00    +0.000 OA
ENDROOT
BRANCH   1   4
ATOM      4  C   UNL     1       6.979   4.316  15.197  0.00  0.00    +0.000 C 
BRANCH   4   5
ATOM      5  C   UNL     1       6.924   4.745  13.726  0.00  0.00    +0.000 C 
BRANCH   5   7
ATOM      6  N   UNL     1       5.731   2.864  12.060  0.00  0.00    +0.000 NA
ATOM      7  C   UNL     1       6.272   3.717  12.816  0.00  0.00    +0.000 C 
ENDBRANCH   5   7
ENDBRANCH   4   5
ENDBRANCH   1   4
BRANCH   1   8
ATOM      8  C   UNL     1       4.680   4.306  16.251  0.00  0.00    +0.000 C 
BRANCH   8   9
ATOM      9  C   UNL     1       4.549   3.358  17.433  0.00  0.00    +0.000 A 
ATOM     10  C   UNL     1       3.836   2.154  17.377  0.00  0.00    +0.000 A 
ATOM     11  C   UNL     1       3.517   1.464  18.554  0.00  0.00    +0.000 A 
ATOM     12  C   UNL     1       3.942   1.938  19.788  0.00  0.00    +0.000 A 
ATOM     13  C   UNL     1       4.757   3.062  19.849  0.00  0.00    +0.000 A 
ATOM     14  C   UNL     1       5.069   3.762  18.679  0.00  0.00    +0.000 A 
ENDBRANCH   8   9
ENDBRANCH   1   8
BRANCH   2  15
ATOM     15  C   UNL     1       5.372   6.824  17.621  0.00  0.00    +0.000 C 
BRANCH  15  16
ATOM     16  C   UNL     1       4.142   7.295  16.846  0.00  0.00    +0.000 C 
BRANCH  16  17
ATOM     17  C   UNL     1       2.991   7.549  17.801  0.00  0.00    +0.000 C 
ATOM     18  O   UNL     1       2.550   8.676  18.019  0.00  0.00    +0.000 OA
BRANCH  17  19
ATOM     19  C   UNL     1       2.397   6.393  18.536  0.00  0.00    +0.000 A 
ATOM     20  C   UNL     1       2.456   6.415  19.934  0.00  0.00    +0.000 A 
ATOM     21  C   UNL     1       1.921   5.357  20.667  0.00  0.00    +0.000 A 
ATOM     22  C   UNL     1       1.313   4.299  20.000  0.00  0.00    +0.000 A 
ATOM     23  F   UNL     1       0.808   3.285  20.704  0.00  0.00    +0.000 F 
ATOM     24  C   UNL     1       1.231   4.278  18.613  0.00  0.00    +0.000 A 
ATOM     25  C   UNL     1       1.774   5.337  17.873  0.00  0.00    +0.000 A 
ENDBRANCH  17  19
ENDBRANCH  16  17
ENDBRANCH  15  16
ENDBRANCH   2  15
TORSDOF 9
ENDMDL
MODEL 7
REMARK VINA RESULT:      -7.1      3.400      6.688
REMARK  Name = 
REMARK  9 active torsions:
REMARK  status: ('A' for Active; 'I' for Inactive)
REMARK    1  A    between atoms: C_2  and  C_3
REMARK    2  A    between atoms: C_3  and  C_4
REMARK    3  A    between atoms: C_4  and  N_5
REMARK    4  A    between atoms: N_5  and  C_6
REMARK    5  A    between atoms: C_6  and  C_7
REMARK    6  A    between atoms: C_13  and  C_15
REMARK    7  A    between atoms: C_15  and  C_16
REMARK    8  A    between atoms: C_16  and  C_17
REMARK    9  A    between atoms: C_17  and  C_19
REMARK                            x       y       z     vdW  Elec       q    Type
REMARK                         _______ _______ _______ _____ _____    ______ ____
ROOT
ATOM      1  N   UNL     1       3.617   4.329  19.255  0.00  0.00    +0.000 N 
ATOM      2  C   UNL     1       2.826   5.109  20.096  0.00  0.00    +0.000 C 
ATOM      3  O   UNL     1       2.295   4.633  21.103  0.00  0.00    +0.000 OA
ENDROOT
BRANCH   1   4
ATOM      4  C   UNL     1       3.849   2.932  19.645  0.00  0.00    +0.000 C 
BRANCH   4   5
ATOM      5  C   UNL     1       3.152   1.879  18.775  0.00  0.00    +0.000 C 
BRANCH   5   7
ATOM      6  N   UNL     1       0.406   2.261  18.546  0.00  0.00    +0.000 NA
ATOM      7  C   UNL     1       1.651   2.088  18.650  0.00  0.00    +0.000 C 
ENDBRANCH   5   7
ENDBRANCH   4   5
ENDBRANCH   1   4
BRANCH   1   8
ATOM      8  C   UNL     1       4.220   4.812  17.994  0.00  0.00    +0.000 C 
BRANCH   8   9
ATOM      9  C   UNL     1       5.448   5.698  18.135  0.00  0.00    +0.000 A 
ATOM     10  C   UNL     1       5.713   6.784  17.291  0.00  0.00    +0.000 A 
ATOM     11  C   UNL     1       6.976   7.387  17.288  0.00  0.00    +0.000 A 
ATOM     12  C   UNL     1       7.971   6.949  18.154  0.00  0.00    +0.000 A 
ATOM     13  C   UNL     1       7.684   5.957  19.084  0.00  0.00    +0.000 A 
ATOM     14  C   UNL     1       6.427   5.343  19.083  0.00  0.00    +0.000 A 
ENDBRANCH   8   9
ENDBRANCH   1   8
BRANCH   2  15
ATOM     15  C   UNL     1       2.587   6.559  19.720  0.00  0.00    +0.000 C 
BRANCH  15  16
ATOM     16  C   UNL     1       1.624   7.243  20.690  0.00  0.00    +0.000 C 
BRANCH  16  17
ATOM     17  C   UNL     1       1.224   8.604  20.153  0.00  0.00    +0.000 C 
ATOM     18  O   UNL     1       1.566   9.002  19.042  0.00  0.00    +0.000 OA
BRANCH  17  19
ATOM     19  C   UNL     1       0.419   9.512  21.023  0.00  0.00    +0.000 A 
ATOM     20  C   UNL     1       0.154   9.091  22.331  0.00  0.00    +0.000 A 
ATOM     21  C   UNL     1      -0.598   9.900  23.181  0.00  0.00    +0.000 A 
ATOM     22  C   UNL     1      -1.058  11.132  22.726  0.00  0.00    +0.000 A 
ATOM     23  F   UNL     1      -1.783  11.901  23.540  0.00  0.00    +0.000 F 
ATOM     24  C   UNL     1      -0.782  11.568  21.436  0.00  0.00    +0.000 A 
ATOM     25  C   UNL     1      -0.032  10.754  20.577  0.00  0.00    +0.000 A 
ENDBRANCH  17  19
ENDBRANCH  16  17
ENDBRANCH  15  16
ENDBRANCH   2  15
TORSDOF 9
ENDMDL
MODEL 8
REMARK VINA RESULT:      -7.0      3.244      6.581
REMARK  Name = 
REMARK  9 active torsions:
REMARK  status: ('A' for Active; 'I' for Inactive)
REMARK    1  A    between atoms: C_2  and  C_3
REMARK    2  A    between atoms: C_3  and  C_4
REMARK    3  A    between atoms: C_4  and  N_5
REMARK    4  A    between atoms: N_5  and  C_6
REMARK    5  A    between atoms: C_6  and  C_7
REMARK    6  A    between atoms: C_13  and  C_15
REMARK    7  A    between atoms: C_15  and  C_16
REMARK    8  A    between atoms: C_16  and  C_17
REMARK    9  A    between atoms: C_17  and  C_19
REMARK                            x       y       z     vdW  Elec       q    Type
REMARK                         _______ _______ _______ _____ _____    ______ ____
ROOT
ATOM      1  N   UNL     1       4.740   5.762  18.242  0.00  0.00    +0.000 N 
ATOM      2  C   UNL     1       4.085   6.584  17.327  0.00  0.00    +0.000 C 
ATOM      3  O   UNL     1       4.615   6.907  16.259  0.00  0.00    +0.000 OA
ENDROOT
BRANCH   1   4
ATOM      4  C   UNL     1       6.060   5.241  17.862  0.00  0.00    +0.000 C 
BRANCH   4   5
ATOM      5  C   UNL     1       7.259   5.951  18.503  0.00  0.00    +0.000 C 
BRANCH   5   7
ATOM      6  N   UNL     1       7.832   8.422  17.361  0.00  0.00    +0.000 NA
ATOM      7  C   UNL     1       7.572   7.301  17.879  0.00  0.00    +0.000 C 
ENDBRANCH   5   7
ENDBRANCH   4   5
ENDBRANCH   1   4
BRANCH   1   8
ATOM      8  C   UNL     1       4.200   5.398  19.569  0.00  0.00    +0.000 C 
BRANCH   8   9
ATOM      9  C   UNL     1       3.106   4.342  19.580  0.00  0.00    +0.000 A 
ATOM     10  C   UNL     1       2.904   3.434  18.533  0.00  0.00    +0.000 A 
ATOM     11  C   UNL     1       1.728   2.676  18.470  0.00  0.00    +0.000 A 
ATOM     12  C   UNL     1       0.766   2.778  19.467  0.00  0.00    +0.000 A 
ATOM     13  C   UNL     1       1.009   3.580  20.576  0.00  0.00    +0.000 A 
ATOM     14  C   UNL     1       2.177   4.348  20.639  0.00  0.00    +0.000 A 
ENDBRANCH   8   9
ENDBRANCH   1   8
BRANCH   2  15
ATOM     15  C   UNL     1       2.715   7.120  17.691  0.00  0.00    +0.000 C 
BRANCH  15  16
ATOM     16  C   UNL     1       2.778   8.582  18.133  0.00  0.00    +0.000 C 
BRANCH  16  17
ATOM     17  C   UNL     1       1.380   9.108  18.395  0.00  0.00    +0.000 C 
ATOM     18  O   UNL     1       0.607   9.408  17.488  0.00  0.00    +0.000 OA
BRANCH  17  19
ATOM     19  C   UNL     1       0.940   9.309  19.808  0.00  0.00    +0.000 A 
ATOM     20  C   UNL     1       1.491   8.473  20.784  0.00  0.00    +0.000 A 
ATOM     21  C   UNL     1       1.108   8.617  22.117  0.00  0.00    +0.000 A 
ATOM     22  C   UNL     1       0.198   9.609  22.465  0.00  0.00    +0.000 A 
ATOM     23  F   UNL     1      -0.171   9.740  23.740  0.00  0.00    +0.000 F 
ATOM     24  C   UNL     1      -0.338  10.459  21.506  0.00  0.00    +0.000 A 
ATOM     25  C   UNL     1       0.039  10.312  20.164  0.00  0.00    +0.000 A 
ENDBRANCH  17  19
ENDBRANCH  16  17
ENDBRANCH  15  16
ENDBRANCH   2  15
TORSDOF 9
ENDMDL
MODEL 9
REMARK VINA RESULT:      -7.0      3.042      6.233
REMARK  Name = 
REMARK  9 active torsions:
REMARK  status: ('A' for Active; 'I' for Inactive)
REMARK    1  A    between atoms: C_2  and  C_3
REMARK    2  A    between atoms: C_3  and  C_4
REMARK    3  A    between atoms: C_4  and  N_5
REMARK    4  A    between atoms: N_5  and  C_6
REMARK    5  A    between atoms: C_6  and  C_7
REMARK    6  A    between atoms: C_13  and  C_15
REMARK    7  A    between atoms: C_15  and  C_16
REMARK    8  A    between atoms: C_16  and  C_17
REMARK    9  A    between atoms: C_17  and  C_19
REMARK                            x       y       z     vdW  Elec       q    Type
REMARK                         _______ _______ _______ _____ _____    ______ ____
ROOT
ATOM      1  N   UNL     1       3.445   4.819  18.072  0.00  0.00    +0.000 N 
ATOM      2  C   UNL     1       2.727   5.804  18.746  0.00  0.00    +0.000 C 
ATOM      3  O   UNL     1       1.865   5.514  19.580  0.00  0.00    +0.000 OA
ENDROOT
BRANCH   1   4
ATOM      4  C   UNL     1       3.183   3.420  18.436  0.00  0.00    +0.000 C 
BRANCH   4   5
ATOM      5  C   UNL     1       4.004   2.880  19.614  0.00  0.00    +0.000 C 
BRANCH   5   7
ATOM      6  N   UNL     1       2.535   2.592  21.957  0.00  0.00    +0.000 NA
ATOM      7  C   UNL     1       3.202   2.723  20.895  0.00  0.00    +0.000 C 
ENDBRANCH   5   7
ENDBRANCH   4   5
ENDBRANCH   1   4
BRANCH   1   8
ATOM      8  C   UNL     1       4.436   5.091  17.009  0.00  0.00    +0.000 C 
BRANCH   8   9
ATOM      9  C   UNL     1       5.793   5.597  17.471  0.00  0.00    +0.000 A 
ATOM     10  C   UNL     1       6.506   5.024  18.533  0.00  0.00    +0.000 A 
ATOM     11  C   UNL     1       7.605   5.691  19.089  0.00  0.00    +0.000 A 
ATOM     12  C   UNL     1       8.033   6.905  18.568  0.00  0.00    +0.000 A 
ATOM     13  C   UNL     1       7.415   7.424  17.437  0.00  0.00    +0.000 A 
ATOM     14  C   UNL     1       6.309   6.768  16.884  0.00  0.00    +0.000 A 
ENDBRANCH   8   9
ENDBRANCH   1   8
BRANCH   2  15
ATOM     15  C   UNL     1       2.993   7.256  18.397  0.00  0.00    +0.000 C 
BRANCH  15  16
ATOM     16  C   UNL     1       1.728   7.962  17.911  0.00  0.00    +0.000 C 
BRANCH  16  17
ATOM     17  C   UNL     1       1.657   9.362  18.491  0.00  0.00    +0.000 C 
ATOM     18  O   UNL     1       2.178  10.331  17.943  0.00  0.00    +0.000 OA
BRANCH  17  19
ATOM     19  C   UNL     1       0.965   9.565  19.799  0.00  0.00    +0.000 A 
ATOM     20  C   UNL     1       0.030  10.602  19.884  0.00  0.00    +0.000 A 
ATOM     21  C   UNL     1      -0.639  10.836  21.084  0.00  0.00    +0.000 A 
ATOM     22  C   UNL     1      -0.385  10.019  22.181  0.00  0.00    +0.000 A 
ATOM     23  F   UNL     1      -1.022  10.250  23.330  0.00  0.00    +0.000 F 
ATOM     24  C   UNL     1       0.526   8.973  22.100  0.00  0.00    +0.000 A 
ATOM     25  C   UNL     1       1.205   8.739  20.897  0.00  0.00    +0.000 A 
ENDBRANCH  17  19
ENDBRANCH  16  17
ENDBRANCH  15  16
ENDBRANCH   2  15
TORSDOF 9
ENDMDL
