MODEL 1
REMARK VINA RESULT:      -7.9      0.000      0.000
REMARK  Name = 
REMARK  10 active torsions:
REMARK  status: ('A' for Active; 'I' for Inactive)
REMARK    1  A    between atoms: C_1  and  O_2
REMARK    2  A    between atoms: O_2  and  C_3
REMARK    3  A    between atoms: C_6  and  S_7
REMARK    4  A    between atoms: S_7  and  N_10
REMARK    5  A    between atoms: N_10  and  C_11
REMARK    6  A    between atoms: C_11  and  C_12
REMARK    7  A    between atoms: C_15  and  C_16
REMARK    8  A    between atoms: N_18  and  C_19
REMARK    9  A    between atoms: N_18  and  C_20
REMARK   10  A    between atoms: C_20  and  C_21
REMARK                            x       y       z     vdW  Elec       q    Type
REMARK                         _______ _______ _______ _____ _____    ______ ____
ROOT
ATOM      1  C   UNL     1       2.102   8.051  19.038  0.00  0.00    +0.000 A 
ATOM      2  C   UNL     1       2.782   8.199  17.822  0.00  0.00    +0.000 A 
ATOM      3  C   UNL     1       3.679   7.209  17.383  0.00  0.00    +0.000 A 
ATOM      4  C   UNL     1       3.930   6.063  18.155  0.00  0.00    +0.000 A 
ATOM      5  C   UNL     1       3.295   5.944  19.392  0.00  0.00    +0.000 A 
ATOM      6  C   UNL     1       2.370   6.903  19.810  0.00  0.00    +0.000 A 
ENDROOT
BRANCH   4   7
ATOM      7  C   UNL     1       4.971   5.092  17.704  0.00  0.00    +0.000 C 
ATOM      8  O   UNL     1       4.621   3.912  17.622  0.00  0.00    +0.000 OA
ATOM      9  N   UNL     1       6.267   5.501  17.370  0.00  0.00    +0.000 N 
ATOM     10  C   UNL     1       6.889   6.781  17.689  0.00  0.00    +0.000 C 
BRANCH   9  11
ATOM     11  C   UNL     1       7.152   4.515  16.748  0.00  0.00    +0.000 C 
BRANCH  11  12
ATOM     12  C   UNL     1       6.965   4.491  15.269  0.00  0.00    +0.000 A 
ATOM     13  C   UNL     1       6.157   3.748  14.431  0.00  0.00    +0.000 A 
ATOM     14  C   UNL     1       6.489   4.129  13.109  0.00  0.00    +0.000 A 
ATOM     15  C   UNL     1       7.473   5.085  13.223  0.00  0.00    +0.000 A 
ATOM     16  O   UNL     1       7.768   5.311  14.529  0.00  0.00    +0.000 OA
ENDBRANCH  11  12
ENDBRANCH   9  11
ENDBRANCH   4   7
BRANCH   1  17
ATOM     17  C   UNL     1       1.218   9.111  19.654  0.00  0.00    +0.000 C 
BRANCH  17  18
ATOM     18  N   UNL     1       0.413   9.891  18.715  0.00  0.00    +0.000 NA
ATOM     19  H   UNL     1       0.809  10.032  17.787  0.00  0.00    +0.000 HD
BRANCH  18  20
ATOM     20  S   UNL     1      -0.255  11.320  19.334  0.00  0.00    +0.000 S 
ATOM     21  O   UNL     1       0.368  12.438  18.667  0.00  0.00    +0.000 OA
ATOM     22  O   UNL     1      -0.273  11.189  20.775  0.00  0.00    +0.000 OA
BRANCH  20  26
ATOM     23  C   UNL     1      -4.602  11.112  17.937  0.00  0.00    +0.000 A 
ATOM     24  C   UNL     1      -4.215  12.019  18.927  0.00  0.00    +0.000 A 
ATOM     25  C   UNL     1      -2.886  12.088  19.344  0.00  0.00    +0.000 A 
ATOM     26  C   UNL     1      -1.945  11.215  18.789  0.00  0.00    +0.000 A 
ATOM     27  C   UNL     1      -2.325  10.287  17.814  0.00  0.00    +0.000 A 
ATOM     28  C   UNL     1      -3.658  10.238  17.391  0.00  0.00    +0.000 A 
BRANCH  23  30
ATOM     29  C   UNL     1      -6.823  10.758  18.650  0.00  0.00    +0.000 C 
ATOM     30  O   UNL     1      -5.928  11.141  17.611  0.00  0.00    +0.000 OA
ENDBRANCH  23  30
ENDBRANCH  20  26
ENDBRANCH  18  20
ENDBRANCH  17  18
ENDBRANCH   1  17
TORSDOF 8
ENDMDL
MODEL 2
REMARK VINA RESULT:      -7.8      2.874     10.624
REMARK  Name = 
REMARK  10 active torsions:
REMARK  status: ('A' for Active; 'I' for Inactive)
REMARK    1  A    between atoms: C_1  and  O_2
REMARK    2  A    between atoms: O_2  and  C_3
REMARK    3  A    between atoms: C_6  and  S_7
REMARK    4  A    between atoms: S_7  and  N_10
REMARK    5  A    between atoms: N_10  and  C_11
REMARK    6  A    between atoms: C_11  and  C_12
REMARK    7  A    between atoms: C_15  and  C_16
REMARK    8  A    between atoms: N_18  and  C_19
REMARK    9  A    between atoms: N_18  and  C_20
REMARK   10  A    between atoms: C_20  and  C_21
REMARK                            x       y       z     vdW  Elec       q    Type
REMARK                         _______ _______ _______ _____ _____    ______ ____
ROOT
ATOM      1  C   UNL     1       2.208   7.846  19.199  0.00  0.00    +0.000 A 
ATOM      2  C   UNL     1       1.881   8.620  18.077  0.00  0.00    +0.000 A 
ATOM      3  C   UNL     1       0.954   9.671  18.183  0.00  0.00    +0.000 A 
ATOM      4  C   UNL     1       0.320   9.959  19.403  0.00  0.00    +0.000 A 
ATOM      5  C   UNL     1       0.604   9.153  20.506  0.00  0.00    +0.000 A 
ATOM      6  C   UNL     1       1.558   8.137  20.414  0.00  0.00    +0.000 A 
ENDROOT
BRANCH   4   7
ATOM      7  C   UNL     1      -0.739  11.011  19.446  0.00  0.00    +0.000 C 
ATOM      8  O   UNL     1      -1.813  10.730  18.909  0.00  0.00    +0.000 OA
ATOM      9  N   UNL     1      -0.532  12.241  20.080  0.00  0.00    +0.000 N 
ATOM     10  C   UNL     1       0.748  12.808  20.490  0.00  0.00    +0.000 C 
BRANCH   9  11
ATOM     11  C   UNL     1      -1.688  13.124  20.247  0.00  0.00    +0.000 C 
BRANCH  11  12
ATOM     12  C   UNL     1      -2.381  12.853  21.538  0.00  0.00    +0.000 A 
ATOM     13  C   UNL     1      -1.992  12.229  22.708  0.00  0.00    +0.000 A 
ATOM     14  C   UNL     1      -3.128  12.213  23.553  0.00  0.00    +0.000 A 
ATOM     15  C   UNL     1      -4.135  12.834  22.850  0.00  0.00    +0.000 A 
ATOM     16  O   UNL     1      -3.692  13.225  21.627  0.00  0.00    +0.000 OA
ENDBRANCH  11  12
ENDBRANCH   9  11
ENDBRANCH   4   7
BRANCH   1  17
ATOM     17  C   UNL     1       3.093   6.620  19.160  0.00  0.00    +0.000 C 
BRANCH  17  18
ATOM     18  N   UNL     1       2.703   5.527  20.050  0.00  0.00    +0.000 NA
ATOM     19  H   UNL     1       3.027   5.590  21.014  0.00  0.00    +0.000 HD
BRANCH  18  20
ATOM     20  S   UNL     1       2.903   3.966  19.423  0.00  0.00    +0.000 S 
ATOM     21  O   UNL     1       1.753   3.655  18.608  0.00  0.00    +0.000 OA
ATOM     22  O   UNL     1       3.329   3.121  20.517  0.00  0.00    +0.000 OA
BRANCH  20  26
ATOM     23  C   UNL     1       6.482   4.503  16.632  0.00  0.00    +0.000 A 
ATOM     24  C   UNL     1       5.224   4.173  16.120  0.00  0.00    +0.000 A 
ATOM     25  C   UNL     1       4.131   4.021  16.973  0.00  0.00    +0.000 A 
ATOM     26  C   UNL     1       4.309   4.164  18.353  0.00  0.00    +0.000 A 
ATOM     27  C   UNL     1       5.570   4.471  18.878  0.00  0.00    +0.000 A 
ATOM     28  C   UNL     1       6.656   4.639  18.012  0.00  0.00    +0.000 A 
BRANCH  23  30
ATOM     29  C   UNL     1       7.030   4.868  14.366  0.00  0.00    +0.000 C 
ATOM     30  O   UNL     1       7.472   4.629  15.698  0.00  0.00    +0.000 OA
ENDBRANCH  23  30
ENDBRANCH  20  26
ENDBRANCH  18  20
ENDBRANCH  17  18
ENDBRANCH   1  17
TORSDOF 8
ENDMDL
MODEL 3
REMARK VINA RESULT:      -7.8      3.141     10.171
REMARK  Name = 
REMARK  10 active torsions:
REMARK  status: ('A' for Active; 'I' for Inactive)
REMARK    1  A    between atoms: C_1  and  O_2
REMARK    2  A    between atoms: O_2  and  C_3
REMARK    3  A    between atoms: C_6  and  S_7
REMARK    4  A    between atoms: S_7  and  N_10
REMARK    5  A    between atoms: N_10  and  C_11
REMARK    6  A    between atoms: C_11  and  C_12
REMARK    7  A    between atoms: C_15  and  C_16
REMARK    8  A    between atoms: N_18  and  C_19
REMARK    9  A    between atoms: N_18  and  C_20
REMARK   10  A    between atoms: C_20  and  C_21
REMARK                            x       y       z     vdW  Elec       q    Type
REMARK                         _______ _______ _______ _____ _____    ______ ____
ROOT
ATOM      1  C   UNL     1       2.232   7.297  19.517  0.00  0.00    +0.000 A 
ATOM      2  C   UNL     1       2.233   7.844  18.227  0.00  0.00    +0.000 A 
ATOM      3  C   UNL     1       1.558   9.049  17.965  0.00  0.00    +0.000 A 
ATOM      4  C   UNL     1       0.854   9.722  18.977  0.00  0.00    +0.000 A 
ATOM      5  C   UNL     1       0.809   9.147  20.248  0.00  0.00    +0.000 A 
ATOM      6  C   UNL     1       1.514   7.974  20.522  0.00  0.00    +0.000 A 
ENDROOT
BRANCH   4   7
ATOM      7  C   UNL     1       0.061  10.939  18.631  0.00  0.00    +0.000 C 
ATOM      8  O   UNL     1      -0.939  10.761  17.932  0.00  0.00    +0.000 OA
ATOM      9  N   UNL     1       0.421  12.210  19.094  0.00  0.00    +0.000 N 
ATOM     10  C   UNL     1       1.703  12.601  19.668  0.00  0.00    +0.000 C 
BRANCH   9  11
ATOM     11  C   UNL     1      -0.524  13.306  18.873  0.00  0.00    +0.000 C 
BRANCH  11  12
ATOM     12  C   UNL     1      -1.491  13.410  20.003  0.00  0.00    +0.000 A 
ATOM     13  C   UNL     1      -1.422  13.987  21.256  0.00  0.00    +0.000 A 
ATOM     14  C   UNL     1      -2.642  13.682  21.907  0.00  0.00    +0.000 A 
ATOM     15  C   UNL     1      -3.381  12.946  21.009  0.00  0.00    +0.000 A 
ATOM     16  O   UNL     1      -2.691  12.775  19.852  0.00  0.00    +0.000 OA
ENDBRANCH  11  12
ENDBRANCH   9  11
ENDBRANCH   4   7
BRANCH   1  17
ATOM     17  C   UNL     1       2.818   5.948  19.870  0.00  0.00    +0.000 C 
BRANCH  17  18
ATOM     18  N   UNL     1       2.541   4.868  18.924  0.00  0.00    +0.000 NA
ATOM     19  H   UNL     1       1.689   4.334  19.082  0.00  0.00    +0.000 HD
BRANCH  18  20
ATOM     20  S   UNL     1       3.853   3.859  18.561  0.00  0.00    +0.000 S 
ATOM     21  O   UNL     1       3.530   3.105  17.373  0.00  0.00    +0.000 OA
ATOM     22  O   UNL     1       4.254   3.224  19.797  0.00  0.00    +0.000 OA
BRANCH  20  26
ATOM     23  C   UNL     1       7.089   6.903  17.486  0.00  0.00    +0.000 A 
ATOM     24  C   UNL     1       5.975   6.728  16.661  0.00  0.00    +0.000 A 
ATOM     25  C   UNL     1       4.983   5.807  16.997  0.00  0.00    +0.000 A 
ATOM     26  C   UNL     1       5.129   5.029  18.150  0.00  0.00    +0.000 A 
ATOM     27  C   UNL     1       6.252   5.178  18.971  0.00  0.00    +0.000 A 
ATOM     28  C   UNL     1       7.232   6.119  18.634  0.00  0.00    +0.000 A 
BRANCH  23  30
ATOM     29  C   UNL     1       8.055   9.028  17.833  0.00  0.00    +0.000 C 
ATOM     30  O   UNL     1       7.988   7.837  17.055  0.00  0.00    +0.000 OA
ENDBRANCH  23  30
ENDBRANCH  20  26
ENDBRANCH  18  20
ENDBRANCH  17  18
ENDBRANCH   1  17
TORSDOF 8
ENDMDL
MODEL 4
REMARK VINA RESULT:      -7.7      3.148     10.352
REMARK  Name = 
REMARK  10 active torsions:
REMARK  status: ('A' for Active; 'I' for Inactive)
REMARK    1  A    between atoms: C_1  and  O_2
REMARK    2  A    between atoms: O_2  and  C_3
REMARK    3  A    between atoms: C_6  and  S_7
REMARK    4  A    between atoms: S_7  and  N_10
REMARK    5  A    between atoms: N_10  and  C_11
REMARK    6  A    between atoms: C_11  and  C_12
REMARK    7  A    between atoms: C_15  and  C_16
REMARK    8  A    between atoms: N_18  and  C_19
REMARK    9  A    between atoms: N_18  and  C_20
REMARK   10  A    between atoms: C_20  and  C_21
REMARK                            x       y       z     vdW  Elec       q    Type
REMARK                         _______ _______ _______ _____ _____    ______ ____
ROOT
ATOM      1  C   UNL     1       1.967   6.328  19.561  0.00  0.00    +0.000 A 
ATOM      2  C   UNL     1       2.169   7.436  18.728  0.00  0.00    +0.000 A 
ATOM      3  C   UNL     1       1.803   8.724  19.155  0.00  0.00    +0.000 A 
ATOM      4  C   UNL     1       1.211   8.930  20.412  0.00  0.00    +0.000 A 
ATOM      5  C   UNL     1       0.960   7.819  21.218  0.00  0.00    +0.000 A 
ATOM      6  C   UNL     1       1.363   6.545  20.815  0.00  0.00    +0.000 A 
ENDROOT
BRANCH   4   7
ATOM      7  C   UNL     1       0.737  10.298  20.781  0.00  0.00    +0.000 C 
ATOM      8  O   UNL     1       1.299  10.832  21.740  0.00  0.00    +0.000 OA
ATOM      9  N   UNL     1      -0.272  10.948  20.062  0.00  0.00    +0.000 N 
ATOM     10  C   UNL     1      -1.201  10.341  19.115  0.00  0.00    +0.000 C 
BRANCH   9  11
ATOM     11  C   UNL     1      -0.526  12.357  20.369  0.00  0.00    +0.000 C 
BRANCH  11  12
ATOM     12  C   UNL     1      -1.669  12.496  21.316  0.00  0.00    +0.000 A 
ATOM     13  C   UNL     1      -1.801  12.291  22.676  0.00  0.00    +0.000 A 
ATOM     14  C   UNL     1      -3.164  12.517  22.987  0.00  0.00    +0.000 A 
ATOM     15  C   UNL     1      -3.775  12.853  21.800  0.00  0.00    +0.000 A 
ATOM     16  O   UNL     1      -2.878  12.843  20.782  0.00  0.00    +0.000 OA
ENDBRANCH  11  12
ENDBRANCH   9  11
ENDBRANCH   4   7
BRANCH   1  17
ATOM     17  C   UNL     1       2.210   4.894  19.145  0.00  0.00    +0.000 C 
BRANCH  17  18
ATOM     18  N   UNL     1       3.198   4.162  19.937  0.00  0.00    +0.000 NA
ATOM     19  H   UNL     1       3.618   4.666  20.716  0.00  0.00    +0.000 HD
BRANCH  18  20
ATOM     20  S   UNL     1       4.357   3.304  19.048  0.00  0.00    +0.000 S 
ATOM     21  O   UNL     1       3.684   2.614  17.973  0.00  0.00    +0.000 OA
ATOM     22  O   UNL     1       5.199   2.616  20.002  0.00  0.00    +0.000 OA
BRANCH  20  26
ATOM     23  C   UNL     1       6.931   6.634  17.269  0.00  0.00    +0.000 A 
ATOM     24  C   UNL     1       7.160   6.176  18.569  0.00  0.00    +0.000 A 
ATOM     25  C   UNL     1       6.380   5.151  19.105  0.00  0.00    +0.000 A 
ATOM     26  C   UNL     1       5.340   4.609  18.346  0.00  0.00    +0.000 A 
ATOM     27  C   UNL     1       5.086   5.076  17.051  0.00  0.00    +0.000 A 
ATOM     28  C   UNL     1       5.886   6.092  16.516  0.00  0.00    +0.000 A 
BRANCH  23  30
ATOM     29  C   UNL     1       8.025   8.652  17.816  0.00  0.00    +0.000 C 
ATOM     30  O   UNL     1       7.762   7.637  16.853  0.00  0.00    +0.000 OA
ENDBRANCH  23  30
ENDBRANCH  20  26
ENDBRANCH  18  20
ENDBRANCH  17  18
ENDBRANCH   1  17
TORSDOF 8
ENDMDL
MODEL 5
REMARK VINA RESULT:      -7.7      2.592      3.643
REMARK  Name = 
REMARK  10 active torsions:
REMARK  status: ('A' for Active; 'I' for Inactive)
REMARK    1  A    between atoms: C_1  and  O_2
REMARK    2  A    between atoms: O_2  and  C_3
REMARK    3  A    between atoms: C_6  and  S_7
REMARK    4  A    between atoms: S_7  and  N_10
REMARK    5  A    between atoms: N_10  and  C_11
REMARK    6  A    between atoms: C_11  and  C_12
REMARK    7  A    between atoms: C_15  and  C_16
REMARK    8  A    between atoms: N_18  and  C_19
REMARK    9  A    between atoms: N_18  and  C_20
REMARK   10  A    between atoms: C_20  and  C_21
REMARK                            x       y       z     vdW  Elec       q    Type
REMARK                         _______ _______ _______ _____ _____    ______ ____
ROOT
ATOM      1  C   UNL     1       0.873   9.535  20.040  0.00  0.00    +0.000 A 
ATOM      2  C   UNL     1       1.188   9.674  18.682  0.00  0.00    +0.000 A 
ATOM      3  C   UNL     1       1.928   8.680  18.018  0.00  0.00    +0.000 A 
ATOM      4  C   UNL     1       2.386   7.540  18.699  0.00  0.00    +0.000 A 
ATOM      5  C   UNL     1       2.119   7.430  20.064  0.00  0.00    +0.000 A 
ATOM      6  C   UNL     1       1.346   8.393  20.716  0.00  0.00    +0.000 A 
ENDROOT
BRANCH   4   7
ATOM      7  C   UNL     1       3.261   6.564  17.983  0.00  0.00    +0.000 C 
ATOM      8  O   UNL     1       4.380   6.969  17.656  0.00  0.00    +0.000 OA
ATOM      9  N   UNL     1       2.845   5.255  17.718  0.00  0.00    +0.000 N 
ATOM     10  C   UNL     1       1.481   4.742  17.784  0.00  0.00    +0.000 C 
BRANCH   9  11
ATOM     11  C   UNL     1       3.841   4.317  17.197  0.00  0.00    +0.000 C 
BRANCH  11  12
ATOM     12  C   UNL     1       3.945   3.114  18.071  0.00  0.00    +0.000 A 
ATOM     13  C   UNL     1       3.550   1.799  17.921  0.00  0.00    +0.000 A 
ATOM     14  C   UNL     1       3.857   1.144  19.138  0.00  0.00    +0.000 A 
ATOM     15  C   UNL     1       4.427   2.098  19.951  0.00  0.00    +0.000 A 
ATOM     16  O   UNL     1       4.484   3.295  19.313  0.00  0.00    +0.000 OA
ENDBRANCH  11  12
ENDBRANCH   9  11
ENDBRANCH   4   7
BRANCH   1  17
ATOM     17  C   UNL     1       0.194  10.601  20.870  0.00  0.00    +0.000 C 
BRANCH  17  18
ATOM     18  N   UNL     1       0.024  11.900  20.220  0.00  0.00    +0.000 NA
ATOM     19  H   UNL     1       0.776  12.575  20.351  0.00  0.00    +0.000 HD
BRANCH  18  20
ATOM     20  S   UNL     1      -1.500  12.617  20.404  0.00  0.00    +0.000 S 
ATOM     21  O   UNL     1      -1.346  14.047  20.279  0.00  0.00    +0.000 OA
ATOM     22  O   UNL     1      -2.120  12.003  21.558  0.00  0.00    +0.000 OA
BRANCH  20  26
ATOM     23  C   UNL     1      -3.705  11.049  16.721  0.00  0.00    +0.000 A 
ATOM     24  C   UNL     1      -2.313  11.175  16.717  0.00  0.00    +0.000 A 
ATOM     25  C   UNL     1      -1.642  11.644  17.846  0.00  0.00    +0.000 A 
ATOM     26  C   UNL     1      -2.375  12.022  18.975  0.00  0.00    +0.000 A 
ATOM     27  C   UNL     1      -3.771  11.922  18.982  0.00  0.00    +0.000 A 
ATOM     28  C   UNL     1      -4.433  11.434  17.850  0.00  0.00    +0.000 A 
BRANCH  23  30
ATOM     29  C   UNL     1      -3.310  10.210  14.551  0.00  0.00    +0.000 C 
ATOM     30  O   UNL     1      -4.247  10.575  15.560  0.00  0.00    +0.000 OA
ENDBRANCH  23  30
ENDBRANCH  20  26
ENDBRANCH  18  20
ENDBRANCH  17  18
ENDBRANCH   1  17
TORSDOF 8
ENDMDL
MODEL 6
REMARK VINA RESULT:      -7.6      3.416      9.921
REMARK  Name = 
REMARK  10 active torsions:
REMARK  status: ('A' for Active; 'I' for Inactive)
REMARK    1  A    between atoms: C_1  and  O_2
REMARK    2  A    between atoms: O_2  and  C_3
REMARK    3  A    between atoms: C_6  and  S_7
REMARK    4  A    between atoms: S_7  and  N_10
REMARK    5  A    between atoms: N_10  and  C_11
REMARK    6  A    between atoms: C_11  and  C_12
REMARK    7  A    between atoms: C_15  and  C_16
REMARK    8  A    between atoms: N_18  and  C_19
REMARK    9  A    between atoms: N_18  and  C_20
REMARK   10  A    between atoms: C_20  and  C_21
REMARK                            x       y       z     vdW  Elec       q    Type
REMARK                         _______ _______ _______ _____ _____    ______ ____
ROOT
ATOM      1  C   UNL     1       2.238   7.290  19.465  0.00  0.00    +0.000 A 
ATOM      2  C   UNL     1       2.217   7.865  18.187  0.00  0.00    +0.000 A 
ATOM      3  C   UNL     1       1.588   9.104  17.975  0.00  0.00    +0.000 A 
ATOM      4  C   UNL     1       0.951   9.784  19.026  0.00  0.00    +0.000 A 
ATOM      5  C   UNL     1       0.925   9.185  20.286  0.00  0.00    +0.000 A 
ATOM      6  C   UNL     1       1.587   7.976  20.510  0.00  0.00    +0.000 A 
ENDROOT
BRANCH   4   7
ATOM      7  C   UNL     1       0.202  11.043  18.734  0.00  0.00    +0.000 C 
ATOM      8  O   UNL     1      -1.020  10.935  18.606  0.00  0.00    +0.000 OA
ATOM      9  N   UNL     1       0.847  12.280  18.636  0.00  0.00    +0.000 N 
ATOM     10  C   UNL     1       2.279  12.509  18.480  0.00  0.00    +0.000 C 
BRANCH   9  11
ATOM     11  C   UNL     1       0.011  13.479  18.551  0.00  0.00    +0.000 C 
BRANCH  11  12
ATOM     12  C   UNL     1       0.497  14.534  19.485  0.00  0.00    +0.000 A 
ATOM     13  C   UNL     1       0.518  14.641  20.862  0.00  0.00    +0.000 A 
ATOM     14  C   UNL     1       1.038  15.924  21.158  0.00  0.00    +0.000 A 
ATOM     15  C   UNL     1       1.309  16.515  19.945  0.00  0.00    +0.000 A 
ATOM     16  O   UNL     1       0.984  15.681  18.925  0.00  0.00    +0.000 OA
ENDBRANCH  11  12
ENDBRANCH   9  11
ENDBRANCH   4   7
BRANCH   1  17
ATOM     17  C   UNL     1       2.776   5.910  19.769  0.00  0.00    +0.000 C 
BRANCH  17  18
ATOM     18  N   UNL     1       2.084   4.800  19.114  0.00  0.00    +0.000 NA
ATOM     19  H   UNL     1       1.371   4.323  19.662  0.00  0.00    +0.000 HD
BRANCH  18  20
ATOM     20  S   UNL     1       3.077   3.704  18.288  0.00  0.00    +0.000 S 
ATOM     21  O   UNL     1       2.422   3.339  17.054  0.00  0.00    +0.000 OA
ATOM     22  O   UNL     1       3.516   2.720  19.252  0.00  0.00    +0.000 OA
BRANCH  20  26
ATOM     23  C   UNL     1       6.687   6.307  17.249  0.00  0.00    +0.000 A 
ATOM     24  C   UNL     1       5.611   6.198  16.365  0.00  0.00    +0.000 A 
ATOM     25  C   UNL     1       4.505   5.412  16.689  0.00  0.00    +0.000 A 
ATOM     26  C   UNL     1       4.496   4.701  17.893  0.00  0.00    +0.000 A 
ATOM     27  C   UNL     1       5.579   4.783  18.776  0.00  0.00    +0.000 A 
ATOM     28  C   UNL     1       6.676   5.589  18.448  0.00  0.00    +0.000 A 
BRANCH  23  30
ATOM     29  C   UNL     1       8.006   8.220  17.663  0.00  0.00    +0.000 C 
ATOM     30  O   UNL     1       7.709   7.109  16.823  0.00  0.00    +0.000 OA
ENDBRANCH  23  30
ENDBRANCH  20  26
ENDBRANCH  18  20
ENDBRANCH  17  18
ENDBRANCH   1  17
TORSDOF 8
ENDMDL
MODEL 7
REMARK VINA RESULT:      -7.6      2.988     10.619
REMARK  Name = 
REMARK  10 active torsions:
REMARK  status: ('A' for Active; 'I' for Inactive)
REMARK    1  A    between atoms: C_1  and  O_2
REMARK    2  A    between atoms: O_2  and  C_3
REMARK    3  A    between atoms: C_6  and  S_7
REMARK    4  A    between atoms: S_7  and  N_10
REMARK    5  A    between atoms: N_10  and  C_11
REMARK    6  A    between atoms: C_11  and  C_12
REMARK    7  A    between atoms: C_15  and  C_16
REMARK    8  A    between atoms: N_18  and  C_19
REMARK    9  A    between atoms: N_18  and  C_20
REMARK   10  A    between atoms: C_20  and  C_21
REMARK                            x       y       z     vdW  Elec       q    Type
REMARK                         _______ _______ _______ _____ _____    ______ ____
ROOT
ATOM      1  C   UNL     1       2.396   7.357  19.218  0.00  0.00    +0.000 A 
ATOM      2  C   UNL     1       2.193   8.150  18.080  0.00  0.00    +0.000 A 
ATOM      3  C   UNL     1       1.384   9.297  18.146  0.00  0.00    +0.000 A 
ATOM      4  C   UNL     1       0.744   9.666  19.340  0.00  0.00    +0.000 A 
ATOM      5  C   UNL     1       0.902   8.846  20.459  0.00  0.00    +0.000 A 
ATOM      6  C   UNL     1       1.741   7.731  20.408  0.00  0.00    +0.000 A 
ENDROOT
BRANCH   4   7
ATOM      7  C   UNL     1      -0.193  10.828  19.338  0.00  0.00    +0.000 C 
ATOM      8  O   UNL     1      -1.346  10.602  18.962  0.00  0.00    +0.000 OA
ATOM      9  N   UNL     1       0.207  12.100  19.763  0.00  0.00    +0.000 N 
ATOM     10  C   UNL     1       1.576  12.568  19.951  0.00  0.00    +0.000 C 
BRANCH   9  11
ATOM     11  C   UNL     1      -0.829  13.123  19.917  0.00  0.00    +0.000 C 
BRANCH  11  12
ATOM     12  C   UNL     1      -1.241  13.250  21.344  0.00  0.00    +0.000 A 
ATOM     13  C   UNL     1      -0.806  14.044  22.387  0.00  0.00    +0.000 A 
ATOM     14  C   UNL     1      -1.540  13.645  23.530  0.00  0.00    +0.000 A 
ATOM     15  C   UNL     1      -2.381  12.640  23.113  0.00  0.00    +0.000 A 
ATOM     16  O   UNL     1      -2.207  12.392  21.789  0.00  0.00    +0.000 OA
ENDBRANCH  11  12
ENDBRANCH   9  11
ENDBRANCH   4   7
BRANCH   1  17
ATOM     17  C   UNL     1       3.142   6.043  19.219  0.00  0.00    +0.000 C 
BRANCH  17  18
ATOM     18  N   UNL     1       4.585   6.132  18.997  0.00  0.00    +0.000 NA
ATOM     19  H   UNL     1       4.893   6.773  18.268  0.00  0.00    +0.000 HD
BRANCH  18  20
ATOM     20  S   UNL     1       5.406   4.651  18.917  0.00  0.00    +0.000 S 
ATOM     21  O   UNL     1       4.478   3.600  19.261  0.00  0.00    +0.000 OA
ATOM     22  O   UNL     1       6.666   4.828  19.605  0.00  0.00    +0.000 OA
BRANCH  20  26
ATOM     23  C   UNL     1       6.430   4.295  14.477  0.00  0.00    +0.000 A 
ATOM     24  C   UNL     1       7.356   4.822  15.381  0.00  0.00    +0.000 A 
ATOM     25  C   UNL     1       7.046   4.919  16.737  0.00  0.00    +0.000 A 
ATOM     26  C   UNL     1       5.782   4.519  17.184  0.00  0.00    +0.000 A 
ATOM     27  C   UNL     1       4.838   4.013  16.284  0.00  0.00    +0.000 A 
ATOM     28  C   UNL     1       5.166   3.903  14.928  0.00  0.00    +0.000 A 
BRANCH  23  30
ATOM     29  C   UNL     1       6.049   3.458  12.304  0.00  0.00    +0.000 C 
ATOM     30  O   UNL     1       6.850   4.247  13.178  0.00  0.00    +0.000 OA
ENDBRANCH  23  30
ENDBRANCH  20  26
ENDBRANCH  18  20
ENDBRANCH  17  18
ENDBRANCH   1  17
TORSDOF 8
ENDMDL
MODEL 8
REMARK VINA RESULT:      -7.6      2.971      9.595
REMARK  Name = 
REMARK  10 active torsions:
REMARK  status: ('A' for Active; 'I' for Inactive)
REMARK    1  A    between atoms: C_1  and  O_2
REMARK    2  A    between atoms: O_2  and  C_3
REMARK    3  A    between atoms: C_6  and  S_7
REMARK    4  A    between atoms: S_7  and  N_10
REMARK    5  A    between atoms: N_10  and  C_11
REMARK    6  A    between atoms: C_11  and  C_12
REMARK    7  A    between atoms: C_15  and  C_16
REMARK    8  A    between atoms: N_18  and  C_19
REMARK    9  A    between atoms: N_18  and  C_20
REMARK   10  A    between atoms: C_20  and  C_21
REMARK                            x       y       z     vdW  Elec       q    Type
REMARK                         _______ _______ _______ _____ _____    ______ ____
ROOT
ATOM      1  C   UNL     1       2.051   5.313  19.674  0.00  0.00    +0.000 A 
ATOM      2  C   UNL     1       2.092   5.768  18.349  0.00  0.00    +0.000 A 
ATOM      3  C   UNL     1       1.994   7.142  18.066  0.00  0.00    +0.000 A 
ATOM      4  C   UNL     1       1.834   8.085  19.094  0.00  0.00    +0.000 A 
ATOM      5  C   UNL     1       1.739   7.626  20.408  0.00  0.00    +0.000 A 
ATOM      6  C   UNL     1       1.880   6.267  20.696  0.00  0.00    +0.000 A 
ENDROOT
BRANCH   4   7
ATOM      7  C   UNL     1       1.624   9.521  18.741  0.00  0.00    +0.000 C 
ATOM      8  O   UNL     1       2.033   9.879  17.634  0.00  0.00    +0.000 OA
ATOM      9  N   UNL     1       0.978  10.408  19.610  0.00  0.00    +0.000 N 
ATOM     10  C   UNL     1       0.711  10.201  21.029  0.00  0.00    +0.000 C 
BRANCH   9  11
ATOM     11  C   UNL     1       0.639  11.736  19.098  0.00  0.00    +0.000 C 
BRANCH  11  12
ATOM     12  C   UNL     1      -0.836  11.887  18.947  0.00  0.00    +0.000 A 
ATOM     13  C   UNL     1      -1.800  12.543  19.688  0.00  0.00    +0.000 A 
ATOM     14  C   UNL     1      -3.044  12.251  19.079  0.00  0.00    +0.000 A 
ATOM     15  C   UNL     1      -2.762  11.443  18.002  0.00  0.00    +0.000 A 
ATOM     16  O   UNL     1      -1.426  11.216  17.914  0.00  0.00    +0.000 OA
ENDBRANCH  11  12
ENDBRANCH   9  11
ENDBRANCH   4   7
BRANCH   1  17
ATOM     17  C   UNL     1       2.022   3.855  20.072  0.00  0.00    +0.000 C 
BRANCH  17  18
ATOM     18  N   UNL     1       2.283   2.897  18.998  0.00  0.00    +0.000 NA
ATOM     19  H   UNL     1       1.597   2.154  18.876  0.00  0.00    +0.000 HD
BRANCH  18  20
ATOM     20  S   UNL     1       3.869   2.306  18.914  0.00  0.00    +0.000 S 
ATOM     21  O   UNL     1       3.888   1.189  17.998  0.00  0.00    +0.000 OA
ATOM     22  O   UNL     1       4.354   2.201  20.273  0.00  0.00    +0.000 OA
BRANCH  20  26
ATOM     23  C   UNL     1       6.155   5.779  17.019  0.00  0.00    +0.000 A 
ATOM     24  C   UNL     1       6.206   5.562  18.398  0.00  0.00    +0.000 A 
ATOM     25  C   UNL     1       5.517   4.495  18.973  0.00  0.00    +0.000 A 
ATOM     26  C   UNL     1       4.740   3.661  18.162  0.00  0.00    +0.000 A 
ATOM     27  C   UNL     1       4.663   3.882  16.783  0.00  0.00    +0.000 A 
ATOM     28  C   UNL     1       5.373   4.946  16.214  0.00  0.00    +0.000 A 
BRANCH  23  30
ATOM     29  C   UNL     1       7.650   7.521  17.563  0.00  0.00    +0.000 C 
ATOM     30  O   UNL     1       6.875   6.852  16.573  0.00  0.00    +0.000 OA
ENDBRANCH  23  30
ENDBRANCH  20  26
ENDBRANCH  18  20
ENDBRANCH  17  18
ENDBRANCH   1  17
TORSDOF 8
ENDMDL
MODEL 9
REMARK VINA RESULT:      -7.6      2.822     10.218
REMARK  Name = 
REMARK  10 active torsions:
REMARK  status: ('A' for Active; 'I' for Inactive)
REMARK    1  A    between atoms: C_1  and  O_2
REMARK    2  A    between atoms: O_2  and  C_3
REMARK    3  A    between atoms: C_6  and  S_7
REMARK    4  A    between atoms: S_7  and  N_10
REMARK    5  A    between atoms: N_10  and  C_11
REMARK    6  A    between atoms: C_11  and  C_12
REMARK    7  A    between atoms: C_15  and  C_16
REMARK    8  A    between atoms: N_18  and  C_19
REMARK    9  A    between atoms: N_18  and  C_20
REMARK   10  A    between atoms: C_20  and  C_21
REMARK                            x       y       z     vdW  Elec       q    Type
REMARK                         _______ _______ _______ _____ _____    ______ ____
ROOT
ATOM      1  C   UNL     1       2.596   7.077  19.356  0.00  0.00    +0.000 A 
ATOM      2  C   UNL     1       2.548   7.597  18.056  0.00  0.00    +0.000 A 
ATOM      3  C   UNL     1       1.777   8.738  17.774  0.00  0.00    +0.000 A 
ATOM      4  C   UNL     1       1.024   9.371  18.776  0.00  0.00    +0.000 A 
ATOM      5  C   UNL     1       1.029   8.820  20.058  0.00  0.00    +0.000 A 
ATOM      6  C   UNL     1       1.828   7.714  20.351  0.00  0.00    +0.000 A 
ENDROOT
BRANCH   4   7
ATOM      7  C   UNL     1       0.134  10.513  18.410  0.00  0.00    +0.000 C 
ATOM      8  O   UNL     1      -0.918  10.225  17.834  0.00  0.00    +0.000 OA
ATOM      9  N   UNL     1       0.464  11.836  18.724  0.00  0.00    +0.000 N 
ATOM     10  C   UNL     1       1.772  12.338  19.130  0.00  0.00    +0.000 C 
BRANCH   9  11
ATOM     11  C   UNL     1      -0.558  12.862  18.508  0.00  0.00    +0.000 C 
BRANCH  11  12
ATOM     12  C   UNL     1      -1.431  13.002  19.708  0.00  0.00    +0.000 A 
ATOM     13  C   UNL     1      -2.670  12.491  20.041  0.00  0.00    +0.000 A 
ATOM     14  C   UNL     1      -3.015  13.053  21.294  0.00  0.00    +0.000 A 
ATOM     15  C   UNL     1      -1.962  13.864  21.651  0.00  0.00    +0.000 A 
ATOM     16  O   UNL     1      -0.997  13.841  20.695  0.00  0.00    +0.000 OA
ENDBRANCH  11  12
ENDBRANCH   9  11
ENDBRANCH   4   7
BRANCH   1  17
ATOM     17  C   UNL     1       3.291   5.788  19.733  0.00  0.00    +0.000 C 
BRANCH  17  18
ATOM     18  N   UNL     1       2.569   4.558  19.405  0.00  0.00    +0.000 NA
ATOM     19  H   UNL     1       1.805   4.301  20.028  0.00  0.00    +0.000 HD
BRANCH  18  20
ATOM     20  S   UNL     1       3.538   3.223  19.018  0.00  0.00    +0.000 S 
ATOM     21  O   UNL     1       2.714   2.246  18.345  0.00  0.00    +0.000 OA
ATOM     22  O   UNL     1       4.311   2.904  20.198  0.00  0.00    +0.000 OA
BRANCH  20  26
ATOM     23  C   UNL     1       6.498   4.954  15.997  0.00  0.00    +0.000 A 
ATOM     24  C   UNL     1       6.864   4.785  17.335  0.00  0.00    +0.000 A 
ATOM     25  C   UNL     1       5.962   4.246  18.252  0.00  0.00    +0.000 A 
ATOM     26  C   UNL     1       4.672   3.909  17.832  0.00  0.00    +0.000 A 
ATOM     27  C   UNL     1       4.287   4.095  16.500  0.00  0.00    +0.000 A 
ATOM     28  C   UNL     1       5.205   4.620  15.583  0.00  0.00    +0.000 A 
BRANCH  23  30
ATOM     29  C   UNL     1       7.450   5.045  13.840  0.00  0.00    +0.000 C 
ATOM     30  O   UNL     1       7.467   5.486  15.194  0.00  0.00    +0.000 OA
ENDBRANCH  23  30
ENDBRANCH  20  26
ENDBRANCH  18  20
ENDBRANCH  17  18
ENDBRANCH   1  17
TORSDOF 8
ENDMDL
