MODEL 1
REMARK VINA RESULT:      -8.5      0.000      0.000
REMARK  Name = 
REMARK  6 active torsions:
REMARK  status: ('A' for Active; 'I' for Inactive)
REMARK    1  A    between atoms: C_1  and  O_2
REMARK    2  A    between atoms: O_2  and  C_3
REMARK    3  A    between atoms: C_6  and  C_7
REMARK    4  A    between atoms: C_9  and  C_10
REMARK    5  A    between atoms: C_10  and  S_11
REMARK    6  A    between atoms: S_11  and  C_12
REMARK                            x       y       z     vdW  Elec       q    Type
REMARK                         _______ _______ _______ _____ _____    ______ ____
ROOT
ATOM      1  C   UNL     1       3.742   5.566  18.763  0.00  0.00    +0.000 A 
ATOM      2  N   UNL     1       3.174   6.792  18.922  0.00  0.00    +0.000 NA
ATOM      3  C   UNL     1       2.196   6.975  19.835  0.00  0.00    +0.000 A 
ATOM      4  N   UNL     1       1.757   6.034  20.686  0.00  0.00    +0.000 NA
ATOM      5  C   UNL     1       2.356   4.824  20.574  0.00  0.00    +0.000 A 
ATOM      6  C   UNL     1       2.049   3.685  21.381  0.00  0.00    +0.000 A 
ATOM      7  C   UNL     1       2.801   2.583  21.062  0.00  0.00    +0.000 A 
ATOM      8  S   UNL     1       3.914   2.924  19.823  0.00  0.00    +0.000 S 
ATOM      9  C   UNL     1       3.351   4.550  19.636  0.00  0.00    +0.000 A 
ENDROOT
BRANCH   1  13
ATOM     10  C   UNL     1       6.606   5.310  15.653  0.00  0.00    +0.000 A 
ATOM     11  C   UNL     1       5.563   4.400  15.646  0.00  0.00    +0.000 A 
ATOM     12  C   UNL     1       4.634   4.451  16.689  0.00  0.00    +0.000 A 
ATOM     13  C   UNL     1       4.740   5.427  17.692  0.00  0.00    +0.000 A 
ATOM     14  C   UNL     1       5.862   6.251  17.608  0.00  0.00    +0.000 A 
ATOM     15  N   UNL     1       6.776   6.233  16.614  0.00  0.00    +0.000 NA
BRANCH  10  17
ATOM     16  C   UNL     1       6.959   4.585  13.485  0.00  0.00    +0.000 C 
ATOM     17  O   UNL     1       7.514   5.253  14.618  0.00  0.00    +0.000 OA
ENDBRANCH  10  17
ENDBRANCH   1  13
BRANCH   3  18
ATOM     18  C   UNL     1       1.583   8.363  19.969  0.00  0.00    +0.000 C 
BRANCH  18  19
ATOM     19  S   UNL     1       1.527   9.274  18.378  0.00  0.00    +0.000 S 
BRANCH  19  20
ATOM     20  C   UNL     1       0.008  10.237  18.391  0.00  0.00    +0.000 A 
ATOM     21  C   UNL     1      -1.113   9.913  17.613  0.00  0.00    +0.000 A 
ATOM     22  C   UNL     1      -2.260  10.714  17.645  0.00  0.00    +0.000 A 
ATOM     23 CL   UNL     1      -3.621  10.298  16.674  0.00  0.00    +0.000 Cl
ATOM     24  C   UNL     1      -2.322  11.851  18.448  0.00  0.00    +0.000 A 
ATOM     25  C   UNL     1      -1.222  12.189  19.229  0.00  0.00    +0.000 A 
ATOM     26  C   UNL     1      -0.069  11.395  19.205  0.00  0.00    +0.000 A 
ATOM     27 CL   UNL     1       1.237  11.920  20.222  0.00  0.00    +0.000 Cl
ENDBRANCH  19  20
ENDBRANCH  18  19
ENDBRANCH   3  18
TORSDOF 5
ENDMDL
MODEL 2
REMARK VINA RESULT:      -8.3      1.160      1.333
REMARK  Name = 
REMARK  6 active torsions:
REMARK  status: ('A' for Active; 'I' for Inactive)
REMARK    1  A    between atoms: C_1  and  O_2
REMARK    2  A    between atoms: O_2  and  C_3
REMARK    3  A    between atoms: C_6  and  C_7
REMARK    4  A    between atoms: C_9  and  C_10
REMARK    5  A    between atoms: C_10  and  S_11
REMARK    6  A    between atoms: S_11  and  C_12
REMARK                            x       y       z     vdW  Elec       q    Type
REMARK                         _______ _______ _______ _____ _____    ______ ____
ROOT
ATOM      1  C   UNL     1       3.968   6.297  17.837  0.00  0.00    +0.000 A 
ATOM      2  N   UNL     1       3.452   7.544  17.657  0.00  0.00    +0.000 NA
ATOM      3  C   UNL     1       2.413   7.965  18.411  0.00  0.00    +0.000 A 
ATOM      4  N   UNL     1       1.859   7.263  19.412  0.00  0.00    +0.000 NA
ATOM      5  C   UNL     1       2.403   6.043  19.637  0.00  0.00    +0.000 A 
ATOM      6  C   UNL     1       1.974   5.134  20.653  0.00  0.00    +0.000 A 
ATOM      7  C   UNL     1       2.692   3.965  20.666  0.00  0.00    +0.000 A 
ATOM      8  S   UNL     1       3.918   3.973  19.489  0.00  0.00    +0.000 S 
ATOM      9  C   UNL     1       3.455   5.526  18.881  0.00  0.00    +0.000 A 
ENDROOT
BRANCH   1  13
ATOM     10  C   UNL     1       7.080   5.240  15.168  0.00  0.00    +0.000 A 
ATOM     11  C   UNL     1       5.888   4.543  15.076  0.00  0.00    +0.000 A 
ATOM     12  C   UNL     1       4.867   4.859  15.978  0.00  0.00    +0.000 A 
ATOM     13  C   UNL     1       5.041   5.881  16.923  0.00  0.00    +0.000 A 
ATOM     14  C   UNL     1       6.305   6.470  16.941  0.00  0.00    +0.000 A 
ATOM     15  N   UNL     1       7.311   6.196  16.083  0.00  0.00    +0.000 NA
BRANCH  10  17
ATOM     16  C   UNL     1       7.617   5.052  12.926  0.00  0.00    +0.000 C 
ATOM     17  O   UNL     1       8.078   4.924  14.271  0.00  0.00    +0.000 OA
ENDBRANCH  10  17
ENDBRANCH   1  13
BRANCH   3  18
ATOM     18  C   UNL     1       1.862   9.364  18.165  0.00  0.00    +0.000 C 
BRANCH  18  19
ATOM     19  S   UNL     1       0.789   9.957  19.529  0.00  0.00    +0.000 S 
BRANCH  19  20
ATOM     20  C   UNL     1      -0.759  10.478  18.773  0.00  0.00    +0.000 A 
ATOM     21  C   UNL     1      -1.206  10.000  17.533  0.00  0.00    +0.000 A 
ATOM     22  C   UNL     1      -2.407  10.460  16.981  0.00  0.00    +0.000 A 
ATOM     23 CL   UNL     1      -2.931   9.863  15.453  0.00  0.00    +0.000 Cl
ATOM     24  C   UNL     1      -3.190  11.402  17.645  0.00  0.00    +0.000 A 
ATOM     25  C   UNL     1      -2.766  11.887  18.878  0.00  0.00    +0.000 A 
ATOM     26  C   UNL     1      -1.565  11.434  19.440  0.00  0.00    +0.000 A 
ATOM     27 CL   UNL     1      -1.143  12.113  20.980  0.00  0.00    +0.000 Cl
ENDBRANCH  19  20
ENDBRANCH  18  19
ENDBRANCH   3  18
TORSDOF 5
ENDMDL
MODEL 3
REMARK VINA RESULT:      -8.2      1.416      2.319
REMARK  Name = 
REMARK  6 active torsions:
REMARK  status: ('A' for Active; 'I' for Inactive)
REMARK    1  A    between atoms: C_1  and  O_2
REMARK    2  A    between atoms: O_2  and  C_3
REMARK    3  A    between atoms: C_6  and  C_7
REMARK    4  A    between atoms: C_9  and  C_10
REMARK    5  A    between atoms: C_10  and  S_11
REMARK    6  A    between atoms: S_11  and  C_12
REMARK                            x       y       z     vdW  Elec       q    Type
REMARK                         _______ _______ _______ _____ _____    ______ ____
ROOT
ATOM      1  C   UNL     1       3.812   5.632  18.596  0.00  0.00    +0.000 A 
ATOM      2  N   UNL     1       3.242   6.862  18.712  0.00  0.00    +0.000 NA
ATOM      3  C   UNL     1       2.260   7.075  19.615  0.00  0.00    +0.000 A 
ATOM      4  N   UNL     1       1.820   6.162  20.496  0.00  0.00    +0.000 NA
ATOM      5  C   UNL     1       2.420   4.950  20.426  0.00  0.00    +0.000 A 
ATOM      6  C   UNL     1       2.112   3.838  21.271  0.00  0.00    +0.000 A 
ATOM      7  C   UNL     1       2.867   2.727  20.991  0.00  0.00    +0.000 A 
ATOM      8  S   UNL     1       3.984   3.028  19.745  0.00  0.00    +0.000 S 
ATOM      9  C   UNL     1       3.419   4.645  19.501  0.00  0.00    +0.000 A 
ENDROOT
BRANCH   1  13
ATOM     10  C   UNL     1       6.691   5.277  15.511  0.00  0.00    +0.000 A 
ATOM     11  C   UNL     1       5.618   4.403  15.496  0.00  0.00    +0.000 A 
ATOM     12  C   UNL     1       4.682   4.487  16.530  0.00  0.00    +0.000 A 
ATOM     13  C   UNL     1       4.813   5.459  17.534  0.00  0.00    +0.000 A 
ATOM     14  C   UNL     1       5.964   6.243  17.460  0.00  0.00    +0.000 A 
ATOM     15  N   UNL     1       6.885   6.195  16.474  0.00  0.00    +0.000 NA
BRANCH  10  17
ATOM     16  C   UNL     1       7.049   4.507  13.360  0.00  0.00    +0.000 C 
ATOM     17  O   UNL     1       7.606   5.189  14.484  0.00  0.00    +0.000 OA
ENDBRANCH  10  17
ENDBRANCH   1  13
BRANCH   3  18
ATOM     18  C   UNL     1       1.644   8.466  19.700  0.00  0.00    +0.000 C 
BRANCH  18  19
ATOM     19  S   UNL     1       1.527   9.294  18.068  0.00  0.00    +0.000 S 
BRANCH  19  20
ATOM     20  C   UNL     1       1.369  11.056  18.397  0.00  0.00    +0.000 A 
ATOM     21  C   UNL     1       2.408  11.972  18.185  0.00  0.00    +0.000 A 
ATOM     22  C   UNL     1       2.236  13.329  18.484  0.00  0.00    +0.000 A 
ATOM     23 CL   UNL     1       3.531  14.434  18.221  0.00  0.00    +0.000 Cl
ATOM     24  C   UNL     1       1.032  13.806  18.997  0.00  0.00    +0.000 A 
ATOM     25  C   UNL     1      -0.013  12.913  19.212  0.00  0.00    +0.000 A 
ATOM     26  C   UNL     1       0.148  11.554  18.918  0.00  0.00    +0.000 A 
ATOM     27 CL   UNL     1      -1.226  10.540  19.230  0.00  0.00    +0.000 Cl
ENDBRANCH  19  20
ENDBRANCH  18  19
ENDBRANCH   3  18
TORSDOF 5
ENDMDL
MODEL 4
REMARK VINA RESULT:      -8.1      1.766      2.049
REMARK  Name = 
REMARK  6 active torsions:
REMARK  status: ('A' for Active; 'I' for Inactive)
REMARK    1  A    between atoms: C_1  and  O_2
REMARK    2  A    between atoms: O_2  and  C_3
REMARK    3  A    between atoms: C_6  and  C_7
REMARK    4  A    between atoms: C_9  and  C_10
REMARK    5  A    between atoms: C_10  and  S_11
REMARK    6  A    between atoms: S_11  and  C_12
REMARK                            x       y       z     vdW  Elec       q    Type
REMARK                         _______ _______ _______ _____ _____    ______ ____
ROOT
ATOM      1  C   UNL     1       4.047   5.583  18.268  0.00  0.00    +0.000 A 
ATOM      2  N   UNL     1       3.437   6.795  18.366  0.00  0.00    +0.000 NA
ATOM      3  C   UNL     1       2.444   6.987  19.262  0.00  0.00    +0.000 A 
ATOM      4  N   UNL     1       2.030   6.072  20.153  0.00  0.00    +0.000 NA
ATOM      5  C   UNL     1       2.670   4.879  20.102  0.00  0.00    +0.000 A 
ATOM      6  C   UNL     1       2.394   3.769  20.959  0.00  0.00    +0.000 A 
ATOM      7  C   UNL     1       3.185   2.679  20.696  0.00  0.00    +0.000 A 
ATOM      8  S   UNL     1       4.298   3.001  19.452  0.00  0.00    +0.000 S 
ATOM      9  C   UNL     1       3.682   4.596  19.185  0.00  0.00    +0.000 A 
ENDROOT
BRANCH   1  13
ATOM     10  C   UNL     1       6.966   5.284  15.215  0.00  0.00    +0.000 A 
ATOM     11  C   UNL     1       5.834   4.496  15.104  0.00  0.00    +0.000 A 
ATOM     12  C   UNL     1       4.882   4.559  16.126  0.00  0.00    +0.000 A 
ATOM     13  C   UNL     1       5.058   5.428  17.213  0.00  0.00    +0.000 A 
ATOM     14  C   UNL     1       6.263   6.130  17.227  0.00  0.00    +0.000 A 
ATOM     15  N   UNL     1       7.202   6.099  16.257  0.00  0.00    +0.000 NA
BRANCH  10  17
ATOM     16  C   UNL     1       7.293   4.784  12.980  0.00  0.00    +0.000 C 
ATOM     17  O   UNL     1       7.896   5.218  14.200  0.00  0.00    +0.000 OA
ENDBRANCH  10  17
ENDBRANCH   1  13
BRANCH   3  18
ATOM     18  C   UNL     1       1.784   8.359  19.327  0.00  0.00    +0.000 C 
BRANCH  18  19
ATOM     19  S   UNL     1       1.025   8.707  20.961  0.00  0.00    +0.000 S 
BRANCH  19  20
ATOM     20  C   UNL     1       0.355  10.375  20.869  0.00  0.00    +0.000 A 
ATOM     21  C   UNL     1       0.547  11.219  19.765  0.00  0.00    +0.000 A 
ATOM     22  C   UNL     1       0.023  12.517  19.760  0.00  0.00    +0.000 A 
ATOM     23 CL   UNL     1       0.279  13.536  18.395  0.00  0.00    +0.000 Cl
ATOM     24  C   UNL     1      -0.700  13.005  20.845  0.00  0.00    +0.000 A 
ATOM     25  C   UNL     1      -0.904  12.183  21.948  0.00  0.00    +0.000 A 
ATOM     26  C   UNL     1      -0.385  10.883  21.965  0.00  0.00    +0.000 A 
ATOM     27 CL   UNL     1      -0.704   9.955  23.397  0.00  0.00    +0.000 Cl
ENDBRANCH  19  20
ENDBRANCH  18  19
ENDBRANCH   3  18
TORSDOF 5
ENDMDL
MODEL 5
REMARK VINA RESULT:      -8.0      1.266      2.246
REMARK  Name = 
REMARK  6 active torsions:
REMARK  status: ('A' for Active; 'I' for Inactive)
REMARK    1  A    between atoms: C_1  and  O_2
REMARK    2  A    between atoms: O_2  and  C_3
REMARK    3  A    between atoms: C_6  and  C_7
REMARK    4  A    between atoms: C_9  and  C_10
REMARK    5  A    between atoms: C_10  and  S_11
REMARK    6  A    between atoms: S_11  and  C_12
REMARK                            x       y       z     vdW  Elec       q    Type
REMARK                         _______ _______ _______ _____ _____    ______ ____
ROOT
ATOM      1  C   UNL     1       3.515   5.409  19.089  0.00  0.00    +0.000 A 
ATOM      2  N   UNL     1       3.090   6.658  19.422  0.00  0.00    +0.000 NA
ATOM      3  C   UNL     1       2.039   6.819  20.255  0.00  0.00    +0.000 A 
ATOM      4  N   UNL     1       1.387   5.817  20.867  0.00  0.00    +0.000 NA
ATOM      5  C   UNL     1       1.839   4.572  20.585  0.00  0.00    +0.000 A 
ATOM      6  C   UNL     1       1.296   3.366  21.129  0.00  0.00    +0.000 A 
ATOM      7  C   UNL     1       1.938   2.239  20.680  0.00  0.00    +0.000 A 
ATOM      8  S   UNL     1       3.226   2.626  19.642  0.00  0.00    +0.000 S 
ATOM      9  C   UNL     1       2.897   4.324  19.712  0.00  0.00    +0.000 A 
ENDROOT
BRANCH   1  13
ATOM     10  C   UNL     1       6.624   5.005  16.242  0.00  0.00    +0.000 A 
ATOM     11  C   UNL     1       6.960   5.465  17.502  0.00  0.00    +0.000 A 
ATOM     12  C   UNL     1       5.936   5.638  18.438  0.00  0.00    +0.000 A 
ATOM     13  C   UNL     1       4.610   5.316  18.112  0.00  0.00    +0.000 A 
ATOM     14  C   UNL     1       4.400   4.908  16.795  0.00  0.00    +0.000 A 
ATOM     15  N   UNL     1       5.364   4.724  15.867  0.00  0.00    +0.000 NA
BRANCH  10  17
ATOM     16  C   UNL     1       7.134   4.815  13.994  0.00  0.00    +0.000 C 
ATOM     17  O   UNL     1       7.642   4.833  15.328  0.00  0.00    +0.000 OA
ENDBRANCH  10  17
ENDBRANCH   1  13
BRANCH   3  18
ATOM     18  C   UNL     1       1.593   8.237  20.591  0.00  0.00    +0.000 C 
BRANCH  18  19
ATOM     19  S   UNL     1       1.187   9.226  19.100  0.00  0.00    +0.000 S 
BRANCH  19  20
ATOM     20  C   UNL     1      -0.047  10.433  19.608  0.00  0.00    +0.000 A 
ATOM     21  C   UNL     1       0.024  11.142  20.815  0.00  0.00    +0.000 A 
ATOM     22  C   UNL     1      -0.979  12.051  21.170  0.00  0.00    +0.000 A 
ATOM     23 CL   UNL     1      -0.872  12.904  22.663  0.00  0.00    +0.000 Cl
ATOM     24  C   UNL     1      -2.073  12.277  20.337  0.00  0.00    +0.000 A 
ATOM     25  C   UNL     1      -2.161  11.586  19.134  0.00  0.00    +0.000 A 
ATOM     26  C   UNL     1      -1.163  10.674  18.768  0.00  0.00    +0.000 A 
ATOM     27 CL   UNL     1      -1.386   9.873  17.244  0.00  0.00    +0.000 Cl
ENDBRANCH  19  20
ENDBRANCH  18  19
ENDBRANCH   3  18
TORSDOF 5
ENDMDL
MODEL 6
REMARK VINA RESULT:      -7.9      1.186      1.357
REMARK  Name = 
REMARK  6 active torsions:
REMARK  status: ('A' for Active; 'I' for Inactive)
REMARK    1  A    between atoms: C_1  and  O_2
REMARK    2  A    between atoms: O_2  and  C_3
REMARK    3  A    between atoms: C_6  and  C_7
REMARK    4  A    between atoms: C_9  and  C_10
REMARK    5  A    between atoms: C_10  and  S_11
REMARK    6  A    between atoms: S_11  and  C_12
REMARK                            x       y       z     vdW  Elec       q    Type
REMARK                         _______ _______ _______ _____ _____    ______ ____
ROOT
ATOM      1  C   UNL     1       3.515   5.680  18.657  0.00  0.00    +0.000 A 
ATOM      2  N   UNL     1       2.980   6.917  18.843  0.00  0.00    +0.000 NA
ATOM      3  C   UNL     1       2.080   7.128  19.828  0.00  0.00    +0.000 A 
ATOM      4  N   UNL     1       1.696   6.206  20.724  0.00  0.00    +0.000 NA
ATOM      5  C   UNL     1       2.266   4.985  20.583  0.00  0.00    +0.000 A 
ATOM      6  C   UNL     1       2.007   3.862  21.429  0.00  0.00    +0.000 A 
ATOM      7  C   UNL     1       2.715   2.744  21.067  0.00  0.00    +0.000 A 
ATOM      8  S   UNL     1       3.732   3.051  19.740  0.00  0.00    +0.000 S 
ATOM      9  C   UNL     1       3.179   4.682  19.573  0.00  0.00    +0.000 A 
ENDROOT
BRANCH   1  13
ATOM     10  C   UNL     1       6.075   5.315  15.304  0.00  0.00    +0.000 A 
ATOM     11  C   UNL     1       5.355   4.199  15.689  0.00  0.00    +0.000 A 
ATOM     12  C   UNL     1       4.536   4.297  16.818  0.00  0.00    +0.000 A 
ATOM     13  C   UNL     1       4.424   5.511  17.513  0.00  0.00    +0.000 A 
ATOM     14  C   UNL     1       5.239   6.543  17.050  0.00  0.00    +0.000 A 
ATOM     15  N   UNL     1       6.036   6.486  15.962  0.00  0.00    +0.000 NA
BRANCH  10  17
ATOM     16  C   UNL     1       6.472   4.108  13.371  0.00  0.00    +0.000 C 
ATOM     17  O   UNL     1       6.876   5.208  14.187  0.00  0.00    +0.000 OA
ENDBRANCH  10  17
ENDBRANCH   1  13
BRANCH   3  18
ATOM     18  C   UNL     1       1.500   8.528  19.989  0.00  0.00    +0.000 C 
BRANCH  18  19
ATOM     19  S   UNL     1       1.398   9.444  18.403  0.00  0.00    +0.000 S 
BRANCH  19  20
ATOM     20  C   UNL     1       0.514  10.972  18.750  0.00  0.00    +0.000 A 
ATOM     21  C   UNL     1      -0.820  11.006  19.181  0.00  0.00    +0.000 A 
ATOM     22  C   UNL     1      -1.466  12.227  19.411  0.00  0.00    +0.000 A 
ATOM     23 CL   UNL     1      -3.107  12.241  19.933  0.00  0.00    +0.000 Cl
ATOM     24  C   UNL     1      -0.804  13.437  19.221  0.00  0.00    +0.000 A 
ATOM     25  C   UNL     1       0.520  13.426  18.796  0.00  0.00    +0.000 A 
ATOM     26  C   UNL     1       1.176  12.211  18.562  0.00  0.00    +0.000 A 
ATOM     27 CL   UNL     1       2.826  12.327  18.035  0.00  0.00    +0.000 Cl
ENDBRANCH  19  20
ENDBRANCH  18  19
ENDBRANCH   3  18
TORSDOF 5
ENDMDL
MODEL 7
REMARK VINA RESULT:      -7.9      1.237      1.281
REMARK  Name = 
REMARK  6 active torsions:
REMARK  status: ('A' for Active; 'I' for Inactive)
REMARK    1  A    between atoms: C_1  and  O_2
REMARK    2  A    between atoms: O_2  and  C_3
REMARK    3  A    between atoms: C_6  and  C_7
REMARK    4  A    between atoms: C_9  and  C_10
REMARK    5  A    between atoms: C_10  and  S_11
REMARK    6  A    between atoms: S_11  and  C_12
REMARK                            x       y       z     vdW  Elec       q    Type
REMARK                         _______ _______ _______ _____ _____    ______ ____
ROOT
ATOM      1  C   UNL     1       3.696   5.685  18.547  0.00  0.00    +0.000 A 
ATOM      2  N   UNL     1       3.210   6.946  18.706  0.00  0.00    +0.000 NA
ATOM      3  C   UNL     1       2.295   7.207  19.665  0.00  0.00    +0.000 A 
ATOM      4  N   UNL     1       1.848   6.312  20.560  0.00  0.00    +0.000 NA
ATOM      5  C   UNL     1       2.367   5.066  20.446  0.00  0.00    +0.000 A 
ATOM      6  C   UNL     1       2.038   3.964  21.295  0.00  0.00    +0.000 A 
ATOM      7  C   UNL     1       2.705   2.812  20.963  0.00  0.00    +0.000 A 
ATOM      8  S   UNL     1       3.768   3.061  19.660  0.00  0.00    +0.000 S 
ATOM      9  C   UNL     1       3.292   4.713  19.464  0.00  0.00    +0.000 A 
ENDROOT
BRANCH   1  13
ATOM     10  C   UNL     1       6.358   5.190  15.292  0.00  0.00    +0.000 A 
ATOM     11  C   UNL     1       5.328   4.276  15.427  0.00  0.00    +0.000 A 
ATOM     12  C   UNL     1       4.466   4.408  16.519  0.00  0.00    +0.000 A 
ATOM     13  C   UNL     1       4.625   5.464  17.429  0.00  0.00    +0.000 A 
ATOM     14  C   UNL     1       5.730   6.285  17.206  0.00  0.00    +0.000 A 
ATOM     15  N   UNL     1       6.579   6.191  16.160  0.00  0.00    +0.000 NA
BRANCH  10  17
ATOM     16  C   UNL     1       6.727   4.043  13.317  0.00  0.00    +0.000 C 
ATOM     17  O   UNL     1       7.199   5.054  14.208  0.00  0.00    +0.000 OA
ENDBRANCH  10  17
ENDBRANCH   1  13
BRANCH   3  18
ATOM     18  C   UNL     1       1.773   8.632  19.798  0.00  0.00    +0.000 C 
BRANCH  18  19
ATOM     19  S   UNL     1       0.374   8.771  20.977  0.00  0.00    +0.000 S 
BRANCH  19  20
ATOM     20  C   UNL     1      -0.662  10.118  20.385  0.00  0.00    +0.000 A 
ATOM     21  C   UNL     1      -1.055  10.253  19.046  0.00  0.00    +0.000 A 
ATOM     22  C   UNL     1      -1.841  11.337  18.638  0.00  0.00    +0.000 A 
ATOM     23 CL   UNL     1      -2.304  11.484  16.986  0.00  0.00    +0.000 Cl
ATOM     24  C   UNL     1      -2.255  12.308  19.547  0.00  0.00    +0.000 A 
ATOM     25  C   UNL     1      -1.878  12.192  20.881  0.00  0.00    +0.000 A 
ATOM     26  C   UNL     1      -1.091  11.112  21.300  0.00  0.00    +0.000 A 
ATOM     27 CL   UNL     1      -0.686  11.077  22.988  0.00  0.00    +0.000 Cl
ENDBRANCH  19  20
ENDBRANCH  18  19
ENDBRANCH   3  18
TORSDOF 5
ENDMDL
MODEL 8
REMARK VINA RESULT:      -7.8      1.180      2.332
REMARK  Name = 
REMARK  6 active torsions:
REMARK  status: ('A' for Active; 'I' for Inactive)
REMARK    1  A    between atoms: C_1  and  O_2
REMARK    2  A    between atoms: O_2  and  C_3
REMARK    3  A    between atoms: C_6  and  C_7
REMARK    4  A    between atoms: C_9  and  C_10
REMARK    5  A    between atoms: C_10  and  S_11
REMARK    6  A    between atoms: S_11  and  C_12
REMARK                            x       y       z     vdW  Elec       q    Type
REMARK                         _______ _______ _______ _____ _____    ______ ____
ROOT
ATOM      1  C   UNL     1       3.721   5.623  18.868  0.00  0.00    +0.000 A 
ATOM      2  N   UNL     1       3.145   6.851  18.978  0.00  0.00    +0.000 NA
ATOM      3  C   UNL     1       2.126   7.049  19.842  0.00  0.00    +0.000 A 
ATOM      4  N   UNL     1       1.650   6.124  20.690  0.00  0.00    +0.000 NA
ATOM      5  C   UNL     1       2.254   4.913  20.627  0.00  0.00    +0.000 A 
ATOM      6  C   UNL     1       1.912   3.789  21.441  0.00  0.00    +0.000 A 
ATOM      7  C   UNL     1       2.678   2.682  21.177  0.00  0.00    +0.000 A 
ATOM      8  S   UNL     1       3.847   3.002  19.985  0.00  0.00    +0.000 S 
ATOM      9  C   UNL     1       3.291   4.622  19.741  0.00  0.00    +0.000 A 
ENDROOT
BRANCH   1  13
ATOM     10  C   UNL     1       6.708   5.025  15.926  0.00  0.00    +0.000 A 
ATOM     11  C   UNL     1       7.033   5.798  17.027  0.00  0.00    +0.000 A 
ATOM     12  C   UNL     1       6.042   6.033  17.986  0.00  0.00    +0.000 A 
ATOM     13  C   UNL     1       4.767   5.465  17.847  0.00  0.00    +0.000 A 
ATOM     14  C   UNL     1       4.556   4.749  16.669  0.00  0.00    +0.000 A 
ATOM     15  N   UNL     1       5.489   4.497  15.726  0.00  0.00    +0.000 NA
BRANCH  10  17
ATOM     16  C   UNL     1       7.149   4.771  13.670  0.00  0.00    +0.000 C 
ATOM     17  O   UNL     1       7.693   4.796  14.990  0.00  0.00    +0.000 OA
ENDBRANCH  10  17
ENDBRANCH   1  13
BRANCH   3  18
ATOM     18  C   UNL     1       1.506   8.439  19.922  0.00  0.00    +0.000 C 
BRANCH  18  19
ATOM     19  S   UNL     1       1.486   9.303  18.304  0.00  0.00    +0.000 S 
BRANCH  19  20
ATOM     20  C   UNL     1       0.879  10.967  18.620  0.00  0.00    +0.000 A 
ATOM     21  C   UNL     1       1.720  12.044  18.935  0.00  0.00    +0.000 A 
ATOM     22  C   UNL     1       1.189  13.313  19.197  0.00  0.00    +0.000 A 
ATOM     23 CL   UNL     1       2.243  14.617  19.589  0.00  0.00    +0.000 Cl
ATOM     24  C   UNL     1      -0.185  13.541  19.151  0.00  0.00    +0.000 A 
ATOM     25  C   UNL     1      -1.036  12.487  18.838  0.00  0.00    +0.000 A 
ATOM     26  C   UNL     1      -0.516  11.213  18.575  0.00  0.00    +0.000 A 
ATOM     27 CL   UNL     1      -1.679   9.980  18.197  0.00  0.00    +0.000 Cl
ENDBRANCH  19  20
ENDBRANCH  18  19
ENDBRANCH   3  18
TORSDOF 5
ENDMDL
MODEL 9
REMARK VINA RESULT:      -7.8      2.108      2.350
REMARK  Name = 
REMARK  6 active torsions:
REMARK  status: ('A' for Active; 'I' for Inactive)
REMARK    1  A    between atoms: C_1  and  O_2
REMARK    2  A    between atoms: O_2  and  C_3
REMARK    3  A    between atoms: C_6  and  C_7
REMARK    4  A    between atoms: C_9  and  C_10
REMARK    5  A    between atoms: C_10  and  S_11
REMARK    6  A    between atoms: S_11  and  C_12
REMARK                            x       y       z     vdW  Elec       q    Type
REMARK                         _______ _______ _______ _____ _____    ______ ____
ROOT
ATOM      1  C   UNL     1       3.464   5.557  18.957  0.00  0.00    +0.000 A 
ATOM      2  N   UNL     1       3.036   6.766  19.412  0.00  0.00    +0.000 NA
ATOM      3  C   UNL     1       1.965   6.843  20.232  0.00  0.00    +0.000 A 
ATOM      4  N   UNL     1       1.293   5.787  20.715  0.00  0.00    +0.000 NA
ATOM      5  C   UNL     1       1.746   4.575  20.312  0.00  0.00    +0.000 A 
ATOM      6  C   UNL     1       1.185   3.322  20.709  0.00  0.00    +0.000 A 
ATOM      7  C   UNL     1       1.832   2.246  20.158  0.00  0.00    +0.000 A 
ATOM      8  S   UNL     1       3.149   2.733  19.199  0.00  0.00    +0.000 S 
ATOM      9  C   UNL     1       2.826   4.415  19.444  0.00  0.00    +0.000 A 
ENDROOT
BRANCH   1  13
ATOM     10  C   UNL     1       6.591   5.547  16.100  0.00  0.00    +0.000 A 
ATOM     11  C   UNL     1       6.748   4.765  17.231  0.00  0.00    +0.000 A 
ATOM     12  C   UNL     1       5.738   4.790  18.198  0.00  0.00    +0.000 A 
ATOM     13  C   UNL     1       4.583   5.561  18.003  0.00  0.00    +0.000 A 
ATOM     14  C   UNL     1       4.572   6.340  16.846  0.00  0.00    +0.000 A 
ATOM     15  N   UNL     1       5.524   6.336  15.888  0.00  0.00    +0.000 NA
BRANCH  10  17
ATOM     16  C   UNL     1       7.149   4.839  13.970  0.00  0.00    +0.000 C 
ATOM     17  O   UNL     1       7.589   5.511  15.151  0.00  0.00    +0.000 OA
ENDBRANCH  10  17
ENDBRANCH   1  13
BRANCH   3  18
ATOM     18  C   UNL     1       1.517   8.220  20.706  0.00  0.00    +0.000 C 
BRANCH  18  19
ATOM     19  S   UNL     1       1.260   9.400  19.326  0.00  0.00    +0.000 S 
BRANCH  19  20
ATOM     20  C   UNL     1       0.873  10.989  20.076  0.00  0.00    +0.000 A 
ATOM     21  C   UNL     1       0.042  11.126  21.198  0.00  0.00    +0.000 A 
ATOM     22  C   UNL     1      -0.246  12.391  21.724  0.00  0.00    +0.000 A 
ATOM     23 CL   UNL     1      -1.275  12.532  23.097  0.00  0.00    +0.000 Cl
ATOM     24  C   UNL     1       0.284  13.545  21.152  0.00  0.00    +0.000 A 
ATOM     25  C   UNL     1       1.113  13.431  20.041  0.00  0.00    +0.000 A 
ATOM     26  C   UNL     1       1.407  12.171  19.506  0.00  0.00    +0.000 A 
ATOM     27 CL   UNL     1       2.452  12.159  18.119  0.00  0.00    +0.000 Cl
ENDBRANCH  19  20
ENDBRANCH  18  19
ENDBRANCH   3  18
TORSDOF 5
ENDMDL
