MODEL 1
REMARK VINA RESULT:      -6.1      0.000      0.000
REMARK  Name = 
REMARK  3 active torsions:
REMARK  status: ('A' for Active; 'I' for Inactive)
REMARK    1  A    between atoms: C_2  and  S_3
REMARK    2  A    between atoms: S_3  and  C_4
REMARK    3  A    between atoms: C_4  and  N_5
REMARK                            x       y       z     vdW  Elec       q    Type
REMARK                         _______ _______ _______ _____ _____    ______ ____
ROOT
ATOM      1  N   UNL     1       4.284   5.524  18.394  0.00  0.00    +0.000 N 
ATOM      2  C   UNL     1       4.716   4.430  19.090  0.00  0.00    +0.000 C 
ATOM      3  O   UNL     1       5.844   3.990  19.197  0.00  0.00    +0.000 OA
ATOM      4  C   UNL     1       3.543   3.871  19.762  0.00  0.00    +0.000 A 
ATOM      5  C   UNL     1       3.424   2.779  20.600  0.00  0.00    +0.000 A 
ATOM      6  C   UNL     1       2.154   2.509  21.122  0.00  0.00    +0.000 A 
ATOM      7  C   UNL     1       1.051   3.326  20.799  0.00  0.00    +0.000 A 
ATOM      8  C   UNL     1       1.199   4.431  19.954  0.00  0.00    +0.000 A 
ATOM      9  C   UNL     1       2.462   4.678  19.451  0.00  0.00    +0.000 A 
ATOM     10  C   UNL     1       2.953   5.758  18.596  0.00  0.00    +0.000 C 
ATOM     11  O   UNL     1       2.273   6.689  18.210  0.00  0.00    +0.000 OA
ENDROOT
BRANCH   1  12
ATOM     12  C   UNL     1       5.164   6.419  17.677  0.00  0.00    +0.000 C 
BRANCH  12  13
ATOM     13  S   UNL     1       5.313   5.955  15.932  0.00  0.00    +0.000 S 
BRANCH  13  15
ATOM     14  N   UNL     1       7.773   4.532  16.152  0.00  0.00    +0.000 NA
ATOM     15  C   UNL     1       6.766   5.099  16.072  0.00  0.00    +0.000 C 
ENDBRANCH  13  15
ENDBRANCH  12  13
ENDBRANCH   1  12
TORSDOF 3
ENDMDL
MODEL 2
REMARK VINA RESULT:      -6.1      0.113      2.258
REMARK  Name = 
REMARK  3 active torsions:
REMARK  status: ('A' for Active; 'I' for Inactive)
REMARK    1  A    between atoms: C_2  and  S_3
REMARK    2  A    between atoms: S_3  and  C_4
REMARK    3  A    between atoms: C_4  and  N_5
REMARK                            x       y       z     vdW  Elec       q    Type
REMARK                         _______ _______ _______ _____ _____    ______ ____
ROOT
ATOM      1  N   UNL     1       4.344   5.662  18.534  0.00  0.00    +0.000 N 
ATOM      2  C   UNL     1       3.000   5.876  18.658  0.00  0.00    +0.000 C 
ATOM      3  O   UNL     1       2.319   6.755  18.165  0.00  0.00    +0.000 OA
ATOM      4  C   UNL     1       2.476   4.790  19.487  0.00  0.00    +0.000 A 
ATOM      5  C   UNL     1       1.187   4.521  19.904  0.00  0.00    +0.000 A 
ATOM      6  C   UNL     1       0.992   3.370  20.674  0.00  0.00    +0.000 A 
ATOM      7  C   UNL     1       2.075   2.527  21.003  0.00  0.00    +0.000 A 
ATOM      8  C   UNL     1       3.370   2.817  20.560  0.00  0.00    +0.000 A 
ATOM      9  C   UNL     1       3.537   3.959  19.801  0.00  0.00    +0.000 A 
ATOM     10  C   UNL     1       4.731   4.509  19.158  0.00  0.00    +0.000 C 
ATOM     11  O   UNL     1       5.823   3.973  19.167  0.00  0.00    +0.000 OA
ENDROOT
BRANCH   1  12
ATOM     12  C   UNL     1       5.212   6.461  17.699  0.00  0.00    +0.000 C 
BRANCH  12  13
ATOM     13  S   UNL     1       5.233   5.863  15.990  0.00  0.00    +0.000 S 
BRANCH  13  15
ATOM     14  N   UNL     1       7.760   4.549  16.109  0.00  0.00    +0.000 NA
ATOM     15  C   UNL     1       6.740   5.097  16.060  0.00  0.00    +0.000 C 
ENDBRANCH  13  15
ENDBRANCH  12  13
ENDBRANCH   1  12
TORSDOF 3
ENDMDL
MODEL 3
REMARK VINA RESULT:      -6.1      1.740      1.741
REMARK  Name = 
REMARK  3 active torsions:
REMARK  status: ('A' for Active; 'I' for Inactive)
REMARK    1  A    between atoms: C_2  and  S_3
REMARK    2  A    between atoms: S_3  and  C_4
REMARK    3  A    between atoms: C_4  and  N_5
REMARK                            x       y       z     vdW  Elec       q    Type
REMARK                         _______ _______ _______ _____ _____    ______ ____
ROOT
ATOM      1  N   UNL     1       4.116   3.460  17.704  0.00  0.00    +0.000 N 
ATOM      2  C   UNL     1       4.507   3.447  19.014  0.00  0.00    +0.000 C 
ATOM      3  O   UNL     1       5.617   3.614  19.480  0.00  0.00    +0.000 OA
ATOM      4  C   UNL     1       3.298   3.236  19.810  0.00  0.00    +0.000 A 
ATOM      5  C   UNL     1       3.128   3.156  21.178  0.00  0.00    +0.000 A 
ATOM      6  C   UNL     1       1.823   2.979  21.651  0.00  0.00    +0.000 A 
ATOM      7  C   UNL     1       0.736   2.887  20.756  0.00  0.00    +0.000 A 
ATOM      8  C   UNL     1       0.934   2.980  19.374  0.00  0.00    +0.000 A 
ATOM      9  C   UNL     1       2.231   3.155  18.932  0.00  0.00    +0.000 A 
ATOM     10  C   UNL     1       2.761   3.332  17.580  0.00  0.00    +0.000 C 
ATOM     11  O   UNL     1       2.075   3.397  16.578  0.00  0.00    +0.000 OA
ENDROOT
BRANCH   1  12
ATOM     12  C   UNL     1       5.006   3.749  16.602  0.00  0.00    +0.000 C 
BRANCH  12  13
ATOM     13  S   UNL     1       5.269   5.531  16.405  0.00  0.00    +0.000 S 
BRANCH  13  15
ATOM     14  N   UNL     1       7.587   5.329  14.759  0.00  0.00    +0.000 NA
ATOM     15  C   UNL     1       6.649   5.427  15.431  0.00  0.00    +0.000 C 
ENDBRANCH  13  15
ENDBRANCH  12  13
ENDBRANCH   1  12
TORSDOF 3
ENDMDL
MODEL 4
REMARK VINA RESULT:      -6.0      1.679      2.530
REMARK  Name = 
REMARK  3 active torsions:
REMARK  status: ('A' for Active; 'I' for Inactive)
REMARK    1  A    between atoms: C_2  and  S_3
REMARK    2  A    between atoms: S_3  and  C_4
REMARK    3  A    between atoms: C_4  and  N_5
REMARK                            x       y       z     vdW  Elec       q    Type
REMARK                         _______ _______ _______ _____ _____    ______ ____
ROOT
ATOM      1  N   UNL     1       4.074   3.724  17.695  0.00  0.00    +0.000 N 
ATOM      2  C   UNL     1       2.732   3.489  17.576  0.00  0.00    +0.000 C 
ATOM      3  O   UNL     1       2.057   3.416  16.568  0.00  0.00    +0.000 OA
ATOM      4  C   UNL     1       2.221   3.282  18.931  0.00  0.00    +0.000 A 
ATOM      5  C   UNL     1       0.944   2.997  19.374  0.00  0.00    +0.000 A 
ATOM      6  C   UNL     1       0.771   2.818  20.751  0.00  0.00    +0.000 A 
ATOM      7  C   UNL     1       1.862   2.927  21.637  0.00  0.00    +0.000 A 
ATOM      8  C   UNL     1       3.148   3.208  21.162  0.00  0.00    +0.000 A 
ATOM      9  C   UNL     1       3.294   3.380  19.799  0.00  0.00    +0.000 A 
ATOM     10  C   UNL     1       4.489   3.633  18.994  0.00  0.00    +0.000 C 
ATOM     11  O   UNL     1       5.618   3.690  19.442  0.00  0.00    +0.000 OA
ENDROOT
BRANCH   1  12
ATOM     12  C   UNL     1       4.966   3.874  16.568  0.00  0.00    +0.000 C 
BRANCH  12  13
ATOM     13  S   UNL     1       5.263   5.617  16.177  0.00  0.00    +0.000 S 
BRANCH  13  15
ATOM     14  N   UNL     1       7.626   5.202  14.640  0.00  0.00    +0.000 NA
ATOM     15  C   UNL     1       6.671   5.386  15.267  0.00  0.00    +0.000 C 
ENDBRANCH  13  15
ENDBRANCH  12  13
ENDBRANCH   1  12
TORSDOF 3
ENDMDL
MODEL 5
REMARK VINA RESULT:      -6.0      1.629      2.307
REMARK  Name = 
REMARK  3 active torsions:
REMARK  status: ('A' for Active; 'I' for Inactive)
REMARK    1  A    between atoms: C_2  and  S_3
REMARK    2  A    between atoms: S_3  and  C_4
REMARK    3  A    between atoms: C_4  and  N_5
REMARK                            x       y       z     vdW  Elec       q    Type
REMARK                         _______ _______ _______ _____ _____    ______ ____
ROOT
ATOM      1  N   UNL     1       3.898   5.620  17.801  0.00  0.00    +0.000 N 
ATOM      2  C   UNL     1       3.037   5.875  18.832  0.00  0.00    +0.000 C 
ATOM      3  O   UNL     1       2.862   6.912  19.441  0.00  0.00    +0.000 OA
ATOM      4  C   UNL     1       2.285   4.642  19.066  0.00  0.00    +0.000 A 
ATOM      5  C   UNL     1       1.285   4.360  19.976  0.00  0.00    +0.000 A 
ATOM      6  C   UNL     1       0.727   3.077  19.935  0.00  0.00    +0.000 A 
ATOM      7  C   UNL     1       1.175   2.123  18.998  0.00  0.00    +0.000 A 
ATOM      8  C   UNL     1       2.184   2.436  18.081  0.00  0.00    +0.000 A 
ATOM      9  C   UNL     1       2.720   3.709  18.140  0.00  0.00    +0.000 A 
ATOM     10  C   UNL     1       3.735   4.355  17.309  0.00  0.00    +0.000 C 
ATOM     11  O   UNL     1       4.263   3.836  16.345  0.00  0.00    +0.000 OA
ENDROOT
BRANCH   1  12
ATOM     12  C   UNL     1       4.747   6.621  17.197  0.00  0.00    +0.000 C 
BRANCH  12  13
ATOM     13  S   UNL     1       6.473   6.434  17.714  0.00  0.00    +0.000 S 
BRANCH  13  15
ATOM     14  N   UNL     1       7.422   5.302  15.277  0.00  0.00    +0.000 NA
ATOM     15  C   UNL     1       7.049   5.772  16.267  0.00  0.00    +0.000 C 
ENDBRANCH  13  15
ENDBRANCH  12  13
ENDBRANCH   1  12
TORSDOF 3
ENDMDL
MODEL 6
REMARK VINA RESULT:      -6.0      1.316      1.316
REMARK  Name = 
REMARK  3 active torsions:
REMARK  status: ('A' for Active; 'I' for Inactive)
REMARK    1  A    between atoms: C_2  and  S_3
REMARK    2  A    between atoms: S_3  and  C_4
REMARK    3  A    between atoms: C_4  and  N_5
REMARK                            x       y       z     vdW  Elec       q    Type
REMARK                         _______ _______ _______ _____ _____    ______ ____
ROOT
ATOM      1  N   UNL     1       3.818   5.436  17.505  0.00  0.00    +0.000 N 
ATOM      2  C   UNL     1       3.808   4.070  17.563  0.00  0.00    +0.000 C 
ATOM      3  O   UNL     1       4.452   3.274  16.908  0.00  0.00    +0.000 OA
ATOM      4  C   UNL     1       2.881   3.703  18.633  0.00  0.00    +0.000 A 
ATOM      5  C   UNL     1       2.515   2.461  19.116  0.00  0.00    +0.000 A 
ATOM      6  C   UNL     1       1.617   2.432  20.189  0.00  0.00    +0.000 A 
ATOM      7  C   UNL     1       1.115   3.627  20.744  0.00  0.00    +0.000 A 
ATOM      8  C   UNL     1       1.508   4.873  20.242  0.00  0.00    +0.000 A 
ATOM      9  C   UNL     1       2.396   4.876  19.184  0.00  0.00    +0.000 A 
ATOM     10  C   UNL     1       3.027   5.989  18.474  0.00  0.00    +0.000 C 
ATOM     11  O   UNL     1       2.881   7.159  18.766  0.00  0.00    +0.000 OA
ENDROOT
BRANCH   1  12
ATOM     12  C   UNL     1       4.692   6.198  16.642  0.00  0.00    +0.000 C 
BRANCH  12  13
ATOM     13  S   UNL     1       6.215   6.683  17.493  0.00  0.00    +0.000 S 
BRANCH  13  15
ATOM     14  N   UNL     1       7.789   4.475  16.614  0.00  0.00    +0.000 NA
ATOM     15  C   UNL     1       7.160   5.375  16.984  0.00  0.00    +0.000 C 
ENDBRANCH  13  15
ENDBRANCH  12  13
ENDBRANCH   1  12
TORSDOF 3
ENDMDL
MODEL 7
REMARK VINA RESULT:      -6.0      2.798      5.392
REMARK  Name = 
REMARK  3 active torsions:
REMARK  status: ('A' for Active; 'I' for Inactive)
REMARK    1  A    between atoms: C_2  and  S_3
REMARK    2  A    between atoms: S_3  and  C_4
REMARK    3  A    between atoms: C_4  and  N_5
REMARK                            x       y       z     vdW  Elec       q    Type
REMARK                         _______ _______ _______ _____ _____    ______ ____
ROOT
ATOM      1  N   UNL     1       3.446   2.876  18.447  0.00  0.00    +0.000 N 
ATOM      2  C   UNL     1       3.232   3.763  17.428  0.00  0.00    +0.000 C 
ATOM      3  O   UNL     1       2.286   3.837  16.668  0.00  0.00    +0.000 OA
ATOM      4  C   UNL     1       4.364   4.688  17.433  0.00  0.00    +0.000 A 
ATOM      5  C   UNL     1       4.637   5.777  16.628  0.00  0.00    +0.000 A 
ATOM      6  C   UNL     1       5.803   6.500  16.903  0.00  0.00    +0.000 A 
ATOM      7  C   UNL     1       6.656   6.121  17.960  0.00  0.00    +0.000 A 
ATOM      8  C   UNL     1       6.353   5.019  18.767  0.00  0.00    +0.000 A 
ATOM      9  C   UNL     1       5.196   4.322  18.477  0.00  0.00    +0.000 A 
ATOM     10  C   UNL     1       4.583   3.174  19.145  0.00  0.00    +0.000 C 
ATOM     11  O   UNL     1       5.017   2.656  20.155  0.00  0.00    +0.000 OA
ENDROOT
BRANCH   1  12
ATOM     12  C   UNL     1       2.497   1.860  18.841  0.00  0.00    +0.000 C 
BRANCH  12  13
ATOM     13  S   UNL     1       0.996   2.586  19.549  0.00  0.00    +0.000 S 
BRANCH  13  15
ATOM     14  N   UNL     1       1.978   2.950  22.200  0.00  0.00    +0.000 NA
ATOM     15  C   UNL     1       1.594   2.803  21.117  0.00  0.00    +0.000 C 
ENDBRANCH  13  15
ENDBRANCH  12  13
ENDBRANCH   1  12
TORSDOF 3
ENDMDL
MODEL 8
REMARK VINA RESULT:      -5.9      2.574      5.428
REMARK  Name = 
REMARK  3 active torsions:
REMARK  status: ('A' for Active; 'I' for Inactive)
REMARK    1  A    between atoms: C_2  and  S_3
REMARK    2  A    between atoms: S_3  and  C_4
REMARK    3  A    between atoms: C_4  and  N_5
REMARK                            x       y       z     vdW  Elec       q    Type
REMARK                         _______ _______ _______ _____ _____    ______ ____
ROOT
ATOM      1  N   UNL     1       4.328   4.429  18.566  0.00  0.00    +0.000 N 
ATOM      2  C   UNL     1       5.654   4.763  18.531  0.00  0.00    +0.000 C 
ATOM      3  O   UNL     1       6.406   5.000  19.456  0.00  0.00    +0.000 OA
ATOM      4  C   UNL     1       6.054   4.741  17.124  0.00  0.00    +0.000 A 
ATOM      5  C   UNL     1       7.279   4.986  16.536  0.00  0.00    +0.000 A 
ATOM      6  C   UNL     1       7.359   4.853  15.145  0.00  0.00    +0.000 A 
ATOM      7  C   UNL     1       6.228   4.482  14.388  0.00  0.00    +0.000 A 
ATOM      8  C   UNL     1       5.000   4.231  15.009  0.00  0.00    +0.000 A 
ATOM      9  C   UNL     1       4.946   4.369  16.383  0.00  0.00    +0.000 A 
ATOM     10  C   UNL     1       3.847   4.139  17.320  0.00  0.00    +0.000 C 
ATOM     11  O   UNL     1       2.751   3.719  17.002  0.00  0.00    +0.000 OA
ENDROOT
BRANCH   1  12
ATOM     12  C   UNL     1       3.580   4.237  19.788  0.00  0.00    +0.000 C 
BRANCH  12  13
ATOM     13  S   UNL     1       3.656   2.518  20.355  0.00  0.00    +0.000 S 
BRANCH  13  15
ATOM     14  N   UNL     1       1.482   2.639  22.194  0.00  0.00    +0.000 NA
ATOM     15  C   UNL     1       2.366   2.606  21.447  0.00  0.00    +0.000 C 
ENDBRANCH  13  15
ENDBRANCH  12  13
ENDBRANCH   1  12
TORSDOF 3
ENDMDL
MODEL 9
REMARK VINA RESULT:      -5.9      1.763      1.966
REMARK  Name = 
REMARK  3 active torsions:
REMARK  status: ('A' for Active; 'I' for Inactive)
REMARK    1  A    between atoms: C_2  and  S_3
REMARK    2  A    between atoms: S_3  and  C_4
REMARK    3  A    between atoms: C_4  and  N_5
REMARK                            x       y       z     vdW  Elec       q    Type
REMARK                         _______ _______ _______ _____ _____    ______ ____
ROOT
ATOM      1  N   UNL     1       4.092   4.023  17.196  0.00  0.00    +0.000 N 
ATOM      2  C   UNL     1       3.556   2.956  17.861  0.00  0.00    +0.000 C 
ATOM      3  O   UNL     1       3.736   1.769  17.670  0.00  0.00    +0.000 OA
ATOM      4  C   UNL     1       2.722   3.504  18.931  0.00  0.00    +0.000 A 
ATOM      5  C   UNL     1       1.972   2.867  19.900  0.00  0.00    +0.000 A 
ATOM      6  C   UNL     1       1.297   3.676  20.821  0.00  0.00    +0.000 A 
ATOM      7  C   UNL     1       1.388   5.081  20.752  0.00  0.00    +0.000 A 
ATOM      8  C   UNL     1       2.162   5.703  19.765  0.00  0.00    +0.000 A 
ATOM      9  C   UNL     1       2.819   4.883  18.868  0.00  0.00    +0.000 A 
ATOM     10  C   UNL     1       3.728   5.210  17.769  0.00  0.00    +0.000 C 
ATOM     11  O   UNL     1       4.095   6.336  17.494  0.00  0.00    +0.000 OA
ENDROOT
BRANCH   1  12
ATOM     12  C   UNL     1       5.061   3.902  16.131  0.00  0.00    +0.000 C 
BRANCH  12  13
ATOM     13  S   UNL     1       6.712   4.422  16.667  0.00  0.00    +0.000 S 
BRANCH  13  15
ATOM     14  N   UNL     1       7.610   5.433  14.158  0.00  0.00    +0.000 NA
ATOM     15  C   UNL     1       7.230   5.028  15.174  0.00  0.00    +0.000 C 
ENDBRANCH  13  15
ENDBRANCH  12  13
ENDBRANCH   1  12
TORSDOF 3
ENDMDL
