MODEL 1
REMARK VINA RESULT:      -8.2      0.000      0.000
REMARK  Name = 
REMARK  5 active torsions:
REMARK  status: ('A' for Active; 'I' for Inactive)
REMARK    1  A    between atoms: N_1  and  S_2
REMARK    2  A    between atoms: S_2  and  C_5
REMARK    3  A    between atoms: C_8  and  N_9
REMARK    4  A    between atoms: C_12  and  N_13
REMARK    5  A    between atoms: C_16  and  C_17
REMARK                            x       y       z     vdW  Elec       q    Type
REMARK                         _______ _______ _______ _____ _____    ______ ____
ROOT
ATOM      1  N   UNL     1       2.617   5.244  19.947  0.00  0.00    +0.000 N 
ATOM      2  N   UNL     1       1.860   4.512  20.811  0.00  0.00    +0.000 NA
ATOM      3  C   UNL     1       2.276   3.262  20.645  0.00  0.00    +0.000 A 
ATOM      4  C   UNL     1       3.397   3.192  19.814  0.00  0.00    +0.000 A 
ATOM      5  C   UNL     1       3.665   4.490  19.384  0.00  0.00    +0.000 A 
ENDROOT
BRANCH   1   9
ATOM      6  C   UNL     1       1.442   9.225  19.243  0.00  0.00    +0.000 A 
ATOM      7  C   UNL     1       2.034   8.485  18.218  0.00  0.00    +0.000 A 
ATOM      8  C   UNL     1       2.462   7.180  18.474  0.00  0.00    +0.000 A 
ATOM      9  C   UNL     1       2.265   6.612  19.745  0.00  0.00    +0.000 A 
ATOM     10  C   UNL     1       1.718   7.380  20.778  0.00  0.00    +0.000 A 
ATOM     11  C   UNL     1       1.304   8.690  20.526  0.00  0.00    +0.000 A 
BRANCH   6  12
ATOM     12  S   UNL     1       0.858  10.862  18.913  0.00  0.00    +0.000 S 
ATOM     13  O   UNL     1       1.043  11.668  20.097  0.00  0.00    +0.000 OA
ATOM     14  O   UNL     1      -0.403  10.790  18.206  0.00  0.00    +0.000 OA
BRANCH  12  15
ATOM     15  N   UNL     1       1.963  11.425  17.782  0.00  0.00    +0.000 NA
ATOM     16  H   UNL     1       1.807  12.423  17.626  0.00  0.00    +0.000 HD
ATOM     17  H   UNL     1       1.900  10.868  16.930  0.00  0.00    +0.000 HD
ENDBRANCH  12  15
ENDBRANCH   6  12
ENDBRANCH   1   9
BRANCH   5  18
ATOM     18  C   UNL     1       4.813   5.027  18.615  0.00  0.00    +0.000 A 
ATOM     19  C   UNL     1       4.757   5.154  17.219  0.00  0.00    +0.000 A 
ATOM     20  C   UNL     1       5.856   5.622  16.488  0.00  0.00    +0.000 A 
ATOM     21  C   UNL     1       7.017   6.018  17.145  0.00  0.00    +0.000 A 
ATOM     22  C   UNL     1       7.093   5.910  18.528  0.00  0.00    +0.000 A 
ATOM     23  C   UNL     1       6.016   5.383  19.248  0.00  0.00    +0.000 A 
ENDBRANCH   5  18
BRANCH   4  24
ATOM     24  N   UNL     1       4.128   1.997  19.558  0.00  0.00    +0.000 N 
ATOM     25  O   UNL     1       5.079   1.766  20.313  0.00  0.00    +0.000 OA
ATOM     26  O   UNL     1       3.769   1.306  18.600  0.00  0.00    +0.000 OA
ENDBRANCH   4  24
TORSDOF 5
ENDMDL
MODEL 2
REMARK VINA RESULT:      -8.2      0.367      1.061
REMARK  Name = 
REMARK  5 active torsions:
REMARK  status: ('A' for Active; 'I' for Inactive)
REMARK    1  A    between atoms: N_1  and  S_2
REMARK    2  A    between atoms: S_2  and  C_5
REMARK    3  A    between atoms: C_8  and  N_9
REMARK    4  A    between atoms: C_12  and  N_13
REMARK    5  A    between atoms: C_16  and  C_17
REMARK                            x       y       z     vdW  Elec       q    Type
REMARK                         _______ _______ _______ _____ _____    ______ ____
ROOT
ATOM      1  N   UNL     1       2.619   5.290  19.997  0.00  0.00    +0.000 N 
ATOM      2  N   UNL     1       2.033   4.634  21.037  0.00  0.00    +0.000 NA
ATOM      3  C   UNL     1       2.474   3.385  20.938  0.00  0.00    +0.000 A 
ATOM      4  C   UNL     1       3.459   3.257  19.955  0.00  0.00    +0.000 A 
ATOM      5  C   UNL     1       3.603   4.509  19.359  0.00  0.00    +0.000 A 
ENDROOT
BRANCH   1   9
ATOM      6  C   UNL     1       1.456   9.270  19.268  0.00  0.00    +0.000 A 
ATOM      7  C   UNL     1       1.221   8.696  20.519  0.00  0.00    +0.000 A 
ATOM      8  C   UNL     1       1.568   7.360  20.737  0.00  0.00    +0.000 A 
ATOM      9  C   UNL     1       2.181   6.617  19.713  0.00  0.00    +0.000 A 
ATOM     10  C   UNL     1       2.364   7.187  18.448  0.00  0.00    +0.000 A 
ATOM     11  C   UNL     1       2.003   8.517  18.226  0.00  0.00    +0.000 A 
BRANCH   6  12
ATOM     12  S   UNL     1       1.059  10.972  19.000  0.00  0.00    +0.000 S 
ATOM     13  O   UNL     1       1.393  11.719  20.189  0.00  0.00    +0.000 OA
ATOM     14  O   UNL     1      -0.231  11.070  18.353  0.00  0.00    +0.000 OA
BRANCH  12  15
ATOM     15  N   UNL     1       2.172  11.428  17.828  0.00  0.00    +0.000 NA
ATOM     16  H   UNL     1       1.748  12.126  17.214  0.00  0.00    +0.000 HD
ATOM     17  H   UNL     1       2.508  10.604  17.331  0.00  0.00    +0.000 HD
ENDBRANCH  12  15
ENDBRANCH   6  12
ENDBRANCH   1   9
BRANCH   5  18
ATOM     18  C   UNL     1       4.597   4.991  18.371  0.00  0.00    +0.000 A 
ATOM     19  C   UNL     1       4.401   4.810  16.994  0.00  0.00    +0.000 A 
ATOM     20  C   UNL     1       5.360   5.229  16.064  0.00  0.00    +0.000 A 
ATOM     21  C   UNL     1       6.512   5.882  16.491  0.00  0.00    +0.000 A 
ATOM     22  C   UNL     1       6.723   6.082  17.848  0.00  0.00    +0.000 A 
ATOM     23  C   UNL     1       5.794   5.606  18.778  0.00  0.00    +0.000 A 
ENDBRANCH   5  18
BRANCH   4  24
ATOM     24  N   UNL     1       4.195   2.062  19.713  0.00  0.00    +0.000 N 
ATOM     25  O   UNL     1       5.125   1.826  20.493  0.00  0.00    +0.000 OA
ATOM     26  O   UNL     1       3.863   1.378  18.741  0.00  0.00    +0.000 OA
ENDBRANCH   4  24
TORSDOF 5
ENDMDL
MODEL 3
REMARK VINA RESULT:      -8.1      0.677      1.242
REMARK  Name = 
REMARK  5 active torsions:
REMARK  status: ('A' for Active; 'I' for Inactive)
REMARK    1  A    between atoms: N_1  and  S_2
REMARK    2  A    between atoms: S_2  and  C_5
REMARK    3  A    between atoms: C_8  and  N_9
REMARK    4  A    between atoms: C_12  and  N_13
REMARK    5  A    between atoms: C_16  and  C_17
REMARK                            x       y       z     vdW  Elec       q    Type
REMARK                         _______ _______ _______ _____ _____    ______ ____
ROOT
ATOM      1  N   UNL     1       2.634   5.206  19.974  0.00  0.00    +0.000 N 
ATOM      2  N   UNL     1       1.889   4.478  20.852  0.00  0.00    +0.000 NA
ATOM      3  C   UNL     1       2.306   3.228  20.691  0.00  0.00    +0.000 A 
ATOM      4  C   UNL     1       3.417   3.154  19.847  0.00  0.00    +0.000 A 
ATOM      5  C   UNL     1       3.677   4.450  19.405  0.00  0.00    +0.000 A 
ENDROOT
BRANCH   1   9
ATOM      6  C   UNL     1       1.444   9.179  19.254  0.00  0.00    +0.000 A 
ATOM      7  C   UNL     1       2.050   8.441  18.235  0.00  0.00    +0.000 A 
ATOM      8  C   UNL     1       2.484   7.139  18.498  0.00  0.00    +0.000 A 
ATOM      9  C   UNL     1       2.276   6.571  19.767  0.00  0.00    +0.000 A 
ATOM     10  C   UNL     1       1.714   7.338  20.794  0.00  0.00    +0.000 A 
ATOM     11  C   UNL     1       1.295   8.645  20.536  0.00  0.00    +0.000 A 
BRANCH   6  12
ATOM     12  S   UNL     1       0.854  10.812  18.915  0.00  0.00    +0.000 S 
ATOM     13  O   UNL     1       1.912  11.567  18.287  0.00  0.00    +0.000 OA
ATOM     14  O   UNL     1       0.117  11.304  20.059  0.00  0.00    +0.000 OA
BRANCH  12  15
ATOM     15  N   UNL     1      -0.304  10.545  17.730  0.00  0.00    +0.000 NA
ATOM     16  H   UNL     1      -0.010   9.762  17.142  0.00  0.00    +0.000 HD
ATOM     17  H   UNL     1      -0.469  11.404  17.207  0.00  0.00    +0.000 HD
ENDBRANCH  12  15
ENDBRANCH   6  12
ENDBRANCH   1   9
BRANCH   5  18
ATOM     18  C   UNL     1       4.814   4.984  18.618  0.00  0.00    +0.000 A 
ATOM     19  C   UNL     1       5.999   5.402  19.243  0.00  0.00    +0.000 A 
ATOM     20  C   UNL     1       7.057   5.945  18.503  0.00  0.00    +0.000 A 
ATOM     21  C   UNL     1       6.970   6.033  17.118  0.00  0.00    +0.000 A 
ATOM     22  C   UNL     1       5.811   5.617  16.476  0.00  0.00    +0.000 A 
ATOM     23  C   UNL     1       4.732   5.134  17.223  0.00  0.00    +0.000 A 
ENDBRANCH   5  18
BRANCH   4  24
ATOM     24  N   UNL     1       4.147   1.959  19.591  0.00  0.00    +0.000 N 
ATOM     25  O   UNL     1       5.099   1.728  20.346  0.00  0.00    +0.000 OA
ATOM     26  O   UNL     1       3.789   1.269  18.632  0.00  0.00    +0.000 OA
ENDBRANCH   4  24
TORSDOF 5
ENDMDL
MODEL 4
REMARK VINA RESULT:      -8.1      0.718      1.457
REMARK  Name = 
REMARK  5 active torsions:
REMARK  status: ('A' for Active; 'I' for Inactive)
REMARK    1  A    between atoms: N_1  and  S_2
REMARK    2  A    between atoms: S_2  and  C_5
REMARK    3  A    between atoms: C_8  and  N_9
REMARK    4  A    between atoms: C_12  and  N_13
REMARK    5  A    between atoms: C_16  and  C_17
REMARK                            x       y       z     vdW  Elec       q    Type
REMARK                         _______ _______ _______ _____ _____    ______ ____
ROOT
ATOM      1  N   UNL     1       2.653   5.208  19.941  0.00  0.00    +0.000 N 
ATOM      2  N   UNL     1       2.011   4.540  20.939  0.00  0.00    +0.000 NA
ATOM      3  C   UNL     1       2.458   3.292  20.850  0.00  0.00    +0.000 A 
ATOM      4  C   UNL     1       3.496   3.176  19.922  0.00  0.00    +0.000 A 
ATOM      5  C   UNL     1       3.672   4.435  19.350  0.00  0.00    +0.000 A 
ENDROOT
BRANCH   1   9
ATOM      6  C   UNL     1       1.539   9.197  19.186  0.00  0.00    +0.000 A 
ATOM      7  C   UNL     1       1.315   8.641  20.447  0.00  0.00    +0.000 A 
ATOM      8  C   UNL     1       1.646   7.302  20.674  0.00  0.00    +0.000 A 
ATOM      9  C   UNL     1       2.231   6.539  19.650  0.00  0.00    +0.000 A 
ATOM     10  C   UNL     1       2.403   7.092  18.375  0.00  0.00    +0.000 A 
ATOM     11  C   UNL     1       2.058   8.425  18.144  0.00  0.00    +0.000 A 
BRANCH   6  12
ATOM     12  S   UNL     1       1.164  10.903  18.905  0.00  0.00    +0.000 S 
ATOM     13  O   UNL     1       2.215  11.483  18.104  0.00  0.00    +0.000 OA
ATOM     14  O   UNL     1       0.698  11.502  20.137  0.00  0.00    +0.000 OA
BRANCH  12  15
ATOM     15  N   UNL     1      -0.192  10.821  17.918  0.00  0.00    +0.000 NA
ATOM     16  H   UNL     1      -0.229  11.655  17.327  0.00  0.00    +0.000 HD
ATOM     17  H   UNL     1      -1.028  10.692  18.487  0.00  0.00    +0.000 HD
ENDBRANCH  12  15
ENDBRANCH   6  12
ENDBRANCH   1   9
BRANCH   5  18
ATOM     18  C   UNL     1       4.719   4.930  18.425  0.00  0.00    +0.000 A 
ATOM     19  C   UNL     1       4.566   4.832  17.034  0.00  0.00    +0.000 A 
ATOM     20  C   UNL     1       5.574   5.261  16.162  0.00  0.00    +0.000 A 
ATOM     21  C   UNL     1       6.734   5.843  16.663  0.00  0.00    +0.000 A 
ATOM     22  C   UNL     1       6.904   5.959  18.036  0.00  0.00    +0.000 A 
ATOM     23  C   UNL     1       5.924   5.472  18.906  0.00  0.00    +0.000 A 
ENDBRANCH   5  18
BRANCH   4  24
ATOM     24  N   UNL     1       4.245   1.985  19.707  0.00  0.00    +0.000 N 
ATOM     25  O   UNL     1       3.891   1.280  18.755  0.00  0.00    +0.000 OA
ATOM     26  O   UNL     1       5.165   1.742  20.496  0.00  0.00    +0.000 OA
ENDBRANCH   4  24
TORSDOF 5
ENDMDL
MODEL 5
REMARK VINA RESULT:      -8.0      0.751      1.508
REMARK  Name = 
REMARK  5 active torsions:
REMARK  status: ('A' for Active; 'I' for Inactive)
REMARK    1  A    between atoms: N_1  and  S_2
REMARK    2  A    between atoms: S_2  and  C_5
REMARK    3  A    between atoms: C_8  and  N_9
REMARK    4  A    between atoms: C_12  and  N_13
REMARK    5  A    between atoms: C_16  and  C_17
REMARK                            x       y       z     vdW  Elec       q    Type
REMARK                         _______ _______ _______ _____ _____    ______ ____
ROOT
ATOM      1  N   UNL     1       2.670   5.195  19.986  0.00  0.00    +0.000 N 
ATOM      2  N   UNL     1       1.983   4.489  20.926  0.00  0.00    +0.000 NA
ATOM      3  C   UNL     1       2.388   3.234  20.767  0.00  0.00    +0.000 A 
ATOM      4  C   UNL     1       3.442   3.139  19.855  0.00  0.00    +0.000 A 
ATOM      5  C   UNL     1       3.675   4.425  19.368  0.00  0.00    +0.000 A 
ENDROOT
BRANCH   1   9
ATOM      6  C   UNL     1       1.445   9.154  19.245  0.00  0.00    +0.000 A 
ATOM      7  C   UNL     1       2.047   8.412  18.227  0.00  0.00    +0.000 A 
ATOM      8  C   UNL     1       2.492   7.115  18.496  0.00  0.00    +0.000 A 
ATOM      9  C   UNL     1       2.301   6.556  19.771  0.00  0.00    +0.000 A 
ATOM     10  C   UNL     1       1.743   7.327  20.797  0.00  0.00    +0.000 A 
ATOM     11  C   UNL     1       1.312   8.629  20.533  0.00  0.00    +0.000 A 
BRANCH   6  12
ATOM     12  S   UNL     1       0.840  10.780  18.900  0.00  0.00    +0.000 S 
ATOM     13  O   UNL     1      -0.465  10.669  18.292  0.00  0.00    +0.000 OA
ATOM     14  O   UNL     1       1.903  11.578  18.328  0.00  0.00    +0.000 OA
BRANCH  12  15
ATOM     15  N   UNL     1       0.594  11.413  20.435  0.00  0.00    +0.000 NA
ATOM     16  H   UNL     1      -0.269  11.961  20.439  0.00  0.00    +0.000 HD
ATOM     17  H   UNL     1       1.413  11.946  20.724  0.00  0.00    +0.000 HD
ENDBRANCH  12  15
ENDBRANCH   6  12
ENDBRANCH   1   9
BRANCH   5  18
ATOM     18  C   UNL     1       4.759   4.938  18.498  0.00  0.00    +0.000 A 
ATOM     19  C   UNL     1       5.916   5.515  19.042  0.00  0.00    +0.000 A 
ATOM     20  C   UNL     1       6.922   6.038  18.219  0.00  0.00    +0.000 A 
ATOM     21  C   UNL     1       6.812   5.948  16.836  0.00  0.00    +0.000 A 
ATOM     22  C   UNL     1       5.680   5.372  16.274  0.00  0.00    +0.000 A 
ATOM     23  C   UNL     1       4.649   4.908  17.097  0.00  0.00    +0.000 A 
ENDBRANCH   5  18
BRANCH   4  24
ATOM     24  N   UNL     1       4.154   1.937  19.580  0.00  0.00    +0.000 N 
ATOM     25  O   UNL     1       3.749   1.268  18.623  0.00  0.00    +0.000 OA
ATOM     26  O   UNL     1       5.096   1.652  20.327  0.00  0.00    +0.000 OA
ENDBRANCH   4  24
TORSDOF 5
ENDMDL
MODEL 6
REMARK VINA RESULT:      -7.9      2.197      3.929
REMARK  Name = 
REMARK  5 active torsions:
REMARK  status: ('A' for Active; 'I' for Inactive)
REMARK    1  A    between atoms: N_1  and  S_2
REMARK    2  A    between atoms: S_2  and  C_5
REMARK    3  A    between atoms: C_8  and  N_9
REMARK    4  A    between atoms: C_12  and  N_13
REMARK    5  A    between atoms: C_16  and  C_17
REMARK                            x       y       z     vdW  Elec       q    Type
REMARK                         _______ _______ _______ _____ _____    ______ ____
ROOT
ATOM      1  N   UNL     1       3.130   7.054  18.276  0.00  0.00    +0.000 N 
ATOM      2  N   UNL     1       3.899   7.566  17.276  0.00  0.00    +0.000 NA
ATOM      3  C   UNL     1       4.788   6.614  17.014  0.00  0.00    +0.000 A 
ATOM      4  C   UNL     1       4.508   5.435  17.709  0.00  0.00    +0.000 A 
ATOM      5  C   UNL     1       3.393   5.689  18.507  0.00  0.00    +0.000 A 
ENDROOT
BRANCH   1   9
ATOM      6  C   UNL     1       0.530   9.697  20.269  0.00  0.00    +0.000 A 
ATOM      7  C   UNL     1       1.089   8.621  20.961  0.00  0.00    +0.000 A 
ATOM      8  C   UNL     1       1.914   7.722  20.279  0.00  0.00    +0.000 A 
ATOM      9  C   UNL     1       2.203   7.926  18.919  0.00  0.00    +0.000 A 
ATOM     10  C   UNL     1       1.596   8.978  18.224  0.00  0.00    +0.000 A 
ATOM     11  C   UNL     1       0.759   9.868  18.902  0.00  0.00    +0.000 A 
BRANCH   6  12
ATOM     12  S   UNL     1      -0.480  10.862  21.137  0.00  0.00    +0.000 S 
ATOM     13  O   UNL     1      -0.869  10.287  22.402  0.00  0.00    +0.000 OA
ATOM     14  O   UNL     1      -1.432  11.450  20.219  0.00  0.00    +0.000 OA
BRANCH  12  15
ATOM     15  N   UNL     1       0.604  12.094  21.491  0.00  0.00    +0.000 NA
ATOM     16  H   UNL     1       0.090  12.966  21.631  0.00  0.00    +0.000 HD
ATOM     17  H   UNL     1       1.311  12.155  20.759  0.00  0.00    +0.000 HD
ENDBRANCH  12  15
ENDBRANCH   6  12
ENDBRANCH   1   9
BRANCH   5  18
ATOM     18  C   UNL     1       2.576   4.769  19.332  0.00  0.00    +0.000 A 
ATOM     19  C   UNL     1       2.858   4.565  20.691  0.00  0.00    +0.000 A 
ATOM     20  C   UNL     1       2.112   3.663  21.460  0.00  0.00    +0.000 A 
ATOM     21  C   UNL     1       1.037   2.985  20.896  0.00  0.00    +0.000 A 
ATOM     22  C   UNL     1       0.732   3.177  19.555  0.00  0.00    +0.000 A 
ATOM     23  C   UNL     1       1.519   4.030  18.774  0.00  0.00    +0.000 A 
ENDBRANCH   5  18
BRANCH   4  24
ATOM     24  N   UNL     1       5.220   4.215  17.530  0.00  0.00    +0.000 N 
ATOM     25  O   UNL     1       5.905   3.837  18.487  0.00  0.00    +0.000 OA
ATOM     26  O   UNL     1       5.114   3.652  16.436  0.00  0.00    +0.000 OA
ENDBRANCH   4  24
TORSDOF 5
ENDMDL
MODEL 7
REMARK VINA RESULT:      -7.8      2.722      3.960
REMARK  Name = 
REMARK  5 active torsions:
REMARK  status: ('A' for Active; 'I' for Inactive)
REMARK    1  A    between atoms: N_1  and  S_2
REMARK    2  A    between atoms: S_2  and  C_5
REMARK    3  A    between atoms: C_8  and  N_9
REMARK    4  A    between atoms: C_12  and  N_13
REMARK    5  A    between atoms: C_16  and  C_17
REMARK                            x       y       z     vdW  Elec       q    Type
REMARK                         _______ _______ _______ _____ _____    ______ ____
ROOT
ATOM      1  N   UNL     1       4.150   6.569  17.508  0.00  0.00    +0.000 N 
ATOM      2  N   UNL     1       4.845   7.387  16.669  0.00  0.00    +0.000 NA
ATOM      3  C   UNL     1       5.831   6.629  16.202  0.00  0.00    +0.000 A 
ATOM      4  C   UNL     1       5.693   5.295  16.594  0.00  0.00    +0.000 A 
ATOM      5  C   UNL     1       4.566   5.227  17.413  0.00  0.00    +0.000 A 
ENDROOT
BRANCH   1   9
ATOM      6  C   UNL     1       1.295   8.347  20.040  0.00  0.00    +0.000 A 
ATOM      7  C   UNL     1       1.921   7.161  20.426  0.00  0.00    +0.000 A 
ATOM      8  C   UNL     1       2.833   6.554  19.559  0.00  0.00    +0.000 A 
ATOM      9  C   UNL     1       3.139   7.155  18.326  0.00  0.00    +0.000 A 
ATOM     10  C   UNL     1       2.467   8.317  17.928  0.00  0.00    +0.000 A 
ATOM     11  C   UNL     1       1.544   8.915  18.788  0.00  0.00    +0.000 A 
BRANCH   6  12
ATOM     12  S   UNL     1       0.172   9.144  21.151  0.00  0.00    +0.000 S 
ATOM     13  O   UNL     1      -0.685   8.143  21.741  0.00  0.00    +0.000 OA
ATOM     14  O   UNL     1      -0.341  10.349  20.535  0.00  0.00    +0.000 OA
BRANCH  12  15
ATOM     15  N   UNL     1       1.188   9.678  22.377  0.00  0.00    +0.000 NA
ATOM     16  H   UNL     1       1.404  10.666  22.229  0.00  0.00    +0.000 HD
ATOM     17  H   UNL     1       2.016   9.085  22.423  0.00  0.00    +0.000 HD
ENDBRANCH  12  15
ENDBRANCH   6  12
ENDBRANCH   1   9
BRANCH   5  18
ATOM     18  C   UNL     1       3.867   4.052  17.984  0.00  0.00    +0.000 A 
ATOM     19  C   UNL     1       2.637   3.616  17.469  0.00  0.00    +0.000 A 
ATOM     20  C   UNL     1       1.957   2.531  18.036  0.00  0.00    +0.000 A 
ATOM     21  C   UNL     1       2.519   1.830  19.098  0.00  0.00    +0.000 A 
ATOM     22  C   UNL     1       3.740   2.236  19.619  0.00  0.00    +0.000 A 
ATOM     23  C   UNL     1       4.386   3.359  19.091  0.00  0.00    +0.000 A 
ENDBRANCH   5  18
BRANCH   4  24
ATOM     24  N   UNL     1       6.534   4.240  16.141  0.00  0.00    +0.000 N 
ATOM     25  O   UNL     1       7.722   4.305  16.475  0.00  0.00    +0.000 OA
ATOM     26  O   UNL     1       6.018   3.365  15.438  0.00  0.00    +0.000 OA
ENDBRANCH   4  24
TORSDOF 5
ENDMDL
MODEL 8
REMARK VINA RESULT:      -7.8      2.718      4.109
REMARK  Name = 
REMARK  5 active torsions:
REMARK  status: ('A' for Active; 'I' for Inactive)
REMARK    1  A    between atoms: N_1  and  S_2
REMARK    2  A    between atoms: S_2  and  C_5
REMARK    3  A    between atoms: C_8  and  N_9
REMARK    4  A    between atoms: C_12  and  N_13
REMARK    5  A    between atoms: C_16  and  C_17
REMARK                            x       y       z     vdW  Elec       q    Type
REMARK                         _______ _______ _______ _____ _____    ______ ____
ROOT
ATOM      1  N   UNL     1       4.118   6.608  17.514  0.00  0.00    +0.000 N 
ATOM      2  N   UNL     1       4.801   7.424  16.663  0.00  0.00    +0.000 NA
ATOM      3  C   UNL     1       5.788   6.670  16.195  0.00  0.00    +0.000 A 
ATOM      4  C   UNL     1       5.662   5.338  16.597  0.00  0.00    +0.000 A 
ATOM      5  C   UNL     1       4.542   5.268  17.425  0.00  0.00    +0.000 A 
ENDROOT
BRANCH   1   9
ATOM      6  C   UNL     1       1.268   8.384  20.054  0.00  0.00    +0.000 A 
ATOM      7  C   UNL     1       1.895   7.197  20.437  0.00  0.00    +0.000 A 
ATOM      8  C   UNL     1       2.805   6.590  19.567  0.00  0.00    +0.000 A 
ATOM      9  C   UNL     1       3.109   7.194  18.334  0.00  0.00    +0.000 A 
ATOM     10  C   UNL     1       2.436   8.356  17.939  0.00  0.00    +0.000 A 
ATOM     11  C   UNL     1       1.515   8.953  18.802  0.00  0.00    +0.000 A 
BRANCH   6  12
ATOM     12  S   UNL     1       0.149   9.180  21.169  0.00  0.00    +0.000 S 
ATOM     13  O   UNL     1      -0.724   8.182  21.740  0.00  0.00    +0.000 OA
ATOM     14  O   UNL     1      -0.347  10.398  20.565  0.00  0.00    +0.000 OA
BRANCH  12  15
ATOM     15  N   UNL     1       1.163   9.685  22.407  0.00  0.00    +0.000 NA
ATOM     16  H   UNL     1       1.205  10.707  22.412  0.00  0.00    +0.000 HD
ATOM     17  H   UNL     1       2.076   9.243  22.309  0.00  0.00    +0.000 HD
ENDBRANCH  12  15
ENDBRANCH   6  12
ENDBRANCH   1   9
BRANCH   5  18
ATOM     18  C   UNL     1       3.856   4.093  18.010  0.00  0.00    +0.000 A 
ATOM     19  C   UNL     1       4.421   3.374  19.073  0.00  0.00    +0.000 A 
ATOM     20  C   UNL     1       3.792   2.238  19.598  0.00  0.00    +0.000 A 
ATOM     21  C   UNL     1       2.559   1.829  19.101  0.00  0.00    +0.000 A 
ATOM     22  C   UNL     1       1.974   2.530  18.055  0.00  0.00    +0.000 A 
ATOM     23  C   UNL     1       2.635   3.626  17.491  0.00  0.00    +0.000 A 
ENDBRANCH   5  18
BRANCH   4  24
ATOM     24  N   UNL     1       6.507   4.285  16.146  0.00  0.00    +0.000 N 
ATOM     25  O   UNL     1       5.959   3.382  15.504  0.00  0.00    +0.000 OA
ATOM     26  O   UNL     1       7.703   4.346  16.450  0.00  0.00    +0.000 OA
ENDBRANCH   4  24
TORSDOF 5
ENDMDL
MODEL 9
REMARK VINA RESULT:      -7.7      2.634      4.009
REMARK  Name = 
REMARK  5 active torsions:
REMARK  status: ('A' for Active; 'I' for Inactive)
REMARK    1  A    between atoms: N_1  and  S_2
REMARK    2  A    between atoms: S_2  and  C_5
REMARK    3  A    between atoms: C_8  and  N_9
REMARK    4  A    between atoms: C_12  and  N_13
REMARK    5  A    between atoms: C_16  and  C_17
REMARK                            x       y       z     vdW  Elec       q    Type
REMARK                         _______ _______ _______ _____ _____    ______ ____
ROOT
ATOM      1  N   UNL     1       4.145   6.607  17.390  0.00  0.00    +0.000 N 
ATOM      2  N   UNL     1       4.832   7.383  16.506  0.00  0.00    +0.000 NA
ATOM      3  C   UNL     1       5.800   6.597  16.050  0.00  0.00    +0.000 A 
ATOM      4  C   UNL     1       5.656   5.281  16.497  0.00  0.00    +0.000 A 
ATOM      5  C   UNL     1       4.545   5.257  17.339  0.00  0.00    +0.000 A 
ENDROOT
BRANCH   1   9
ATOM      6  C   UNL     1       1.359   8.514  19.905  0.00  0.00    +0.000 A 
ATOM      7  C   UNL     1       1.975   7.333  20.322  0.00  0.00    +0.000 A 
ATOM      8  C   UNL     1       2.863   6.682  19.461  0.00  0.00    +0.000 A 
ATOM      9  C   UNL     1       3.157   7.236  18.203  0.00  0.00    +0.000 A 
ATOM     10  C   UNL     1       2.495   8.393  17.776  0.00  0.00    +0.000 A 
ATOM     11  C   UNL     1       1.595   9.035  18.630  0.00  0.00    +0.000 A 
BRANCH   6  12
ATOM     12  S   UNL     1       0.268   9.366  21.006  0.00  0.00    +0.000 S 
ATOM     13  O   UNL     1       1.028  10.344  21.747  0.00  0.00    +0.000 OA
ATOM     14  O   UNL     1      -0.612   8.412  21.645  0.00  0.00    +0.000 OA
BRANCH  12  15
ATOM     15  N   UNL     1      -0.714  10.230  19.953  0.00  0.00    +0.000 NA
ATOM     16  H   UNL     1      -1.666  10.255  20.325  0.00  0.00    +0.000 HD
ATOM     17  H   UNL     1      -0.656   9.828  19.018  0.00  0.00    +0.000 HD
ENDBRANCH  12  15
ENDBRANCH   6  12
ENDBRANCH   1   9
BRANCH   5  18
ATOM     18  C   UNL     1       3.845   4.114  17.969  0.00  0.00    +0.000 A 
ATOM     19  C   UNL     1       4.406   3.425  19.055  0.00  0.00    +0.000 A 
ATOM     20  C   UNL     1       3.763   2.318  19.623  0.00  0.00    +0.000 A 
ATOM     21  C   UNL     1       2.521   1.909  19.148  0.00  0.00    +0.000 A 
ATOM     22  C   UNL     1       1.941   2.581  18.080  0.00  0.00    +0.000 A 
ATOM     23  C   UNL     1       2.615   3.646  17.474  0.00  0.00    +0.000 A 
ENDBRANCH   5  18
BRANCH   4  24
ATOM     24  N   UNL     1       6.476   4.198  16.070  0.00  0.00    +0.000 N 
ATOM     25  O   UNL     1       7.673   4.268  16.370  0.00  0.00    +0.000 OA
ATOM     26  O   UNL     1       5.935   3.298  15.420  0.00  0.00    +0.000 OA
ENDBRANCH   4  24
TORSDOF 5
ENDMDL
