MODEL 1
REMARK VINA RESULT:      -8.2      0.000      0.000
REMARK  Name = 
REMARK  13 active torsions:
REMARK  status: ('A' for Active; 'I' for Inactive)
REMARK    1  A    between atoms: C_1  and  S_2
REMARK    2  A    between atoms: S_2  and  N_5
REMARK    3  A    between atoms: N_5  and  C_6
REMARK    4  A    between atoms: C_6  and  C_7
REMARK    5  A    between atoms: C_6  and  C_14
REMARK    6  A    between atoms: C_7  and  C_8
REMARK    7  A    between atoms: C_14  and  O_16
REMARK    8  A    between atoms: O_16  and  C_17
REMARK    9  A    between atoms: C_17  and  C_18
REMARK   10  A    between atoms: C_18  and  C_19
REMARK   11  A    between atoms: C_18  and  N_26
REMARK   12  A    between atoms: C_19  and  C_20
REMARK   13  A    between atoms: C_27  and  C_29
REMARK                            x       y       z     vdW  Elec       q    Type
REMARK                         _______ _______ _______ _____ _____    ______ ____
ROOT
ATOM      1  C   UNL     1       2.354   8.821  17.622  0.00  0.00    +0.000 C 
ENDROOT
BRANCH   1   2
ATOM      2  O   UNL     1       1.621   9.091  18.848  0.00  0.00    +0.000 OA
BRANCH   2   3
ATOM      3  C   UNL     1       1.304  10.410  19.055  0.00  0.00    +0.000 C 
ATOM      4  O   UNL     1       1.811  11.329  18.421  0.00  0.00    +0.000 OA
BRANCH   3   5
ATOM      5  C   UNL     1       0.170  10.595  20.089  0.00  0.00    +0.000 C 
BRANCH   5   6
ATOM      6  N   UNL     1       0.689  10.784  21.504  0.00  0.00    +0.000 NA
ATOM      7  H   UNL     1       1.693  10.597  21.504  0.00  0.00    +0.000 HD
BRANCH   6   9
ATOM      8  C   UNL     1      -0.496   8.391  21.870  0.00  0.00    +0.000 C 
ATOM      9  S   UNL     1      -0.081   9.891  22.717  0.00  0.00    +0.000 S 
ATOM     10  O   UNL     1      -1.290  10.602  23.033  0.00  0.00    +0.000 OA
ATOM     11  O   UNL     1       0.892   9.553  23.738  0.00  0.00    +0.000 OA
ENDBRANCH   6   9
ENDBRANCH   5   6
BRANCH   5  12
ATOM     12  C   UNL     1      -0.779  11.717  19.602  0.00  0.00    +0.000 C 
BRANCH  12  13
ATOM     13  C   UNL     1      -2.011  11.265  18.844  0.00  0.00    +0.000 A 
ATOM     14  C   UNL     1      -1.889  10.250  17.884  0.00  0.00    +0.000 A 
ATOM     15  C   UNL     1      -2.940   9.980  17.008  0.00  0.00    +0.000 A 
ATOM     16  C   UNL     1      -4.123  10.714  17.087  0.00  0.00    +0.000 A 
ATOM     17  C   UNL     1      -4.289  11.648  18.103  0.00  0.00    +0.000 A 
ATOM     18  C   UNL     1      -3.256  11.886  19.000  0.00  0.00    +0.000 A 
ENDBRANCH  12  13
ENDBRANCH   5  12
ENDBRANCH   3   5
ENDBRANCH   2   3
ENDBRANCH   1   2
BRANCH   1  19
ATOM     19  C   UNL     1       3.378   7.671  17.781  0.00  0.00    +0.000 C 
BRANCH  19  20
ATOM     20  N   UNL     1       2.693   6.406  18.089  0.00  0.00    +0.000 N 
ATOM     21  C   UNL     1       3.148   5.562  19.083  0.00  0.00    +0.000 C 
ATOM     22  O   UNL     1       4.173   5.756  19.725  0.00  0.00    +0.000 OA
ATOM     23  H   UNL     1       1.732   6.313  17.792  0.00  0.00    +0.000 HD
BRANCH  21  24
ATOM     24  C   UNL     1       2.287   4.393  19.403  0.00  0.00    +0.000 A 
ATOM     25  C   UNL     1       1.654   3.637  18.408  0.00  0.00    +0.000 A 
ATOM     26  C   UNL     1       0.824   2.571  18.769  0.00  0.00    +0.000 A 
ATOM     27  C   UNL     1       0.637   2.253  20.115  0.00  0.00    +0.000 A 
ATOM     28  C   UNL     1       1.296   2.981  21.105  0.00  0.00    +0.000 A 
ATOM     29  C   UNL     1       2.126   4.045  20.750  0.00  0.00    +0.000 A 
ENDBRANCH  21  24
ENDBRANCH  19  20
BRANCH  19  30
ATOM     30  C   UNL     1       4.321   7.571  16.544  0.00  0.00    +0.000 C 
BRANCH  30  31
ATOM     31  C   UNL     1       5.414   6.526  16.632  0.00  0.00    +0.000 A 
ATOM     32  C   UNL     1       5.323   5.330  15.907  0.00  0.00    +0.000 A 
ATOM     33  C   UNL     1       6.289   4.333  16.056  0.00  0.00    +0.000 A 
ATOM     34  C   UNL     1       7.373   4.532  16.909  0.00  0.00    +0.000 A 
ATOM     35  C   UNL     1       7.510   5.742  17.585  0.00  0.00    +0.000 A 
ATOM     36  C   UNL     1       6.537   6.735  17.446  0.00  0.00    +0.000 A 
ENDBRANCH  30  31
ENDBRANCH  19  30
ENDBRANCH   1  19
TORSDOF 12
ENDMDL
MODEL 2
REMARK VINA RESULT:      -8.0      2.428      8.907
REMARK  Name = 
REMARK  13 active torsions:
REMARK  status: ('A' for Active; 'I' for Inactive)
REMARK    1  A    between atoms: C_1  and  S_2
REMARK    2  A    between atoms: S_2  and  N_5
REMARK    3  A    between atoms: N_5  and  C_6
REMARK    4  A    between atoms: C_6  and  C_7
REMARK    5  A    between atoms: C_6  and  C_14
REMARK    6  A    between atoms: C_7  and  C_8
REMARK    7  A    between atoms: C_14  and  O_16
REMARK    8  A    between atoms: O_16  and  C_17
REMARK    9  A    between atoms: C_17  and  C_18
REMARK   10  A    between atoms: C_18  and  C_19
REMARK   11  A    between atoms: C_18  and  N_26
REMARK   12  A    between atoms: C_19  and  C_20
REMARK   13  A    between atoms: C_27  and  C_29
REMARK                            x       y       z     vdW  Elec       q    Type
REMARK                         _______ _______ _______ _____ _____    ______ ____
ROOT
ATOM      1  C   UNL     1       0.956   7.914  20.749  0.00  0.00    +0.000 C 
ENDROOT
BRANCH   1   2
ATOM      2  O   UNL     1       2.302   7.644  20.269  0.00  0.00    +0.000 OA
BRANCH   2   3
ATOM      3  C   UNL     1       2.383   7.274  18.949  0.00  0.00    +0.000 C 
ATOM      4  O   UNL     1       2.174   8.047  18.022  0.00  0.00    +0.000 OA
BRANCH   3   5
ATOM      5  C   UNL     1       2.866   5.816  18.768  0.00  0.00    +0.000 C 
BRANCH   5   6
ATOM      6  N   UNL     1       1.724   4.814  18.758  0.00  0.00    +0.000 NA
ATOM      7  H   UNL     1       0.917   5.245  19.211  0.00  0.00    +0.000 HD
BRANCH   6   9
ATOM      8  C   UNL     1       2.384   2.313  18.003  0.00  0.00    +0.000 C 
ATOM      9  S   UNL     1       2.044   3.297  19.435  0.00  0.00    +0.000 S 
ATOM     10  O   UNL     1       0.811   2.854  20.028  0.00  0.00    +0.000 OA
ATOM     11  O   UNL     1       3.271   3.378  20.204  0.00  0.00    +0.000 OA
ENDBRANCH   6   9
ENDBRANCH   5   6
BRANCH   5  12
ATOM     12  C   UNL     1       3.792   5.742  17.529  0.00  0.00    +0.000 C 
BRANCH  12  13
ATOM     13  C   UNL     1       5.272   5.933  17.792  0.00  0.00    +0.000 A 
ATOM     14  C   UNL     1       5.860   5.287  18.889  0.00  0.00    +0.000 A 
ATOM     15  C   UNL     1       7.150   5.629  19.297  0.00  0.00    +0.000 A 
ATOM     16  C   UNL     1       7.865   6.609  18.611  0.00  0.00    +0.000 A 
ATOM     17  C   UNL     1       7.328   7.177  17.461  0.00  0.00    +0.000 A 
ATOM     18  C   UNL     1       6.060   6.806  17.032  0.00  0.00    +0.000 A 
ENDBRANCH  12  13
ENDBRANCH   5  12
ENDBRANCH   3   5
ENDBRANCH   2   3
ENDBRANCH   1   2
BRANCH   1  19
ATOM     19  C   UNL     1       0.630   9.426  20.789  0.00  0.00    +0.000 C 
BRANCH  19  20
ATOM     20  N   UNL     1      -0.549   9.725  19.961  0.00  0.00    +0.000 N 
ATOM     21  C   UNL     1      -0.462  10.536  18.847  0.00  0.00    +0.000 C 
ATOM     22  O   UNL     1       0.560  11.118  18.506  0.00  0.00    +0.000 OA
ATOM     23  H   UNL     1      -1.335   9.094  20.027  0.00  0.00    +0.000 HD
BRANCH  21  24
ATOM     24  C   UNL     1      -1.685  10.638  18.007  0.00  0.00    +0.000 A 
ATOM     25  C   UNL     1      -2.731  11.516  18.313  0.00  0.00    +0.000 A 
ATOM     26  C   UNL     1      -3.873  11.543  17.509  0.00  0.00    +0.000 A 
ATOM     27  C   UNL     1      -3.967  10.705  16.396  0.00  0.00    +0.000 A 
ATOM     28  C   UNL     1      -2.910   9.857  16.068  0.00  0.00    +0.000 A 
ATOM     29  C   UNL     1      -1.767   9.828  16.867  0.00  0.00    +0.000 A 
ENDBRANCH  21  24
ENDBRANCH  19  20
BRANCH  19  30
ATOM     30  C   UNL     1       0.496   9.943  22.254  0.00  0.00    +0.000 C 
BRANCH  30  31
ATOM     31  C   UNL     1      -0.438  11.119  22.454  0.00  0.00    +0.000 A 
ATOM     32  C   UNL     1      -1.630  10.972  23.177  0.00  0.00    +0.000 A 
ATOM     33  C   UNL     1      -2.528  12.036  23.287  0.00  0.00    +0.000 A 
ATOM     34  C   UNL     1      -2.233  13.265  22.701  0.00  0.00    +0.000 A 
ATOM     35  C   UNL     1      -1.023  13.442  22.035  0.00  0.00    +0.000 A 
ATOM     36  C   UNL     1      -0.129  12.376  21.914  0.00  0.00    +0.000 A 
ENDBRANCH  30  31
ENDBRANCH  19  30
ENDBRANCH   1  19
TORSDOF 12
ENDMDL
MODEL 3
REMARK VINA RESULT:      -7.8      2.896      8.806
REMARK  Name = 
REMARK  13 active torsions:
REMARK  status: ('A' for Active; 'I' for Inactive)
REMARK    1  A    between atoms: C_1  and  S_2
REMARK    2  A    between atoms: S_2  and  N_5
REMARK    3  A    between atoms: N_5  and  C_6
REMARK    4  A    between atoms: C_6  and  C_7
REMARK    5  A    between atoms: C_6  and  C_14
REMARK    6  A    between atoms: C_7  and  C_8
REMARK    7  A    between atoms: C_14  and  O_16
REMARK    8  A    between atoms: O_16  and  C_17
REMARK    9  A    between atoms: C_17  and  C_18
REMARK   10  A    between atoms: C_18  and  C_19
REMARK   11  A    between atoms: C_18  and  N_26
REMARK   12  A    between atoms: C_19  and  C_20
REMARK   13  A    between atoms: C_27  and  C_29
REMARK                            x       y       z     vdW  Elec       q    Type
REMARK                         _______ _______ _______ _____ _____    ______ ____
ROOT
ATOM      1  C   UNL     1       2.445   6.510  18.294  0.00  0.00    +0.000 C 
ENDROOT
BRANCH   1   2
ATOM      2  O   UNL     1       3.792   5.962  18.253  0.00  0.00    +0.000 OA
BRANCH   2   3
ATOM      3  C   UNL     1       3.935   4.835  17.483  0.00  0.00    +0.000 C 
ATOM      4  O   UNL     1       2.984   4.196  17.046  0.00  0.00    +0.000 OA
BRANCH   3   5
ATOM      5  C   UNL     1       5.412   4.529  17.145  0.00  0.00    +0.000 C 
BRANCH   5   6
ATOM      6  N   UNL     1       6.230   4.150  18.368  0.00  0.00    +0.000 NA
ATOM      7  H   UNL     1       5.650   4.292  19.197  0.00  0.00    +0.000 HD
BRANCH   6   9
ATOM      8  C   UNL     1       7.438   6.477  17.742  0.00  0.00    +0.000 C 
ATOM      9  S   UNL     1       7.723   4.926  18.549  0.00  0.00    +0.000 S 
ATOM     10  O   UNL     1       8.667   4.163  17.779  0.00  0.00    +0.000 OA
ATOM     11  O   UNL     1       7.937   5.205  19.955  0.00  0.00    +0.000 OA
ENDBRANCH   6   9
ENDBRANCH   5   6
BRANCH   5  12
ATOM     12  C   UNL     1       5.462   3.491  15.997  0.00  0.00    +0.000 C 
BRANCH  12  13
ATOM     13  C   UNL     1       6.008   3.989  14.674  0.00  0.00    +0.000 A 
ATOM     14  C   UNL     1       5.496   3.460  13.480  0.00  0.00    +0.000 A 
ATOM     15  C   UNL     1       6.136   3.714  12.267  0.00  0.00    +0.000 A 
ATOM     16  C   UNL     1       7.285   4.503  12.233  0.00  0.00    +0.000 A 
ATOM     17  C   UNL     1       7.736   5.116  13.397  0.00  0.00    +0.000 A 
ATOM     18  C   UNL     1       7.074   4.895  14.597  0.00  0.00    +0.000 A 
ENDBRANCH  12  13
ENDBRANCH   5  12
ENDBRANCH   3   5
ENDBRANCH   2   3
ENDBRANCH   1   2
BRANCH   1  19
ATOM     19  C   UNL     1       2.184   7.357  19.563  0.00  0.00    +0.000 C 
BRANCH  19  20
ATOM     20  N   UNL     1       1.480   8.602  19.220  0.00  0.00    +0.000 N 
ATOM     21  C   UNL     1       1.134   9.525  20.187  0.00  0.00    +0.000 C 
ATOM     22  O   UNL     1       1.314   9.357  21.386  0.00  0.00    +0.000 OA
ATOM     23  H   UNL     1       1.533   8.917  18.262  0.00  0.00    +0.000 HD
BRANCH  21  24
ATOM     24  C   UNL     1       0.565  10.811  19.700  0.00  0.00    +0.000 A 
ATOM     25  C   UNL     1       1.154  12.047  19.994  0.00  0.00    +0.000 A 
ATOM     26  C   UNL     1       0.556  13.226  19.541  0.00  0.00    +0.000 A 
ATOM     27  C   UNL     1      -0.618  13.172  18.788  0.00  0.00    +0.000 A 
ATOM     28  C   UNL     1      -1.185  11.941  18.463  0.00  0.00    +0.000 A 
ATOM     29  C   UNL     1      -0.590  10.761  18.910  0.00  0.00    +0.000 A 
ENDBRANCH  21  24
ENDBRANCH  19  20
BRANCH  19  30
ATOM     30  C   UNL     1       1.458   6.527  20.664  0.00  0.00    +0.000 C 
BRANCH  30  31
ATOM     31  C   UNL     1       1.609   5.023  20.563  0.00  0.00    +0.000 A 
ATOM     32  C   UNL     1       0.719   4.263  19.790  0.00  0.00    +0.000 A 
ATOM     33  C   UNL     1       0.809   2.870  19.768  0.00  0.00    +0.000 A 
ATOM     34  C   UNL     1       1.806   2.221  20.494  0.00  0.00    +0.000 A 
ATOM     35  C   UNL     1       2.736   2.968  21.215  0.00  0.00    +0.000 A 
ATOM     36  C   UNL     1       2.639   4.362  21.248  0.00  0.00    +0.000 A 
ENDBRANCH  30  31
ENDBRANCH  19  30
ENDBRANCH   1  19
TORSDOF 12
ENDMDL
MODEL 4
REMARK VINA RESULT:      -7.8      2.348      8.902
REMARK  Name = 
REMARK  13 active torsions:
REMARK  status: ('A' for Active; 'I' for Inactive)
REMARK    1  A    between atoms: C_1  and  S_2
REMARK    2  A    between atoms: S_2  and  N_5
REMARK    3  A    between atoms: N_5  and  C_6
REMARK    4  A    between atoms: C_6  and  C_7
REMARK    5  A    between atoms: C_6  and  C_14
REMARK    6  A    between atoms: C_7  and  C_8
REMARK    7  A    between atoms: C_14  and  O_16
REMARK    8  A    between atoms: O_16  and  C_17
REMARK    9  A    between atoms: C_17  and  C_18
REMARK   10  A    between atoms: C_18  and  C_19
REMARK   11  A    between atoms: C_18  and  N_26
REMARK   12  A    between atoms: C_19  and  C_20
REMARK   13  A    between atoms: C_27  and  C_29
REMARK                            x       y       z     vdW  Elec       q    Type
REMARK                         _______ _______ _______ _____ _____    ______ ____
ROOT
ATOM      1  C   UNL     1       1.057   8.967  18.024  0.00  0.00    +0.000 C 
ENDROOT
BRANCH   1   2
ATOM      2  O   UNL     1       2.372   8.585  18.513  0.00  0.00    +0.000 OA
BRANCH   2   3
ATOM      3  C   UNL     1       2.416   7.383  19.177  0.00  0.00    +0.000 C 
ATOM      4  O   UNL     1       1.742   7.142  20.172  0.00  0.00    +0.000 OA
BRANCH   3   5
ATOM      5  C   UNL     1       3.320   6.346  18.472  0.00  0.00    +0.000 C 
BRANCH   5   6
ATOM      6  N   UNL     1       2.541   5.164  17.921  0.00  0.00    +0.000 NA
ATOM      7  H   UNL     1       1.551   5.310  18.125  0.00  0.00    +0.000 HD
BRANCH   6   9
ATOM      8  C   UNL     1       1.492   2.759  18.539  0.00  0.00    +0.000 C 
ATOM      9  S   UNL     1       3.031   3.629  18.437  0.00  0.00    +0.000 S 
ATOM     10  O   UNL     1       3.561   3.802  19.763  0.00  0.00    +0.000 OA
ATOM     11  O   UNL     1       3.809   3.008  17.383  0.00  0.00    +0.000 OA
ENDBRANCH   6   9
ENDBRANCH   5   6
BRANCH   5  12
ATOM     12  C   UNL     1       4.201   7.073  17.427  0.00  0.00    +0.000 C 
BRANCH  12  13
ATOM     13  C   UNL     1       5.308   6.249  16.801  0.00  0.00    +0.000 A 
ATOM     14  C   UNL     1       5.255   5.961  15.430  0.00  0.00    +0.000 A 
ATOM     15  C   UNL     1       6.117   5.014  14.875  0.00  0.00    +0.000 A 
ATOM     16  C   UNL     1       7.042   4.353  15.682  0.00  0.00    +0.000 A 
ATOM     17  C   UNL     1       7.171   4.709  17.020  0.00  0.00    +0.000 A 
ATOM     18  C   UNL     1       6.339   5.682  17.560  0.00  0.00    +0.000 A 
ENDBRANCH  12  13
ENDBRANCH   5  12
ENDBRANCH   3   5
ENDBRANCH   2   3
ENDBRANCH   1   2
BRANCH   1  19
ATOM     19  C   UNL     1       0.660  10.403  18.441  0.00  0.00    +0.000 C 
BRANCH  19  20
ATOM     20  N   UNL     1      -0.803  10.540  18.504  0.00  0.00    +0.000 N 
ATOM     21  C   UNL     1      -1.429  11.738  18.221  0.00  0.00    +0.000 C 
ATOM     22  O   UNL     1      -0.831  12.777  17.973  0.00  0.00    +0.000 OA
ATOM     23  H   UNL     1      -1.352   9.694  18.446  0.00  0.00    +0.000 HD
BRANCH  21  24
ATOM     24  C   UNL     1      -2.916  11.711  18.168  0.00  0.00    +0.000 A 
ATOM     25  C   UNL     1      -3.709  12.138  19.240  0.00  0.00    +0.000 A 
ATOM     26  C   UNL     1      -5.101  12.055  19.149  0.00  0.00    +0.000 A 
ATOM     27  C   UNL     1      -5.700  11.558  17.990  0.00  0.00    +0.000 A 
ATOM     28  C   UNL     1      -4.912  11.167  16.908  0.00  0.00    +0.000 A 
ATOM     29  C   UNL     1      -3.522  11.250  16.993  0.00  0.00    +0.000 A 
ENDBRANCH  21  24
ENDBRANCH  19  20
BRANCH  19  30
ATOM     30  C   UNL     1       1.372  10.832  19.760  0.00  0.00    +0.000 C 
BRANCH  30  31
ATOM     31  C   UNL     1       0.537  10.735  21.020  0.00  0.00    +0.000 A 
ATOM     32  C   UNL     1       0.370   9.508  21.677  0.00  0.00    +0.000 A 
ATOM     33  C   UNL     1      -0.468   9.407  22.789  0.00  0.00    +0.000 A 
ATOM     34  C   UNL     1      -1.127  10.535  23.275  0.00  0.00    +0.000 A 
ATOM     35  C   UNL     1      -0.919  11.772  22.670  0.00  0.00    +0.000 A 
ATOM     36  C   UNL     1      -0.090  11.873  21.550  0.00  0.00    +0.000 A 
ENDBRANCH  30  31
ENDBRANCH  19  30
ENDBRANCH   1  19
TORSDOF 12
ENDMDL
MODEL 5
REMARK VINA RESULT:      -7.7      2.870      8.499
REMARK  Name = 
REMARK  13 active torsions:
REMARK  status: ('A' for Active; 'I' for Inactive)
REMARK    1  A    between atoms: C_1  and  S_2
REMARK    2  A    between atoms: S_2  and  N_5
REMARK    3  A    between atoms: N_5  and  C_6
REMARK    4  A    between atoms: C_6  and  C_7
REMARK    5  A    between atoms: C_6  and  C_14
REMARK    6  A    between atoms: C_7  and  C_8
REMARK    7  A    between atoms: C_14  and  O_16
REMARK    8  A    between atoms: O_16  and  C_17
REMARK    9  A    between atoms: C_17  and  C_18
REMARK   10  A    between atoms: C_18  and  C_19
REMARK   11  A    between atoms: C_18  and  N_26
REMARK   12  A    between atoms: C_19  and  C_20
REMARK   13  A    between atoms: C_27  and  C_29
REMARK                            x       y       z     vdW  Elec       q    Type
REMARK                         _______ _______ _______ _____ _____    ______ ____
ROOT
ATOM      1  C   UNL     1       3.693   7.474  17.678  0.00  0.00    +0.000 C 
ENDROOT
BRANCH   1   2
ATOM      2  O   UNL     1       4.334   6.324  17.060  0.00  0.00    +0.000 OA
BRANCH   2   3
ATOM      3  C   UNL     1       5.249   6.628  16.082  0.00  0.00    +0.000 C 
ATOM      4  O   UNL     1       4.953   7.206  15.042  0.00  0.00    +0.000 OA
BRANCH   3   5
ATOM      5  C   UNL     1       6.695   6.258  16.484  0.00  0.00    +0.000 C 
BRANCH   5   6
ATOM      6  N   UNL     1       6.957   6.440  17.970  0.00  0.00    +0.000 NA
ATOM      7  H   UNL     1       7.726   7.103  18.080  0.00  0.00    +0.000 HD
BRANCH   6   9
ATOM      8  C   UNL     1       5.651   4.282  18.919  0.00  0.00    +0.000 C 
ATOM      9  S   UNL     1       7.254   5.034  18.863  0.00  0.00    +0.000 S 
ATOM     10  O   UNL     1       7.616   5.468  20.185  0.00  0.00    +0.000 OA
ATOM     11  O   UNL     1       8.113   4.161  18.088  0.00  0.00    +0.000 OA
ENDBRANCH   6   9
ENDBRANCH   5   6
BRANCH   5  12
ATOM     12  C   UNL     1       7.022   4.844  15.946  0.00  0.00    +0.000 C 
BRANCH  12  13
ATOM     13  C   UNL     1       6.857   4.645  14.454  0.00  0.00    +0.000 A 
ATOM     14  C   UNL     1       5.905   3.728  13.987  0.00  0.00    +0.000 A 
ATOM     15  C   UNL     1       5.894   3.346  12.645  0.00  0.00    +0.000 A 
ATOM     16  C   UNL     1       6.825   3.882  11.758  0.00  0.00    +0.000 A 
ATOM     17  C   UNL     1       7.703   4.869  12.190  0.00  0.00    +0.000 A 
ATOM     18  C   UNL     1       7.686   5.278  13.518  0.00  0.00    +0.000 A 
ENDBRANCH  12  13
ENDBRANCH   5  12
ENDBRANCH   3   5
ENDBRANCH   2   3
ENDBRANCH   1   2
BRANCH   1  19
ATOM     19  C   UNL     1       2.545   7.072  18.636  0.00  0.00    +0.000 C 
BRANCH  19  20
ATOM     20  N   UNL     1       1.588   8.179  18.791  0.00  0.00    +0.000 N 
ATOM     21  C   UNL     1       1.255   8.677  20.035  0.00  0.00    +0.000 C 
ATOM     22  O   UNL     1       1.662   8.204  21.089  0.00  0.00    +0.000 OA
ATOM     23  H   UNL     1       1.423   8.767  17.986  0.00  0.00    +0.000 HD
BRANCH  21  24
ATOM     24  C   UNL     1       0.399   9.893  20.053  0.00  0.00    +0.000 A 
ATOM     25  C   UNL     1       0.151  10.614  21.227  0.00  0.00    +0.000 A 
ATOM     26  C   UNL     1      -0.692  11.728  21.192  0.00  0.00    +0.000 A 
ATOM     27  C   UNL     1      -1.277  12.128  19.989  0.00  0.00    +0.000 A 
ATOM     28  C   UNL     1      -1.003  11.432  18.812  0.00  0.00    +0.000 A 
ATOM     29  C   UNL     1      -0.159  10.321  18.841  0.00  0.00    +0.000 A 
ENDBRANCH  21  24
ENDBRANCH  19  20
BRANCH  19  30
ATOM     30  C   UNL     1       1.872   5.738  18.193  0.00  0.00    +0.000 C 
BRANCH  30  31
ATOM     31  C   UNL     1       1.828   4.643  19.238  0.00  0.00    +0.000 A 
ATOM     32  C   UNL     1       1.329   3.371  18.924  0.00  0.00    +0.000 A 
ATOM     33  C   UNL     1       1.211   2.391  19.912  0.00  0.00    +0.000 A 
ATOM     34  C   UNL     1       1.616   2.661  21.218  0.00  0.00    +0.000 A 
ATOM     35  C   UNL     1       2.173   3.900  21.528  0.00  0.00    +0.000 A 
ATOM     36  C   UNL     1       2.280   4.885  20.544  0.00  0.00    +0.000 A 
ENDBRANCH  30  31
ENDBRANCH  19  30
ENDBRANCH   1  19
TORSDOF 12
ENDMDL
MODEL 6
REMARK VINA RESULT:      -7.7      1.813      2.715
REMARK  Name = 
REMARK  13 active torsions:
REMARK  status: ('A' for Active; 'I' for Inactive)
REMARK    1  A    between atoms: C_1  and  S_2
REMARK    2  A    between atoms: S_2  and  N_5
REMARK    3  A    between atoms: N_5  and  C_6
REMARK    4  A    between atoms: C_6  and  C_7
REMARK    5  A    between atoms: C_6  and  C_14
REMARK    6  A    between atoms: C_7  and  C_8
REMARK    7  A    between atoms: C_14  and  O_16
REMARK    8  A    between atoms: O_16  and  C_17
REMARK    9  A    between atoms: C_17  and  C_18
REMARK   10  A    between atoms: C_18  and  C_19
REMARK   11  A    between atoms: C_18  and  N_26
REMARK   12  A    between atoms: C_19  and  C_20
REMARK   13  A    between atoms: C_27  and  C_29
REMARK                            x       y       z     vdW  Elec       q    Type
REMARK                         _______ _______ _______ _____ _____    ______ ____
ROOT
ATOM      1  C   UNL     1       2.087   8.446  17.535  0.00  0.00    +0.000 C 
ENDROOT
BRANCH   1   2
ATOM      2  O   UNL     1       1.970   9.702  18.257  0.00  0.00    +0.000 OA
BRANCH   2   3
ATOM      3  C   UNL     1       1.129   9.671  19.342  0.00  0.00    +0.000 C 
ATOM      4  O   UNL     1       1.112   8.749  20.151  0.00  0.00    +0.000 OA
BRANCH   3   5
ATOM      5  C   UNL     1       0.293  10.963  19.486  0.00  0.00    +0.000 C 
BRANCH   5   6
ATOM      6  N   UNL     1       0.636  12.006  18.435  0.00  0.00    +0.000 NA
ATOM      7  H   UNL     1       1.097  11.534  17.655  0.00  0.00    +0.000 HD
BRANCH   6   9
ATOM      8  C   UNL     1       0.314  14.565  19.214  0.00  0.00    +0.000 C 
ATOM      9  S   UNL     1       1.555  13.328  18.954  0.00  0.00    +0.000 S 
ATOM     10  O   UNL     1       2.372  13.712  17.835  0.00  0.00    +0.000 OA
ATOM     11  O   UNL     1       2.132  13.018  20.246  0.00  0.00    +0.000 OA
ENDBRANCH   6   9
ENDBRANCH   5   6
BRANCH   5  12
ATOM     12  C   UNL     1      -1.207  10.589  19.549  0.00  0.00    +0.000 C 
BRANCH  12  13
ATOM     13  C   UNL     1      -1.975  10.697  18.247  0.00  0.00    +0.000 A 
ATOM     14  C   UNL     1      -3.063  11.579  18.165  0.00  0.00    +0.000 A 
ATOM     15  C   UNL     1      -3.931  11.526  17.074  0.00  0.00    +0.000 A 
ATOM     16  C   UNL     1      -3.716  10.602  16.054  0.00  0.00    +0.000 A 
ATOM     17  C   UNL     1      -2.582   9.798  16.076  0.00  0.00    +0.000 A 
ATOM     18  C   UNL     1      -1.697   9.880  17.144  0.00  0.00    +0.000 A 
ENDBRANCH  12  13
ENDBRANCH   5  12
ENDBRANCH   3   5
ENDBRANCH   2   3
ENDBRANCH   1   2
BRANCH   1  19
ATOM     19  C   UNL     1       3.360   7.654  17.921  0.00  0.00    +0.000 C 
BRANCH  19  20
ATOM     20  N   UNL     1       3.031   6.567  18.856  0.00  0.00    +0.000 N 
ATOM     21  C   UNL     1       2.142   5.566  18.516  0.00  0.00    +0.000 C 
ATOM     22  O   UNL     1       1.516   5.540  17.464  0.00  0.00    +0.000 OA
ATOM     23  H   UNL     1       3.682   6.387  19.607  0.00  0.00    +0.000 HD
BRANCH  21  24
ATOM     24  C   UNL     1       2.010   4.443  19.483  0.00  0.00    +0.000 A 
ATOM     25  C   UNL     1       1.547   3.178  19.099  0.00  0.00    +0.000 A 
ATOM     26  C   UNL     1       1.407   2.171  20.057  0.00  0.00    +0.000 A 
ATOM     27  C   UNL     1       1.738   2.420  21.390  0.00  0.00    +0.000 A 
ATOM     28  C   UNL     1       2.234   3.668  21.767  0.00  0.00    +0.000 A 
ATOM     29  C   UNL     1       2.378   4.676  20.814  0.00  0.00    +0.000 A 
ENDBRANCH  21  24
ENDBRANCH  19  20
BRANCH  19  30
ATOM     30  C   UNL     1       4.132   7.163  16.659  0.00  0.00    +0.000 C 
BRANCH  30  31
ATOM     31  C   UNL     1       5.306   6.242  16.921  0.00  0.00    +0.000 A 
ATOM     32  C   UNL     1       6.405   6.678  17.673  0.00  0.00    +0.000 A 
ATOM     33  C   UNL     1       7.522   5.856  17.840  0.00  0.00    +0.000 A 
ATOM     34  C   UNL     1       7.541   4.580  17.283  0.00  0.00    +0.000 A 
ATOM     35  C   UNL     1       6.429   4.110  16.588  0.00  0.00    +0.000 A 
ATOM     36  C   UNL     1       5.316   4.936  16.409  0.00  0.00    +0.000 A 
ENDBRANCH  30  31
ENDBRANCH  19  30
ENDBRANCH   1  19
TORSDOF 12
ENDMDL
MODEL 7
REMARK VINA RESULT:      -7.7      2.598      8.951
REMARK  Name = 
REMARK  13 active torsions:
REMARK  status: ('A' for Active; 'I' for Inactive)
REMARK    1  A    between atoms: C_1  and  S_2
REMARK    2  A    between atoms: S_2  and  N_5
REMARK    3  A    between atoms: N_5  and  C_6
REMARK    4  A    between atoms: C_6  and  C_7
REMARK    5  A    between atoms: C_6  and  C_14
REMARK    6  A    between atoms: C_7  and  C_8
REMARK    7  A    between atoms: C_14  and  O_16
REMARK    8  A    between atoms: O_16  and  C_17
REMARK    9  A    between atoms: C_17  and  C_18
REMARK   10  A    between atoms: C_18  and  C_19
REMARK   11  A    between atoms: C_18  and  N_26
REMARK   12  A    between atoms: C_19  and  C_20
REMARK   13  A    between atoms: C_27  and  C_29
REMARK                            x       y       z     vdW  Elec       q    Type
REMARK                         _______ _______ _______ _____ _____    ______ ____
ROOT
ATOM      1  C   UNL     1       1.004   7.891  20.909  0.00  0.00    +0.000 C 
ENDROOT
BRANCH   1   2
ATOM      2  O   UNL     1       2.059   7.244  20.146  0.00  0.00    +0.000 OA
BRANCH   2   3
ATOM      3  C   UNL     1       2.042   5.872  20.182  0.00  0.00    +0.000 C 
ATOM      4  O   UNL     1       1.360   5.230  20.973  0.00  0.00    +0.000 OA
BRANCH   3   5
ATOM      5  C   UNL     1       2.887   5.236  19.055  0.00  0.00    +0.000 C 
BRANCH   5   6
ATOM      6  N   UNL     1       2.187   4.066  18.383  0.00  0.00    +0.000 NA
ATOM      7  H   UNL     1       1.180   4.183  18.505  0.00  0.00    +0.000 HD
BRANCH   6   9
ATOM      8  C   UNL     1       4.156   2.854  19.767  0.00  0.00    +0.000 C 
ATOM      9  S   UNL     1       2.667   2.518  18.868  0.00  0.00    +0.000 S 
ATOM     10  O   UNL     1       2.996   1.805  17.664  0.00  0.00    +0.000 OA
ATOM     11  O   UNL     1       1.698   2.004  19.816  0.00  0.00    +0.000 OA
ENDBRANCH   6   9
ENDBRANCH   5   6
BRANCH   5  12
ATOM     12  C   UNL     1       3.348   6.348  18.082  0.00  0.00    +0.000 C 
BRANCH  12  13
ATOM     13  C   UNL     1       4.601   6.054  17.281  0.00  0.00    +0.000 A 
ATOM     14  C   UNL     1       4.599   4.981  16.378  0.00  0.00    +0.000 A 
ATOM     15  C   UNL     1       5.794   4.537  15.811  0.00  0.00    +0.000 A 
ATOM     16  C   UNL     1       6.996   5.163  16.132  0.00  0.00    +0.000 A 
ATOM     17  C   UNL     1       6.992   6.293  16.944  0.00  0.00    +0.000 A 
ATOM     18  C   UNL     1       5.796   6.758  17.475  0.00  0.00    +0.000 A 
ENDBRANCH  12  13
ENDBRANCH   5  12
ENDBRANCH   3   5
ENDBRANCH   2   3
ENDBRANCH   1   2
BRANCH   1  19
ATOM     19  C   UNL     1       0.878   9.401  20.591  0.00  0.00    +0.000 C 
BRANCH  19  20
ATOM     20  N   UNL     1      -0.373   9.676  19.867  0.00  0.00    +0.000 N 
ATOM     21  C   UNL     1      -0.412  10.552  18.801  0.00  0.00    +0.000 C 
ATOM     22  O   UNL     1       0.549  11.211  18.424  0.00  0.00    +0.000 OA
ATOM     23  H   UNL     1      -1.117   8.998  19.951  0.00  0.00    +0.000 HD
BRANCH  21  24
ATOM     24  C   UNL     1      -1.697  10.629  18.056  0.00  0.00    +0.000 A 
ATOM     25  C   UNL     1      -1.935   9.880  16.898  0.00  0.00    +0.000 A 
ATOM     26  C   UNL     1      -3.148  10.020  16.217  0.00  0.00    +0.000 A 
ATOM     27  C   UNL     1      -4.124  10.895  16.696  0.00  0.00    +0.000 A 
ATOM     28  C   UNL     1      -3.903  11.615  17.870  0.00  0.00    +0.000 A 
ATOM     29  C   UNL     1      -2.696  11.476  18.554  0.00  0.00    +0.000 A 
ENDBRANCH  21  24
ENDBRANCH  19  20
BRANCH  19  30
ATOM     30  C   UNL     1       1.048  10.271  21.873  0.00  0.00    +0.000 C 
BRANCH  30  31
ATOM     31  C   UNL     1      -0.096  11.214  22.185  0.00  0.00    +0.000 A 
ATOM     32  C   UNL     1      -1.158  10.808  23.004  0.00  0.00    +0.000 A 
ATOM     33  C   UNL     1      -2.251  11.650  23.219  0.00  0.00    +0.000 A 
ATOM     34  C   UNL     1      -2.282  12.918  22.643  0.00  0.00    +0.000 A 
ATOM     35  C   UNL     1      -1.203  13.359  21.880  0.00  0.00    +0.000 A 
ATOM     36  C   UNL     1      -0.114  12.512  21.653  0.00  0.00    +0.000 A 
ENDBRANCH  30  31
ENDBRANCH  19  30
ENDBRANCH   1  19
TORSDOF 12
ENDMDL
MODEL 8
REMARK VINA RESULT:      -7.6      2.855      8.204
REMARK  Name = 
REMARK  13 active torsions:
REMARK  status: ('A' for Active; 'I' for Inactive)
REMARK    1  A    between atoms: C_1  and  S_2
REMARK    2  A    between atoms: S_2  and  N_5
REMARK    3  A    between atoms: N_5  and  C_6
REMARK    4  A    between atoms: C_6  and  C_7
REMARK    5  A    between atoms: C_6  and  C_14
REMARK    6  A    between atoms: C_7  and  C_8
REMARK    7  A    between atoms: C_14  and  O_16
REMARK    8  A    between atoms: O_16  and  C_17
REMARK    9  A    between atoms: C_17  and  C_18
REMARK   10  A    between atoms: C_18  and  C_19
REMARK   11  A    between atoms: C_18  and  N_26
REMARK   12  A    between atoms: C_19  and  C_20
REMARK   13  A    between atoms: C_27  and  C_29
REMARK                            x       y       z     vdW  Elec       q    Type
REMARK                         _______ _______ _______ _____ _____    ______ ____
ROOT
ATOM      1  C   UNL     1       3.379   8.432  17.282  0.00  0.00    +0.000 C 
ENDROOT
BRANCH   1   2
ATOM      2  O   UNL     1       4.363   7.379  17.470  0.00  0.00    +0.000 OA
BRANCH   2   3
ATOM      3  C   UNL     1       4.849   6.826  16.311  0.00  0.00    +0.000 C 
ATOM      4  O   UNL     1       4.646   7.308  15.202  0.00  0.00    +0.000 OA
BRANCH   3   5
ATOM      5  C   UNL     1       5.760   5.605  16.570  0.00  0.00    +0.000 C 
BRANCH   5   6
ATOM      6  N   UNL     1       5.885   5.265  18.046  0.00  0.00    +0.000 NA
ATOM      7  H   UNL     1       5.224   5.846  18.564  0.00  0.00    +0.000 HD
BRANCH   6   9
ATOM      8  C   UNL     1       7.916   7.023  18.266  0.00  0.00    +0.000 C 
ATOM      9  S   UNL     1       7.432   5.380  18.720  0.00  0.00    +0.000 S 
ATOM     10  O   UNL     1       8.250   4.436  18.008  0.00  0.00    +0.000 OA
ATOM     11  O   UNL     1       7.316   5.349  20.164  0.00  0.00    +0.000 OA
ENDBRANCH   6   9
ENDBRANCH   5   6
BRANCH   5  12
ATOM     12  C   UNL     1       5.290   4.428  15.681  0.00  0.00    +0.000 C 
BRANCH  12  13
ATOM     13  C   UNL     1       6.037   4.240  14.376  0.00  0.00    +0.000 A 
ATOM     14  C   UNL     1       7.207   4.977  14.145  0.00  0.00    +0.000 A 
ATOM     15  C   UNL     1       7.778   5.009  12.873  0.00  0.00    +0.000 A 
ATOM     16  C   UNL     1       7.193   4.301  11.825  0.00  0.00    +0.000 A 
ATOM     17  C   UNL     1       6.095   3.484  12.071  0.00  0.00    +0.000 A 
ATOM     18  C   UNL     1       5.552   3.422  13.347  0.00  0.00    +0.000 A 
ENDBRANCH  12  13
ENDBRANCH   5  12
ENDBRANCH   3   5
ENDBRANCH   2   3
ENDBRANCH   1   2
BRANCH   1  19
ATOM     19  C   UNL     1       1.999   8.072  17.884  0.00  0.00    +0.000 C 
BRANCH  19  20
ATOM     20  N   UNL     1       1.866   6.615  18.041  0.00  0.00    +0.000 N 
ATOM     21  C   UNL     1       2.268   5.974  19.196  0.00  0.00    +0.000 C 
ATOM     22  O   UNL     1       2.819   6.538  20.133  0.00  0.00    +0.000 OA
ATOM     23  H   UNL     1       1.206   6.141  17.442  0.00  0.00    +0.000 HD
BRANCH  21  24
ATOM     24  C   UNL     1       1.942   4.526  19.296  0.00  0.00    +0.000 A 
ATOM     25  C   UNL     1       2.088   3.651  18.212  0.00  0.00    +0.000 A 
ATOM     26  C   UNL     1       1.730   2.307  18.352  0.00  0.00    +0.000 A 
ATOM     27  C   UNL     1       1.241   1.835  19.571  0.00  0.00    +0.000 A 
ATOM     28  C   UNL     1       1.129   2.697  20.661  0.00  0.00    +0.000 A 
ATOM     29  C   UNL     1       1.487   4.038  20.528  0.00  0.00    +0.000 A 
ENDBRANCH  21  24
ENDBRANCH  19  20
BRANCH  19  30
ATOM     30  C   UNL     1       1.729   8.856  19.203  0.00  0.00    +0.000 C 
BRANCH  30  31
ATOM     31  C   UNL     1       0.536   9.790  19.183  0.00  0.00    +0.000 A 
ATOM     32  C   UNL     1       0.186  10.532  20.320  0.00  0.00    +0.000 A 
ATOM     33  C   UNL     1      -0.963  11.326  20.323  0.00  0.00    +0.000 A 
ATOM     34  C   UNL     1      -1.758  11.411  19.183  0.00  0.00    +0.000 A 
ATOM     35  C   UNL     1      -1.386  10.730  18.026  0.00  0.00    +0.000 A 
ATOM     36  C   UNL     1      -0.244   9.925  18.025  0.00  0.00    +0.000 A 
ENDBRANCH  30  31
ENDBRANCH  19  30
ENDBRANCH   1  19
TORSDOF 12
ENDMDL
MODEL 9
REMARK VINA RESULT:      -7.6      2.796      9.316
REMARK  Name = 
REMARK  13 active torsions:
REMARK  status: ('A' for Active; 'I' for Inactive)
REMARK    1  A    between atoms: C_1  and  S_2
REMARK    2  A    between atoms: S_2  and  N_5
REMARK    3  A    between atoms: N_5  and  C_6
REMARK    4  A    between atoms: C_6  and  C_7
REMARK    5  A    between atoms: C_6  and  C_14
REMARK    6  A    between atoms: C_7  and  C_8
REMARK    7  A    between atoms: C_14  and  O_16
REMARK    8  A    between atoms: O_16  and  C_17
REMARK    9  A    between atoms: C_17  and  C_18
REMARK   10  A    between atoms: C_18  and  C_19
REMARK   11  A    between atoms: C_18  and  N_26
REMARK   12  A    between atoms: C_19  and  C_20
REMARK   13  A    between atoms: C_27  and  C_29
REMARK                            x       y       z     vdW  Elec       q    Type
REMARK                         _______ _______ _______ _____ _____    ______ ____
ROOT
ATOM      1  C   UNL     1       1.266   9.254  18.036  0.00  0.00    +0.000 C 
ENDROOT
BRANCH   1   2
ATOM      2  O   UNL     1       2.540   8.659  18.407  0.00  0.00    +0.000 OA
BRANCH   2   3
ATOM      3  C   UNL     1       2.447   7.503  19.141  0.00  0.00    +0.000 C 
ATOM      4  O   UNL     1       1.801   7.418  20.179  0.00  0.00    +0.000 OA
BRANCH   3   5
ATOM      5  C   UNL     1       3.153   6.307  18.462  0.00  0.00    +0.000 C 
BRANCH   5   6
ATOM      6  N   UNL     1       2.187   5.208  18.053  0.00  0.00    +0.000 NA
ATOM      7  H   UNL     1       1.237   5.579  18.109  0.00  0.00    +0.000 HD
BRANCH   6   9
ATOM      8  C   UNL     1       2.846   2.628  17.638  0.00  0.00    +0.000 C 
ATOM      9  S   UNL     1       2.303   3.747  18.899  0.00  0.00    +0.000 S 
ATOM     10  O   UNL     1       0.962   3.401  19.288  0.00  0.00    +0.000 OA
ATOM     11  O   UNL     1       3.373   3.854  19.871  0.00  0.00    +0.000 OA
ENDBRANCH   6   9
ENDBRANCH   5   6
BRANCH   5  12
ATOM     12  C   UNL     1       4.044   6.835  17.311  0.00  0.00    +0.000 C 
BRANCH  12  13
ATOM     13  C   UNL     1       5.099   5.879  16.794  0.00  0.00    +0.000 A 
ATOM     14  C   UNL     1       5.987   5.284  17.703  0.00  0.00    +0.000 A 
ATOM     15  C   UNL     1       7.110   4.597  17.241  0.00  0.00    +0.000 A 
ATOM     16  C   UNL     1       7.352   4.491  15.873  0.00  0.00    +0.000 A 
ATOM     17  C   UNL     1       6.422   4.986  14.966  0.00  0.00    +0.000 A 
ATOM     18  C   UNL     1       5.284   5.634  15.427  0.00  0.00    +0.000 A 
ENDBRANCH  12  13
ENDBRANCH   5  12
ENDBRANCH   3   5
ENDBRANCH   2   3
ENDBRANCH   1   2
BRANCH   1  19
ATOM     19  C   UNL     1       0.762  10.280  19.080  0.00  0.00    +0.000 C 
BRANCH  19  20
ATOM     20  N   UNL     1       1.045  11.654  18.636  0.00  0.00    +0.000 N 
ATOM     21  C   UNL     1       1.506  12.615  19.513  0.00  0.00    +0.000 C 
ATOM     22  O   UNL     1       1.646  12.430  20.716  0.00  0.00    +0.000 OA
ATOM     23  H   UNL     1       1.200  11.800  17.649  0.00  0.00    +0.000 HD
BRANCH  21  24
ATOM     24  C   UNL     1       1.902  13.919  18.917  0.00  0.00    +0.000 A 
ATOM     25  C   UNL     1       3.078  14.073  18.173  0.00  0.00    +0.000 A 
ATOM     26  C   UNL     1       3.419  15.331  17.666  0.00  0.00    +0.000 A 
ATOM     27  C   UNL     1       2.585  16.427  17.891  0.00  0.00    +0.000 A 
ATOM     28  C   UNL     1       1.395  16.267  18.600  0.00  0.00    +0.000 A 
ATOM     29  C   UNL     1       1.049  15.014  19.105  0.00  0.00    +0.000 A 
ENDBRANCH  21  24
ENDBRANCH  19  20
BRANCH  19  30
ATOM     30  C   UNL     1      -0.739  10.048  19.432  0.00  0.00    +0.000 C 
BRANCH  30  31
ATOM     31  C   UNL     1      -1.734  10.435  18.358  0.00  0.00    +0.000 A 
ATOM     32  C   UNL     1      -2.689  11.435  18.592  0.00  0.00    +0.000 A 
ATOM     33  C   UNL     1      -3.659  11.730  17.632  0.00  0.00    +0.000 A 
ATOM     34  C   UNL     1      -3.668  11.050  16.415  0.00  0.00    +0.000 A 
ATOM     35  C   UNL     1      -2.686  10.099  16.145  0.00  0.00    +0.000 A 
ATOM     36  C   UNL     1      -1.723   9.795  17.110  0.00  0.00    +0.000 A 
ENDBRANCH  30  31
ENDBRANCH  19  30
ENDBRANCH   1  19
TORSDOF 12
ENDMDL
