MODEL 1
REMARK VINA RESULT:      -6.8      0.000      0.000
REMARK  Name = 
REMARK  4 active torsions:
REMARK  status: ('A' for Active; 'I' for Inactive)
REMARK    1  A    between atoms: C_1  and  C_2
REMARK    2  A    between atoms: C_9  and  N_10
REMARK    3  A    between atoms: N_10  and  C_11
REMARK    4  A    between atoms: N_14  and  C_15
REMARK                            x       y       z     vdW  Elec       q    Type
REMARK                         _______ _______ _______ _____ _____    ______ ____
ROOT
ATOM      1  C   UNL     1       1.468   2.822  22.010  0.00  0.00    +0.000 C 
ATOM      2  C   UNL     1       1.698   3.114  20.574  0.00  0.00    +0.000 A 
ATOM      3  C   UNL     1       0.806   2.966  19.534  0.00  0.00    +0.000 A 
ATOM      4  S   UNL     1       1.524   3.495  18.074  0.00  0.00    +0.000 S 
ATOM      5  C   UNL     1       2.996   3.859  18.911  0.00  0.00    +0.000 A 
ATOM      6  N   UNL     1       4.115   4.378  18.329  0.00  0.00    +0.000 N 
ATOM      7  C   UNL     1       5.403   4.034  18.937  0.00  0.00    +0.000 C 
ATOM      8  C   UNL     1       6.314   5.250  18.886  0.00  0.00    +0.000 C 
ATOM      9  C   UNL     1       6.485   5.763  17.455  0.00  0.00    +0.000 C 
ATOM     10  C   UNL     1       5.115   5.985  16.795  0.00  0.00    +0.000 C 
ATOM     11  C   UNL     1       4.182   4.777  16.932  0.00  0.00    +0.000 C 
ATOM     12  N   UNL     1       2.935   3.598  20.201  0.00  0.00    +0.000 NA
ENDROOT
BRANCH   9  13
ATOM     13  N   UNL     1       7.296   4.849  16.637  0.00  0.00    +0.000 N 
ATOM     14  H   UNL     1       7.613   4.024  17.140  0.00  0.00    +0.000 HD
BRANCH  13  15
ATOM     15  C   UNL     1       7.093   4.698  15.307  0.00  0.00    +0.000 A 
ATOM     16  C   UNL     1       7.617   5.506  14.276  0.00  0.00    +0.000 A 
ATOM     17  N   UNL     1       7.247   5.090  13.061  0.00  0.00    +0.000 NA
ATOM     18  N   UNL     1       6.465   4.026  13.325  0.00  0.00    +0.000 N 
ATOM     19  C   UNL     1       5.873   3.276  12.245  0.00  0.00    +0.000 C 
ATOM     20  C   UNL     1       6.339   3.753  14.658  0.00  0.00    +0.000 A 
ENDBRANCH  13  15
ENDBRANCH   9  13
TORSDOF 2
ENDMDL
MODEL 2
REMARK VINA RESULT:      -6.7      1.652      1.939
REMARK  Name = 
REMARK  4 active torsions:
REMARK  status: ('A' for Active; 'I' for Inactive)
REMARK    1  A    between atoms: C_1  and  C_2
REMARK    2  A    between atoms: C_9  and  N_10
REMARK    3  A    between atoms: N_10  and  C_11
REMARK    4  A    between atoms: N_14  and  C_15
REMARK                            x       y       z     vdW  Elec       q    Type
REMARK                         _______ _______ _______ _____ _____    ______ ____
ROOT
ATOM      1  C   UNL     1       1.024   3.253  20.550  0.00  0.00    +0.000 C 
ATOM      2  C   UNL     1       1.744   4.443  20.033  0.00  0.00    +0.000 A 
ATOM      3  C   UNL     1       1.533   5.763  20.365  0.00  0.00    +0.000 A 
ATOM      4  S   UNL     1       2.659   6.756  19.547  0.00  0.00    +0.000 S 
ATOM      5  C   UNL     1       3.341   5.367  18.767  0.00  0.00    +0.000 A 
ATOM      6  N   UNL     1       4.389   5.400  17.894  0.00  0.00    +0.000 N 
ATOM      7  C   UNL     1       4.433   4.355  16.868  0.00  0.00    +0.000 C 
ATOM      8  C   UNL     1       5.877   3.928  16.660  0.00  0.00    +0.000 C 
ATOM      9  C   UNL     1       6.768   5.117  16.294  0.00  0.00    +0.000 C 
ATOM     10  C   UNL     1       6.596   6.252  17.316  0.00  0.00    +0.000 C 
ATOM     11  C   UNL     1       5.129   6.610  17.574  0.00  0.00    +0.000 C 
ATOM     12  N   UNL     1       2.753   4.240  19.113  0.00  0.00    +0.000 NA
ENDROOT
BRANCH   9  13
ATOM     13  N   UNL     1       6.490   5.614  14.939  0.00  0.00    +0.000 N 
ATOM     14  H   UNL     1       6.771   6.581  14.794  0.00  0.00    +0.000 HD
BRANCH  13  15
ATOM     15  C   UNL     1       6.532   4.809  13.851  0.00  0.00    +0.000 A 
ATOM     16  C   UNL     1       7.496   4.831  12.821  0.00  0.00    +0.000 A 
ATOM     17  N   UNL     1       7.273   3.897  11.891  0.00  0.00    +0.000 NA
ATOM     18  N   UNL     1       6.149   3.296  12.322  0.00  0.00    +0.000 N 
ATOM     19  C   UNL     1       5.583   2.197  11.578  0.00  0.00    +0.000 C 
ATOM     20  C   UNL     1       5.663   3.810  13.492  0.00  0.00    +0.000 A 
ENDBRANCH  13  15
ENDBRANCH   9  13
TORSDOF 2
ENDMDL
MODEL 3
REMARK VINA RESULT:      -6.4      3.971      5.266
REMARK  Name = 
REMARK  4 active torsions:
REMARK  status: ('A' for Active; 'I' for Inactive)
REMARK    1  A    between atoms: C_1  and  C_2
REMARK    2  A    between atoms: C_9  and  N_10
REMARK    3  A    between atoms: N_10  and  C_11
REMARK    4  A    between atoms: N_14  and  C_15
REMARK                            x       y       z     vdW  Elec       q    Type
REMARK                         _______ _______ _______ _____ _____    ______ ____
ROOT
ATOM      1  C   UNL     1       0.677  11.587  18.949  0.00  0.00    +0.000 C 
ATOM      2  C   UNL     1       0.924  10.445  19.864  0.00  0.00    +0.000 A 
ATOM      3  C   UNL     1       0.768  10.416  21.232  0.00  0.00    +0.000 A 
ATOM      4  S   UNL     1       1.120   8.851  21.824  0.00  0.00    +0.000 S 
ATOM      5  C   UNL     1       1.493   8.311  20.221  0.00  0.00    +0.000 A 
ATOM      6  N   UNL     1       1.878   7.044  19.895  0.00  0.00    +0.000 N 
ATOM      7  C   UNL     1       2.749   6.891  18.727  0.00  0.00    +0.000 C 
ATOM      8  C   UNL     1       2.344   5.638  17.968  0.00  0.00    +0.000 C 
ATOM      9  C   UNL     1       2.384   4.400  18.867  0.00  0.00    +0.000 C 
ATOM     10  C   UNL     1       1.571   4.640  20.149  0.00  0.00    +0.000 C 
ATOM     11  C   UNL     1       1.937   5.951  20.853  0.00  0.00    +0.000 C 
ATOM     12  N   UNL     1       1.355   9.256  19.312  0.00  0.00    +0.000 NA
ENDROOT
BRANCH   9  13
ATOM     13  N   UNL     1       3.760   4.013  19.208  0.00  0.00    +0.000 N 
ATOM     14  H   UNL     1       3.819   3.162  19.762  0.00  0.00    +0.000 HD
BRANCH  13  15
ATOM     15  C   UNL     1       4.807   4.267  18.387  0.00  0.00    +0.000 A 
ATOM     16  C   UNL     1       5.986   4.968  18.715  0.00  0.00    +0.000 A 
ATOM     17  N   UNL     1       6.842   5.039  17.690  0.00  0.00    +0.000 NA
ATOM     18  N   UNL     1       6.190   4.399  16.701  0.00  0.00    +0.000 N 
ATOM     19  C   UNL     1       6.807   4.248  15.406  0.00  0.00    +0.000 C 
ATOM     20  C   UNL     1       4.964   3.921  17.068  0.00  0.00    +0.000 A 
ENDBRANCH  13  15
ENDBRANCH   9  13
TORSDOF 2
ENDMDL
MODEL 4
REMARK VINA RESULT:      -6.4      3.396      3.562
REMARK  Name = 
REMARK  4 active torsions:
REMARK  status: ('A' for Active; 'I' for Inactive)
REMARK    1  A    between atoms: C_1  and  C_2
REMARK    2  A    between atoms: C_9  and  N_10
REMARK    3  A    between atoms: N_10  and  C_11
REMARK    4  A    between atoms: N_14  and  C_15
REMARK                            x       y       z     vdW  Elec       q    Type
REMARK                         _______ _______ _______ _____ _____    ______ ____
ROOT
ATOM      1  C   UNL     1      -0.051   8.865  21.795  0.00  0.00    +0.000 C 
ATOM      2  C   UNL     1       0.648   8.896  20.486  0.00  0.00    +0.000 A 
ATOM      3  C   UNL     1       0.488   9.813  19.470  0.00  0.00    +0.000 A 
ATOM      4  S   UNL     1       1.565   9.455  18.191  0.00  0.00    +0.000 S 
ATOM      5  C   UNL     1       2.159   8.076  19.054  0.00  0.00    +0.000 A 
ATOM      6  N   UNL     1       3.135   7.237  18.605  0.00  0.00    +0.000 N 
ATOM      7  C   UNL     1       3.080   5.845  19.061  0.00  0.00    +0.000 C 
ATOM      8  C   UNL     1       4.495   5.353  19.318  0.00  0.00    +0.000 C 
ATOM      9  C   UNL     1       5.377   5.505  18.077  0.00  0.00    +0.000 C 
ATOM     10  C   UNL     1       5.307   6.944  17.540  0.00  0.00    +0.000 C 
ATOM     11  C   UNL     1       3.871   7.450  17.368  0.00  0.00    +0.000 C 
ATOM     12  N   UNL     1       1.578   7.911  20.226  0.00  0.00    +0.000 NA
ENDROOT
BRANCH   9  13
ATOM     13  N   UNL     1       5.004   4.555  17.019  0.00  0.00    +0.000 N 
ATOM     14  H   UNL     1       4.003   4.384  16.958  0.00  0.00    +0.000 HD
BRANCH  13  15
ATOM     15  C   UNL     1       5.700   4.452  15.862  0.00  0.00    +0.000 A 
ATOM     16  C   UNL     1       7.022   4.887  15.632  0.00  0.00    +0.000 A 
ATOM     17  N   UNL     1       7.437   4.628  14.387  0.00  0.00    +0.000 NA
ATOM     18  N   UNL     1       6.363   4.048  13.820  0.00  0.00    +0.000 N 
ATOM     19  C   UNL     1       6.421   3.599  12.450  0.00  0.00    +0.000 C 
ATOM     20  C   UNL     1       5.295   3.923  14.663  0.00  0.00    +0.000 A 
ENDBRANCH  13  15
ENDBRANCH   9  13
TORSDOF 2
ENDMDL
MODEL 5
REMARK VINA RESULT:      -6.4      2.421      3.995
REMARK  Name = 
REMARK  4 active torsions:
REMARK  status: ('A' for Active; 'I' for Inactive)
REMARK    1  A    between atoms: C_1  and  C_2
REMARK    2  A    between atoms: C_9  and  N_10
REMARK    3  A    between atoms: N_10  and  C_11
REMARK    4  A    between atoms: N_14  and  C_15
REMARK                            x       y       z     vdW  Elec       q    Type
REMARK                         _______ _______ _______ _____ _____    ______ ____
ROOT
ATOM      1  C   UNL     1       0.886   3.173  20.724  0.00  0.00    +0.000 C 
ATOM      2  C   UNL     1       1.868   2.867  19.654  0.00  0.00    +0.000 A 
ATOM      3  C   UNL     1       2.118   1.646  19.069  0.00  0.00    +0.000 A 
ATOM      4  S   UNL     1       3.296   1.821  17.842  0.00  0.00    +0.000 S 
ATOM      5  C   UNL     1       3.429   3.513  18.187  0.00  0.00    +0.000 A 
ATOM      6  N   UNL     1       4.251   4.381  17.530  0.00  0.00    +0.000 N 
ATOM      7  C   UNL     1       4.743   5.535  18.287  0.00  0.00    +0.000 C 
ATOM      8  C   UNL     1       4.774   6.749  17.372  0.00  0.00    +0.000 C 
ATOM      9  C   UNL     1       5.620   6.490  16.124  0.00  0.00    +0.000 C 
ATOM     10  C   UNL     1       5.168   5.197  15.426  0.00  0.00    +0.000 C 
ATOM     11  C   UNL     1       5.063   4.005  16.383  0.00  0.00    +0.000 C 
ATOM     12  N   UNL     1       2.632   3.905  19.161  0.00  0.00    +0.000 NA
ENDROOT
BRANCH   9  13
ATOM     13  N   UNL     1       7.055   6.417  16.438  0.00  0.00    +0.000 N 
ATOM     14  H   UNL     1       7.632   6.139  15.648  0.00  0.00    +0.000 HD
BRANCH  13  15
ATOM     15  C   UNL     1       7.637   7.234  17.348  0.00  0.00    +0.000 A 
ATOM     16  C   UNL     1       8.185   6.856  18.592  0.00  0.00    +0.000 A 
ATOM     17  N   UNL     1       8.704   7.893  19.259  0.00  0.00    +0.000 NA
ATOM     18  N   UNL     1       8.462   8.935  18.442  0.00  0.00    +0.000 N 
ATOM     19  C   UNL     1       8.895  10.260  18.811  0.00  0.00    +0.000 C 
ATOM     20  C   UNL     1       7.821   8.592  17.285  0.00  0.00    +0.000 A 
ENDBRANCH  13  15
ENDBRANCH   9  13
TORSDOF 2
ENDMDL
MODEL 6
REMARK VINA RESULT:      -6.3      1.756      2.281
REMARK  Name = 
REMARK  4 active torsions:
REMARK  status: ('A' for Active; 'I' for Inactive)
REMARK    1  A    between atoms: C_1  and  C_2
REMARK    2  A    between atoms: C_9  and  N_10
REMARK    3  A    between atoms: N_10  and  C_11
REMARK    4  A    between atoms: N_14  and  C_15
REMARK                            x       y       z     vdW  Elec       q    Type
REMARK                         _______ _______ _______ _____ _____    ______ ____
ROOT
ATOM      1  C   UNL     1       1.514   2.862  21.327  0.00  0.00    +0.000 C 
ATOM      2  C   UNL     1       1.954   4.031  20.525  0.00  0.00    +0.000 A 
ATOM      3  C   UNL     1       1.625   5.354  20.721  0.00  0.00    +0.000 A 
ATOM      4  S   UNL     1       2.432   6.329  19.570  0.00  0.00    +0.000 S 
ATOM      5  C   UNL     1       3.147   4.922  18.855  0.00  0.00    +0.000 A 
ATOM      6  N   UNL     1       4.001   4.937  17.792  0.00  0.00    +0.000 N 
ATOM      7  C   UNL     1       4.002   3.759  16.921  0.00  0.00    +0.000 C 
ATOM      8  C   UNL     1       5.428   3.468  16.484  0.00  0.00    +0.000 C 
ATOM      9  C   UNL     1       6.062   4.679  15.795  0.00  0.00    +0.000 C 
ATOM     10  C   UNL     1       5.924   5.931  16.676  0.00  0.00    +0.000 C 
ATOM     11  C   UNL     1       4.494   6.159  17.175  0.00  0.00    +0.000 C 
ATOM     12  N   UNL     1       2.795   3.803  19.455  0.00  0.00    +0.000 NA
ENDROOT
BRANCH   9  13
ATOM     13  N   UNL     1       5.474   4.928  14.471  0.00  0.00    +0.000 N 
ATOM     14  H   UNL     1       5.396   5.915  14.239  0.00  0.00    +0.000 HD
BRANCH  13  15
ATOM     15  C   UNL     1       5.652   4.080  13.431  0.00  0.00    +0.000 A 
ATOM     16  C   UNL     1       4.647   3.535  12.604  0.00  0.00    +0.000 A 
ATOM     17  N   UNL     1       5.143   2.741  11.650  0.00  0.00    +0.000 NA
ATOM     18  N   UNL     1       6.467   2.764  11.888  0.00  0.00    +0.000 N 
ATOM     19  C   UNL     1       7.369   2.024  11.041  0.00  0.00    +0.000 C 
ATOM     20  C   UNL     1       6.822   3.550  12.948  0.00  0.00    +0.000 A 
ENDBRANCH  13  15
ENDBRANCH   9  13
TORSDOF 2
ENDMDL
MODEL 7
REMARK VINA RESULT:      -6.3      4.816      5.599
REMARK  Name = 
REMARK  4 active torsions:
REMARK  status: ('A' for Active; 'I' for Inactive)
REMARK    1  A    between atoms: C_1  and  C_2
REMARK    2  A    between atoms: C_9  and  N_10
REMARK    3  A    between atoms: N_10  and  C_11
REMARK    4  A    between atoms: N_14  and  C_15
REMARK                            x       y       z     vdW  Elec       q    Type
REMARK                         _______ _______ _______ _____ _____    ______ ____
ROOT
ATOM      1  C   UNL     1      -1.315  12.078  18.216  0.00  0.00    +0.000 C 
ATOM      2  C   UNL     1      -0.585  11.200  19.164  0.00  0.00    +0.000 A 
ATOM      3  C   UNL     1      -0.617  11.241  20.540  0.00  0.00    +0.000 A 
ATOM      4  S   UNL     1       0.348   9.982  21.182  0.00  0.00    +0.000 S 
ATOM      5  C   UNL     1       0.780   9.477  19.582  0.00  0.00    +0.000 A 
ATOM      6  N   UNL     1       1.593   8.421  19.291  0.00  0.00    +0.000 N 
ATOM      7  C   UNL     1       2.369   8.499  18.050  0.00  0.00    +0.000 C 
ATOM      8  C   UNL     1       2.417   7.122  17.410  0.00  0.00    +0.000 C 
ATOM      9  C   UNL     1       2.992   6.077  18.370  0.00  0.00    +0.000 C 
ATOM     10  C   UNL     1       2.246   6.113  19.713  0.00  0.00    +0.000 C 
ATOM     11  C   UNL     1       2.135   7.524  20.300  0.00  0.00    +0.000 C 
ATOM     12  N   UNL     1       0.225  10.213  18.640  0.00  0.00    +0.000 NA
ENDROOT
BRANCH   9  13
ATOM     13  N   UNL     1       4.433   6.266  18.589  0.00  0.00    +0.000 N 
ATOM     14  H   UNL     1       4.729   6.076  19.544  0.00  0.00    +0.000 HD
BRANCH  13  15
ATOM     15  C   UNL     1       5.348   6.030  17.620  0.00  0.00    +0.000 A 
ATOM     16  C   UNL     1       6.580   6.694  17.443  0.00  0.00    +0.000 A 
ATOM     17  N   UNL     1       7.272   6.221  16.401  0.00  0.00    +0.000 NA
ATOM     18  N   UNL     1       6.462   5.269  15.902  0.00  0.00    +0.000 N 
ATOM     19  C   UNL     1       6.872   4.498  14.753  0.00  0.00    +0.000 C 
ATOM     20  C   UNL     1       5.295   5.119  16.596  0.00  0.00    +0.000 A 
ENDBRANCH  13  15
ENDBRANCH   9  13
TORSDOF 2
ENDMDL
MODEL 8
REMARK VINA RESULT:      -6.1      1.918      6.954
REMARK  Name = 
REMARK  4 active torsions:
REMARK  status: ('A' for Active; 'I' for Inactive)
REMARK    1  A    between atoms: C_1  and  C_2
REMARK    2  A    between atoms: C_9  and  N_10
REMARK    3  A    between atoms: N_10  and  C_11
REMARK    4  A    between atoms: N_14  and  C_15
REMARK                            x       y       z     vdW  Elec       q    Type
REMARK                         _______ _______ _______ _____ _____    ______ ____
ROOT
ATOM      1  C   UNL     1       8.718   6.035  12.384  0.00  0.00    +0.000 C 
ATOM      2  C   UNL     1       7.661   5.237  13.055  0.00  0.00    +0.000 A 
ATOM      3  C   UNL     1       6.931   4.197  12.524  0.00  0.00    +0.000 A 
ATOM      4  S   UNL     1       5.878   3.560  13.713  0.00  0.00    +0.000 S 
ATOM      5  C   UNL     1       6.436   4.734  14.858  0.00  0.00    +0.000 A 
ATOM      6  N   UNL     1       6.003   4.832  16.148  0.00  0.00    +0.000 N 
ATOM      7  C   UNL     1       6.031   6.162  16.762  0.00  0.00    +0.000 C 
ATOM      8  C   UNL     1       6.452   6.026  18.216  0.00  0.00    +0.000 C 
ATOM      9  C   UNL     1       5.533   5.071  18.980  0.00  0.00    +0.000 C 
ATOM     10  C   UNL     1       5.415   3.730  18.239  0.00  0.00    +0.000 C 
ATOM     11  C   UNL     1       5.072   3.893  16.755  0.00  0.00    +0.000 C 
ATOM     12  N   UNL     1       7.354   5.541  14.365  0.00  0.00    +0.000 NA
ENDROOT
BRANCH   9  13
ATOM     13  N   UNL     1       4.197   5.647  19.193  0.00  0.00    +0.000 N 
ATOM     14  H   UNL     1       3.985   6.425  18.573  0.00  0.00    +0.000 HD
BRANCH  13  15
ATOM     15  C   UNL     1       3.144   4.899  19.598  0.00  0.00    +0.000 A 
ATOM     16  C   UNL     1       1.924   4.719  18.912  0.00  0.00    +0.000 A 
ATOM     17  N   UNL     1       1.086   3.906  19.563  0.00  0.00    +0.000 NA
ATOM     18  N   UNL     1       1.770   3.589  20.679  0.00  0.00    +0.000 N 
ATOM     19  C   UNL     1       1.193   2.695  21.653  0.00  0.00    +0.000 C 
ATOM     20  C   UNL     1       3.008   4.163  20.747  0.00  0.00    +0.000 A 
ENDBRANCH  13  15
ENDBRANCH   9  13
TORSDOF 2
ENDMDL
MODEL 9
REMARK VINA RESULT:      -6.1      4.021      5.584
REMARK  Name = 
REMARK  4 active torsions:
REMARK  status: ('A' for Active; 'I' for Inactive)
REMARK    1  A    between atoms: C_1  and  C_2
REMARK    2  A    between atoms: C_9  and  N_10
REMARK    3  A    between atoms: N_10  and  C_11
REMARK    4  A    between atoms: N_14  and  C_15
REMARK                            x       y       z     vdW  Elec       q    Type
REMARK                         _______ _______ _______ _____ _____    ______ ____
ROOT
ATOM      1  C   UNL     1       0.574  11.543  18.973  0.00  0.00    +0.000 C 
ATOM      2  C   UNL     1       0.791  10.407  19.901  0.00  0.00    +0.000 A 
ATOM      3  C   UNL     1       0.569  10.378  21.260  0.00  0.00    +0.000 A 
ATOM      4  S   UNL     1       0.913   8.819  21.873  0.00  0.00    +0.000 S 
ATOM      5  C   UNL     1       1.372   8.281  20.291  0.00  0.00    +0.000 A 
ATOM      6  N   UNL     1       1.790   7.019  19.988  0.00  0.00    +0.000 N 
ATOM      7  C   UNL     1       2.720   6.877  18.865  0.00  0.00    +0.000 C 
ATOM      8  C   UNL     1       2.371   5.616  18.090  0.00  0.00    +0.000 C 
ATOM      9  C   UNL     1       2.383   4.381  18.993  0.00  0.00    +0.000 C 
ATOM     10  C   UNL     1       1.505   4.612  20.234  0.00  0.00    +0.000 C 
ATOM     11  C   UNL     1       1.817   5.929  20.952  0.00  0.00    +0.000 C 
ATOM     12  N   UNL     1       1.265   9.222  19.375  0.00  0.00    +0.000 NA
ENDROOT
BRANCH   9  13
ATOM     13  N   UNL     1       3.747   4.014  19.403  0.00  0.00    +0.000 N 
ATOM     14  H   UNL     1       3.822   3.068  19.770  0.00  0.00    +0.000 HD
BRANCH  13  15
ATOM     15  C   UNL     1       4.845   4.504  18.780  0.00  0.00    +0.000 A 
ATOM     16  C   UNL     1       5.280   4.199  17.473  0.00  0.00    +0.000 A 
ATOM     17  N   UNL     1       6.394   4.857  17.137  0.00  0.00    +0.000 NA
ATOM     18  N   UNL     1       6.679   5.565  18.246  0.00  0.00    +0.000 N 
ATOM     19  C   UNL     1       7.828   6.435  18.275  0.00  0.00    +0.000 C 
ATOM     20  C   UNL     1       5.781   5.384  19.261  0.00  0.00    +0.000 A 
ENDBRANCH  13  15
ENDBRANCH   9  13
TORSDOF 2
ENDMDL
