MODEL 1
REMARK VINA RESULT:      -7.9      0.000      0.000
REMARK  Name = 
REMARK  11 active torsions:
REMARK  status: ('A' for Active; 'I' for Inactive)
REMARK    1  A    between atoms: C_1  and  C_2
REMARK    2  A    between atoms: C_5  and  C_6
REMARK    3  A    between atoms: C_6  and  C_7
REMARK    4  A    between atoms: C_6  and  C_8
REMARK    5  A    between atoms: C_6  and  N_13
REMARK    6  A    between atoms: C_8  and  C_9
REMARK    7  A    between atoms: C_14  and  C_16
REMARK    8  A    between atoms: C_18  and  O_19
REMARK    9  A    between atoms: O_19  and  C_20
REMARK   10  A    between atoms: C_20  and  C_21
REMARK   11  A    between atoms: C_25  and  C_26
REMARK                            x       y       z     vdW  Elec       q    Type
REMARK                         _______ _______ _______ _____ _____    ______ ____
ROOT
ATOM      1  N   UNL     1       1.267   9.103  19.662  0.00  0.00    +0.000 N 
ATOM      2  C   UNL     1       1.934   8.691  18.531  0.00  0.00    +0.000 C 
ATOM      3  O   UNL     1       2.075   9.381  17.527  0.00  0.00    +0.000 OA
ATOM      4  H   UNL     1       1.250   8.447  20.445  0.00  0.00    +0.000 HD
ENDROOT
BRANCH   2   5
ATOM      5  C   UNL     1       2.517   7.313  18.590  0.00  0.00    +0.000 A 
ATOM      6  C   UNL     1       3.174   6.813  17.475  0.00  0.00    +0.000 A 
ATOM      7  C   UNL     1       3.754   5.552  17.564  0.00  0.00    +0.000 A 
ATOM      8  C   UNL     1       3.670   4.808  18.758  0.00  0.00    +0.000 A 
ATOM      9  C   UNL     1       2.971   5.418  19.806  0.00  0.00    +0.000 A 
ATOM     10  N   UNL     1       2.391   6.642  19.761  0.00  0.00    +0.000 NA
BRANCH   8  11
ATOM     11  C   UNL     1       4.348   3.466  18.942  0.00  0.00    +0.000 C 
ATOM     12  C   UNL     1       3.932   2.517  20.044  0.00  0.00    +0.000 C 
ATOM     13  C   UNL     1       3.608   2.188  18.619  0.00  0.00    +0.000 C 
ENDBRANCH   8  11
BRANCH   7  14
ATOM     14  O   UNL     1       4.507   4.997  16.559  0.00  0.00    +0.000 OA
BRANCH  14  15
ATOM     15  C   UNL     1       5.778   5.597  16.277  0.00  0.00    +0.000 C 
BRANCH  15  16
ATOM     16  C   UNL     1       6.796   4.539  15.853  0.00  0.00    +0.000 C 
ATOM     17  F   UNL     1       6.226   3.359  15.530  0.00  0.00    +0.000 F 
ATOM     18  F   UNL     1       7.507   4.953  14.778  0.00  0.00    +0.000 F 
ATOM     19  F   UNL     1       7.682   4.300  16.850  0.00  0.00    +0.000 F 
ENDBRANCH  15  16
ENDBRANCH  14  15
ENDBRANCH   7  14
ENDBRANCH   2   5
BRANCH   1  20
ATOM     20  C   UNL     1       0.631  10.420  19.825  0.00  0.00    +0.000 C 
ATOM     21  C   UNL     1      -0.537  10.557  18.825  0.00  0.00    +0.000 C 
BRANCH  20  26
ATOM     22  C   UNL     1      -2.399  11.872  23.347  0.00  0.00    +0.000 C 
ATOM     23  C   UNL     1      -1.256  11.147  22.761  0.00  0.00    +0.000 A 
ATOM     24  N   UNL     1      -0.334  10.417  23.346  0.00  0.00    +0.000 NA
ATOM     25  N   UNL     1       0.524   9.996  22.346  0.00  0.00    +0.000 NA
ATOM     26  C   UNL     1       0.059  10.500  21.221  0.00  0.00    +0.000 A 
ATOM     27  O   UNL     1      -1.076  11.250  21.409  0.00  0.00    +0.000 OA
ENDBRANCH  20  26
BRANCH  20  28
ATOM     28  C   UNL     1       1.658  11.569  19.611  0.00  0.00    +0.000 C 
BRANCH  28  29
ATOM     29  C   UNL     1       1.077  12.743  18.823  0.00  0.00    +0.000 C 
ATOM     30  C   UNL     1       0.738  14.004  19.637  0.00  0.00    +0.000 C 
ATOM     31  O   UNL     1       1.320  14.847  18.606  0.00  0.00    +0.000 OA
ATOM     32  C   UNL     1       2.039  13.697  18.087  0.00  0.00    +0.000 C 
ENDBRANCH  28  29
ENDBRANCH  20  28
ENDBRANCH   1  20
TORSDOF 9
ENDMDL
MODEL 2
REMARK VINA RESULT:      -7.8      1.215      1.501
REMARK  Name = 
REMARK  11 active torsions:
REMARK  status: ('A' for Active; 'I' for Inactive)
REMARK    1  A    between atoms: C_1  and  C_2
REMARK    2  A    between atoms: C_5  and  C_6
REMARK    3  A    between atoms: C_6  and  C_7
REMARK    4  A    between atoms: C_6  and  C_8
REMARK    5  A    between atoms: C_6  and  N_13
REMARK    6  A    between atoms: C_8  and  C_9
REMARK    7  A    between atoms: C_14  and  C_16
REMARK    8  A    between atoms: C_18  and  O_19
REMARK    9  A    between atoms: O_19  and  C_20
REMARK   10  A    between atoms: C_20  and  C_21
REMARK   11  A    between atoms: C_25  and  C_26
REMARK                            x       y       z     vdW  Elec       q    Type
REMARK                         _______ _______ _______ _____ _____    ______ ____
ROOT
ATOM      1  N   UNL     1       1.174   9.193  19.501  0.00  0.00    +0.000 N 
ATOM      2  C   UNL     1       1.893   8.773  18.405  0.00  0.00    +0.000 C 
ATOM      3  O   UNL     1       2.034   9.435  17.382  0.00  0.00    +0.000 OA
ATOM      4  H   UNL     1       1.161   8.564  20.306  0.00  0.00    +0.000 HD
ENDROOT
BRANCH   2   5
ATOM      5  C   UNL     1       2.531   7.425  18.529  0.00  0.00    +0.000 A 
ATOM      6  C   UNL     1       3.654   7.141  17.765  0.00  0.00    +0.000 A 
ATOM      7  C   UNL     1       4.266   5.902  17.930  0.00  0.00    +0.000 A 
ATOM      8  C   UNL     1       3.750   4.966  18.849  0.00  0.00    +0.000 A 
ATOM      9  C   UNL     1       2.608   5.368  19.550  0.00  0.00    +0.000 A 
ATOM     10  N   UNL     1       1.980   6.563  19.419  0.00  0.00    +0.000 NA
BRANCH   8  11
ATOM     11  C   UNL     1       4.417   3.635  19.132  0.00  0.00    +0.000 C 
ATOM     12  C   UNL     1       3.787   2.619  20.057  0.00  0.00    +0.000 C 
ATOM     13  C   UNL     1       3.826   2.356  18.583  0.00  0.00    +0.000 C 
ENDBRANCH   8  11
BRANCH   7  14
ATOM     14  O   UNL     1       5.432   5.549  17.300  0.00  0.00    +0.000 OA
BRANCH  14  15
ATOM     15  C   UNL     1       6.560   6.421  17.457  0.00  0.00    +0.000 C 
BRANCH  15  16
ATOM     16  C   UNL     1       7.491   5.912  18.558  0.00  0.00    +0.000 C 
ATOM     17  F   UNL     1       6.854   5.697  19.729  0.00  0.00    +0.000 F 
ATOM     18  F   UNL     1       8.078   4.747  18.196  0.00  0.00    +0.000 F 
ATOM     19  F   UNL     1       8.482   6.803  18.796  0.00  0.00    +0.000 F 
ENDBRANCH  15  16
ENDBRANCH  14  15
ENDBRANCH   7  14
ENDBRANCH   2   5
BRANCH   1  20
ATOM     20  C   UNL     1       0.478  10.486  19.599  0.00  0.00    +0.000 C 
ATOM     21  C   UNL     1      -0.765  10.474  18.685  0.00  0.00    +0.000 C 
BRANCH  20  26
ATOM     22  C   UNL     1      -2.444  11.975  23.197  0.00  0.00    +0.000 C 
ATOM     23  C   UNL     1      -1.264  11.326  22.595  0.00  0.00    +0.000 A 
ATOM     24  N   UNL     1      -0.216  10.784  23.171  0.00  0.00    +0.000 NA
ATOM     25  N   UNL     1       0.612  10.352  22.152  0.00  0.00    +0.000 NA
ATOM     26  C   UNL     1       0.005  10.661  21.024  0.00  0.00    +0.000 A 
ATOM     27  O   UNL     1      -1.199  11.290  21.228  0.00  0.00    +0.000 OA
ENDBRANCH  20  26
BRANCH  20  28
ATOM     28  C   UNL     1       1.420  11.661  19.210  0.00  0.00    +0.000 C 
BRANCH  28  29
ATOM     29  C   UNL     1       0.945  13.007  19.759  0.00  0.00    +0.000 C 
ATOM     30  C   UNL     1       2.040  14.053  20.026  0.00  0.00    +0.000 C 
ATOM     31  O   UNL     1       1.217  15.093  19.433  0.00  0.00    +0.000 OA
ATOM     32  C   UNL     1       0.421  14.071  18.775  0.00  0.00    +0.000 C 
ENDBRANCH  28  29
ENDBRANCH  20  28
ENDBRANCH   1  20
TORSDOF 9
ENDMDL
MODEL 3
REMARK VINA RESULT:      -7.7      3.089      4.573
REMARK  Name = 
REMARK  11 active torsions:
REMARK  status: ('A' for Active; 'I' for Inactive)
REMARK    1  A    between atoms: C_1  and  C_2
REMARK    2  A    between atoms: C_5  and  C_6
REMARK    3  A    between atoms: C_6  and  C_7
REMARK    4  A    between atoms: C_6  and  C_8
REMARK    5  A    between atoms: C_6  and  N_13
REMARK    6  A    between atoms: C_8  and  C_9
REMARK    7  A    between atoms: C_14  and  C_16
REMARK    8  A    between atoms: C_18  and  O_19
REMARK    9  A    between atoms: O_19  and  C_20
REMARK   10  A    between atoms: C_20  and  C_21
REMARK   11  A    between atoms: C_25  and  C_26
REMARK                            x       y       z     vdW  Elec       q    Type
REMARK                         _______ _______ _______ _____ _____    ______ ____
ROOT
ATOM      1  N   UNL     1       1.017   9.581  18.965  0.00  0.00    +0.000 N 
ATOM      2  C   UNL     1       1.598   8.625  19.768  0.00  0.00    +0.000 C 
ATOM      3  O   UNL     1       1.472   8.583  20.987  0.00  0.00    +0.000 OA
ATOM      4  H   UNL     1       1.169   9.486  17.960  0.00  0.00    +0.000 HD
ENDROOT
BRANCH   2   5
ATOM      5  C   UNL     1       2.411   7.590  19.054  0.00  0.00    +0.000 A 
ATOM      6  C   UNL     1       2.401   6.286  19.526  0.00  0.00    +0.000 A 
ATOM      7  C   UNL     1       3.121   5.326  18.822  0.00  0.00    +0.000 A 
ATOM      8  C   UNL     1       3.840   5.679  17.661  0.00  0.00    +0.000 A 
ATOM      9  C   UNL     1       3.779   7.028  17.296  0.00  0.00    +0.000 A 
ATOM     10  N   UNL     1       3.092   7.995  17.954  0.00  0.00    +0.000 NA
BRANCH   8  11
ATOM     11  C   UNL     1       4.575   4.666  16.808  0.00  0.00    +0.000 C 
ATOM     12  C   UNL     1       5.411   5.094  15.623  0.00  0.00    +0.000 C 
ATOM     13  C   UNL     1       6.083   4.580  16.858  0.00  0.00    +0.000 C 
ENDBRANCH   8  11
BRANCH   7  14
ATOM     14  O   UNL     1       3.108   3.991  19.140  0.00  0.00    +0.000 OA
BRANCH  14  15
ATOM     15  C   UNL     1       2.799   3.637  20.495  0.00  0.00    +0.000 C 
BRANCH  15  16
ATOM     16  C   UNL     1       1.458   2.908  20.574  0.00  0.00    +0.000 C 
ATOM     17  F   UNL     1       0.413   3.687  20.227  0.00  0.00    +0.000 F 
ATOM     18  F   UNL     1       1.446   1.827  19.759  0.00  0.00    +0.000 F 
ATOM     19  F   UNL     1       1.229   2.462  21.833  0.00  0.00    +0.000 F 
ENDBRANCH  15  16
ENDBRANCH  14  15
ENDBRANCH   7  14
ENDBRANCH   2   5
BRANCH   1  20
ATOM     20  C   UNL     1       0.169  10.680  19.454  0.00  0.00    +0.000 C 
ATOM     21  C   UNL     1      -0.689  10.184  20.637  0.00  0.00    +0.000 C 
BRANCH  20  26
ATOM     22  C   UNL     1       3.350  14.354  19.175  0.00  0.00    +0.000 C 
ATOM     23  C   UNL     1       2.470  13.375  19.841  0.00  0.00    +0.000 A 
ATOM     24  N   UNL     1       2.300  13.131  21.121  0.00  0.00    +0.000 NA
ATOM     25  N   UNL     1       1.390  12.094  21.203  0.00  0.00    +0.000 NA
ATOM     26  C   UNL     1       1.069  11.781  19.964  0.00  0.00    +0.000 A 
ATOM     27  O   UNL     1       1.723  12.557  19.039  0.00  0.00    +0.000 OA
ENDBRANCH  20  26
BRANCH  20  28
ATOM     28  C   UNL     1      -0.746  11.230  18.321  0.00  0.00    +0.000 C 
BRANCH  28  29
ATOM     29  C   UNL     1      -1.987  10.366  18.092  0.00  0.00    +0.000 C 
ATOM     30  C   UNL     1      -3.320  11.122  17.953  0.00  0.00    +0.000 C 
ATOM     31  O   UNL     1      -3.704  10.274  16.837  0.00  0.00    +0.000 OA
ATOM     32  C   UNL     1      -2.313   9.895  16.662  0.00  0.00    +0.000 C 
ENDBRANCH  28  29
ENDBRANCH  20  28
ENDBRANCH   1  20
TORSDOF 9
ENDMDL
MODEL 4
REMARK VINA RESULT:      -7.7      1.729      3.323
REMARK  Name = 
REMARK  11 active torsions:
REMARK  status: ('A' for Active; 'I' for Inactive)
REMARK    1  A    between atoms: C_1  and  C_2
REMARK    2  A    between atoms: C_5  and  C_6
REMARK    3  A    between atoms: C_6  and  C_7
REMARK    4  A    between atoms: C_6  and  C_8
REMARK    5  A    between atoms: C_6  and  N_13
REMARK    6  A    between atoms: C_8  and  C_9
REMARK    7  A    between atoms: C_14  and  C_16
REMARK    8  A    between atoms: C_18  and  O_19
REMARK    9  A    between atoms: O_19  and  C_20
REMARK   10  A    between atoms: C_20  and  C_21
REMARK   11  A    between atoms: C_25  and  C_26
REMARK                            x       y       z     vdW  Elec       q    Type
REMARK                         _______ _______ _______ _____ _____    ______ ____
ROOT
ATOM      1  N   UNL     1       1.197   9.271  19.332  0.00  0.00    +0.000 N 
ATOM      2  C   UNL     1       2.014   8.804  18.327  0.00  0.00    +0.000 C 
ATOM      3  O   UNL     1       2.350   9.467  17.351  0.00  0.00    +0.000 OA
ATOM      4  H   UNL     1       1.020   8.633  20.109  0.00  0.00    +0.000 HD
ENDROOT
BRANCH   2   5
ATOM      5  C   UNL     1       2.505   7.400  18.495  0.00  0.00    +0.000 A 
ATOM      6  C   UNL     1       3.206   6.805  17.456  0.00  0.00    +0.000 A 
ATOM      7  C   UNL     1       3.700   5.519  17.647  0.00  0.00    +0.000 A 
ATOM      8  C   UNL     1       3.488   4.845  18.866  0.00  0.00    +0.000 A 
ATOM      9  C   UNL     1       2.757   5.548  19.830  0.00  0.00    +0.000 A 
ATOM     10  N   UNL     1       2.257   6.800  19.685  0.00  0.00    +0.000 NA
BRANCH   8  11
ATOM     11  C   UNL     1       4.069   3.478  19.164  0.00  0.00    +0.000 C 
ATOM     12  C   UNL     1       3.500   2.601  20.256  0.00  0.00    +0.000 C 
ATOM     13  C   UNL     1       3.289   2.228  18.821  0.00  0.00    +0.000 C 
ENDBRANCH   8  11
BRANCH   7  14
ATOM     14  O   UNL     1       4.486   4.870  16.728  0.00  0.00    +0.000 OA
BRANCH  14  15
ATOM     15  C   UNL     1       5.629   5.573  16.220  0.00  0.00    +0.000 C 
BRANCH  15  16
ATOM     16  C   UNL     1       6.708   4.594  15.759  0.00  0.00    +0.000 C 
ATOM     17  F   UNL     1       7.427   5.055  14.714  0.00  0.00    +0.000 F 
ATOM     18  F   UNL     1       7.578   4.324  16.761  0.00  0.00    +0.000 F 
ATOM     19  F   UNL     1       6.156   3.416  15.381  0.00  0.00    +0.000 F 
ENDBRANCH  15  16
ENDBRANCH  14  15
ENDBRANCH   7  14
ENDBRANCH   2   5
BRANCH   1  20
ATOM     20  C   UNL     1       0.614  10.622  19.376  0.00  0.00    +0.000 C 
ATOM     21  C   UNL     1       1.500  11.593  18.567  0.00  0.00    +0.000 C 
BRANCH  20  26
ATOM     22  C   UNL     1      -2.638   9.630  15.892  0.00  0.00    +0.000 C 
ATOM     23  C   UNL     1      -2.160  10.154  17.185  0.00  0.00    +0.000 A 
ATOM     24  N   UNL     1      -2.803  10.831  18.108  0.00  0.00    +0.000 NA
ATOM     25  N   UNL     1      -1.884  11.107  19.103  0.00  0.00    +0.000 NA
ATOM     26  C   UNL     1      -0.744  10.573  18.714  0.00  0.00    +0.000 A 
ATOM     27  O   UNL     1      -0.843   9.949  17.495  0.00  0.00    +0.000 OA
ENDBRANCH  20  26
BRANCH  20  28
ATOM     28  C   UNL     1       0.467  11.122  20.842  0.00  0.00    +0.000 C 
BRANCH  28  29
ATOM     29  C   UNL     1      -0.066  10.043  21.785  0.00  0.00    +0.000 C 
ATOM     30  C   UNL     1       0.961   9.415  22.743  0.00  0.00    +0.000 C 
ATOM     31  O   UNL     1       0.008   9.485  23.838  0.00  0.00    +0.000 OA
ATOM     32  C   UNL     1      -0.756  10.472  23.094  0.00  0.00    +0.000 C 
ENDBRANCH  28  29
ENDBRANCH  20  28
ENDBRANCH   1  20
TORSDOF 9
ENDMDL
MODEL 5
REMARK VINA RESULT:      -7.7      3.131      4.693
REMARK  Name = 
REMARK  11 active torsions:
REMARK  status: ('A' for Active; 'I' for Inactive)
REMARK    1  A    between atoms: C_1  and  C_2
REMARK    2  A    between atoms: C_5  and  C_6
REMARK    3  A    between atoms: C_6  and  C_7
REMARK    4  A    between atoms: C_6  and  C_8
REMARK    5  A    between atoms: C_6  and  N_13
REMARK    6  A    between atoms: C_8  and  C_9
REMARK    7  A    between atoms: C_14  and  C_16
REMARK    8  A    between atoms: C_18  and  O_19
REMARK    9  A    between atoms: O_19  and  C_20
REMARK   10  A    between atoms: C_20  and  C_21
REMARK   11  A    between atoms: C_25  and  C_26
REMARK                            x       y       z     vdW  Elec       q    Type
REMARK                         _______ _______ _______ _____ _____    ______ ____
ROOT
ATOM      1  N   UNL     1       1.062   9.376  18.857  0.00  0.00    +0.000 N 
ATOM      2  C   UNL     1       1.706   8.418  19.608  0.00  0.00    +0.000 C 
ATOM      3  O   UNL     1       1.617   8.327  20.828  0.00  0.00    +0.000 OA
ATOM      4  H   UNL     1       1.189   9.323  17.845  0.00  0.00    +0.000 HD
ENDROOT
BRANCH   2   5
ATOM      5  C   UNL     1       2.540   7.445  18.834  0.00  0.00    +0.000 A 
ATOM      6  C   UNL     1       2.472   6.097  19.157  0.00  0.00    +0.000 A 
ATOM      7  C   UNL     1       3.214   5.200  18.395  0.00  0.00    +0.000 A 
ATOM      8  C   UNL     1       4.013   5.657  17.327  0.00  0.00    +0.000 A 
ATOM      9  C   UNL     1       4.004   7.040  17.110  0.00  0.00    +0.000 A 
ATOM     10  N   UNL     1       3.298   7.948  17.829  0.00  0.00    +0.000 NA
BRANCH   8  11
ATOM     11  C   UNL     1       4.778   4.724  16.412  0.00  0.00    +0.000 C 
ATOM     12  C   UNL     1       5.799   5.247  15.428  0.00  0.00    +0.000 C 
ATOM     13  C   UNL     1       6.255   4.484  16.633  0.00  0.00    +0.000 C 
ENDBRANCH   8  11
BRANCH   7  14
ATOM     14  O   UNL     1       3.152   3.839  18.561  0.00  0.00    +0.000 OA
BRANCH  14  15
ATOM     15  C   UNL     1       2.027   3.154  17.993  0.00  0.00    +0.000 C 
BRANCH  15  16
ATOM     16  C   UNL     1       1.095   2.639  19.090  0.00  0.00    +0.000 C 
ATOM     17  F   UNL     1       0.562   3.629  19.837  0.00  0.00    +0.000 F 
ATOM     18  F   UNL     1       0.067   1.933  18.560  0.00  0.00    +0.000 F 
ATOM     19  F   UNL     1       1.757   1.810  19.931  0.00  0.00    +0.000 F 
ENDBRANCH  15  16
ENDBRANCH  14  15
ENDBRANCH   7  14
ENDBRANCH   2   5
BRANCH   1  20
ATOM     20  C   UNL     1       0.184  10.419  19.410  0.00  0.00    +0.000 C 
ATOM     21  C   UNL     1       1.006  11.698  19.678  0.00  0.00    +0.000 C 
BRANCH  20  26
ATOM     22  C   UNL     1      -2.742   9.660  15.594  0.00  0.00    +0.000 C 
ATOM     23  C   UNL     1      -2.130  10.424  16.697  0.00  0.00    +0.000 A 
ATOM     24  N   UNL     1      -2.277  11.686  17.030  0.00  0.00    +0.000 NA
ATOM     25  N   UNL     1      -1.454  11.903  18.119  0.00  0.00    +0.000 NA
ATOM     26  C   UNL     1      -0.865  10.752  18.374  0.00  0.00    +0.000 A 
ATOM     27  O   UNL     1      -1.246   9.761  17.504  0.00  0.00    +0.000 OA
ENDBRANCH  20  26
BRANCH  20  28
ATOM     28  C   UNL     1      -0.504   9.938  20.720  0.00  0.00    +0.000 C 
BRANCH  28  29
ATOM     29  C   UNL     1      -0.553  11.024  21.796  0.00  0.00    +0.000 C 
ATOM     30  C   UNL     1      -1.805  11.918  21.799  0.00  0.00    +0.000 C 
ATOM     31  O   UNL     1      -1.886  11.828  23.247  0.00  0.00    +0.000 OA
ATOM     32  C   UNL     1      -1.036  10.651  23.210  0.00  0.00    +0.000 C 
ENDBRANCH  28  29
ENDBRANCH  20  28
ENDBRANCH   1  20
TORSDOF 9
ENDMDL
MODEL 6
REMARK VINA RESULT:      -7.6      3.226      4.857
REMARK  Name = 
REMARK  11 active torsions:
REMARK  status: ('A' for Active; 'I' for Inactive)
REMARK    1  A    between atoms: C_1  and  C_2
REMARK    2  A    between atoms: C_5  and  C_6
REMARK    3  A    between atoms: C_6  and  C_7
REMARK    4  A    between atoms: C_6  and  C_8
REMARK    5  A    between atoms: C_6  and  N_13
REMARK    6  A    between atoms: C_8  and  C_9
REMARK    7  A    between atoms: C_14  and  C_16
REMARK    8  A    between atoms: C_18  and  O_19
REMARK    9  A    between atoms: O_19  and  C_20
REMARK   10  A    between atoms: C_20  and  C_21
REMARK   11  A    between atoms: C_25  and  C_26
REMARK                            x       y       z     vdW  Elec       q    Type
REMARK                         _______ _______ _______ _____ _____    ______ ____
ROOT
ATOM      1  N   UNL     1       0.400   9.786  19.080  0.00  0.00    +0.000 N 
ATOM      2  C   UNL     1       1.625   9.754  18.453  0.00  0.00    +0.000 C 
ATOM      3  O   UNL     1       2.169  10.736  17.959  0.00  0.00    +0.000 OA
ATOM      4  H   UNL     1       0.071   8.906  19.482  0.00  0.00    +0.000 HD
ENDROOT
BRANCH   2   5
ATOM      5  C   UNL     1       2.297   8.416  18.414  0.00  0.00    +0.000 A 
ATOM      6  C   UNL     1       2.125   7.548  19.482  0.00  0.00    +0.000 A 
ATOM      7  C   UNL     1       2.713   6.290  19.407  0.00  0.00    +0.000 A 
ATOM      8  C   UNL     1       3.463   5.916  18.273  0.00  0.00    +0.000 A 
ATOM      9  C   UNL     1       3.571   6.885  17.270  0.00  0.00    +0.000 A 
ATOM     10  N   UNL     1       3.015   8.122  17.303  0.00  0.00    +0.000 NA
BRANCH   8  11
ATOM     11  C   UNL     1       4.059   4.534  18.098  0.00  0.00    +0.000 C 
ATOM     12  C   UNL     1       5.122   4.261  17.059  0.00  0.00    +0.000 C 
ATOM     13  C   UNL     1       5.488   4.264  18.511  0.00  0.00    +0.000 C 
ENDBRANCH   8  11
BRANCH   7  14
ATOM     14  O   UNL     1       2.534   5.317  20.359  0.00  0.00    +0.000 OA
BRANCH  14  15
ATOM     15  C   UNL     1       1.214   4.778  20.513  0.00  0.00    +0.000 C 
BRANCH  15  16
ATOM     16  C   UNL     1       1.246   3.250  20.498  0.00  0.00    +0.000 C 
ATOM     17  F   UNL     1       2.464   2.751  20.196  0.00  0.00    +0.000 F 
ATOM     18  F   UNL     1       0.889   2.745  21.702  0.00  0.00    +0.000 F 
ATOM     19  F   UNL     1       0.373   2.762  19.584  0.00  0.00    +0.000 F 
ENDBRANCH  15  16
ENDBRANCH  14  15
ENDBRANCH   7  14
ENDBRANCH   2   5
BRANCH   1  20
ATOM     20  C   UNL     1      -0.425  10.993  19.243  0.00  0.00    +0.000 C 
ATOM     21  C   UNL     1       0.365  12.228  18.758  0.00  0.00    +0.000 C 
BRANCH  20  26
ATOM     22  C   UNL     1      -2.987   9.768  15.290  0.00  0.00    +0.000 C 
ATOM     23  C   UNL     1      -2.763  10.332  16.634  0.00  0.00    +0.000 A 
ATOM     24  N   UNL     1      -3.591  10.975  17.426  0.00  0.00    +0.000 NA
ATOM     25  N   UNL     1      -2.868  11.317  18.553  0.00  0.00    +0.000 NA
ATOM     26  C   UNL     1      -1.648  10.853  18.368  0.00  0.00    +0.000 A 
ATOM     27  O   UNL     1      -1.506  10.214  17.161  0.00  0.00    +0.000 OA
ENDBRANCH  20  26
BRANCH  20  28
ATOM     28  C   UNL     1      -0.857  11.181  20.726  0.00  0.00    +0.000 C 
BRANCH  28  29
ATOM     29  C   UNL     1      -0.423  10.020  21.621  0.00  0.00    +0.000 C 
ATOM     30  C   UNL     1       1.022  10.074  22.146  0.00  0.00    +0.000 C 
ATOM     31  O   UNL     1       0.576   9.663  23.466  0.00  0.00    +0.000 OA
ATOM     32  C   UNL     1      -0.778  10.060  23.120  0.00  0.00    +0.000 C 
ENDBRANCH  28  29
ENDBRANCH  20  28
ENDBRANCH   1  20
TORSDOF 9
ENDMDL
MODEL 7
REMARK VINA RESULT:      -7.6      2.644      3.455
REMARK  Name = 
REMARK  11 active torsions:
REMARK  status: ('A' for Active; 'I' for Inactive)
REMARK    1  A    between atoms: C_1  and  C_2
REMARK    2  A    between atoms: C_5  and  C_6
REMARK    3  A    between atoms: C_6  and  C_7
REMARK    4  A    between atoms: C_6  and  C_8
REMARK    5  A    between atoms: C_6  and  N_13
REMARK    6  A    between atoms: C_8  and  C_9
REMARK    7  A    between atoms: C_14  and  C_16
REMARK    8  A    between atoms: C_18  and  O_19
REMARK    9  A    between atoms: O_19  and  C_20
REMARK   10  A    between atoms: C_20  and  C_21
REMARK   11  A    between atoms: C_25  and  C_26
REMARK                            x       y       z     vdW  Elec       q    Type
REMARK                         _______ _______ _______ _____ _____    ______ ____
ROOT
ATOM      1  N   UNL     1       1.149   9.627  19.537  0.00  0.00    +0.000 N 
ATOM      2  C   UNL     1       1.853   9.311  18.396  0.00  0.00    +0.000 C 
ATOM      3  O   UNL     1       1.919  10.035  17.408  0.00  0.00    +0.000 OA
ATOM      4  H   UNL     1       1.201   8.955  20.305  0.00  0.00    +0.000 HD
ENDROOT
BRANCH   2   5
ATOM      5  C   UNL     1       2.574   7.999  18.424  0.00  0.00    +0.000 A 
ATOM      6  C   UNL     1       2.348   7.132  19.484  0.00  0.00    +0.000 A 
ATOM      7  C   UNL     1       2.986   5.896  19.469  0.00  0.00    +0.000 A 
ATOM      8  C   UNL     1       3.839   5.543  18.403  0.00  0.00    +0.000 A 
ATOM      9  C   UNL     1       3.993   6.509  17.402  0.00  0.00    +0.000 A 
ATOM     10  N   UNL     1       3.391   7.724  17.379  0.00  0.00    +0.000 NA
BRANCH   8  11
ATOM     11  C   UNL     1       4.498   4.184  18.290  0.00  0.00    +0.000 C 
ATOM     12  C   UNL     1       3.786   3.015  17.648  0.00  0.00    +0.000 C 
ATOM     13  C   UNL     1       4.938   3.661  16.941  0.00  0.00    +0.000 C 
ENDBRANCH   8  11
BRANCH   7  14
ATOM     14  O   UNL     1       2.766   4.923  20.412  0.00  0.00    +0.000 OA
BRANCH  14  15
ATOM     15  C   UNL     1       1.408   4.527  20.648  0.00  0.00    +0.000 C 
BRANCH  15  16
ATOM     16  C   UNL     1       1.284   3.003  20.674  0.00  0.00    +0.000 C 
ATOM     17  F   UNL     1       2.456   2.375  20.443  0.00  0.00    +0.000 F 
ATOM     18  F   UNL     1       0.823   2.575  21.873  0.00  0.00    +0.000 F 
ATOM     19  F   UNL     1       0.406   2.579  19.733  0.00  0.00    +0.000 F 
ENDBRANCH  15  16
ENDBRANCH  14  15
ENDBRANCH   7  14
ENDBRANCH   2   5
BRANCH   1  20
ATOM     20  C   UNL     1       0.382  10.867  19.729  0.00  0.00    +0.000 C 
ATOM     21  C   UNL     1      -0.838  10.873  18.783  0.00  0.00    +0.000 C 
BRANCH  20  26
ATOM     22  C   UNL     1      -2.658  11.946  23.375  0.00  0.00    +0.000 C 
ATOM     23  C   UNL     1      -1.454  11.376  22.743  0.00  0.00    +0.000 A 
ATOM     24  N   UNL     1      -0.415  10.787  23.291  0.00  0.00    +0.000 NA
ATOM     25  N   UNL     1       0.447  10.472  22.257  0.00  0.00    +0.000 NA
ATOM     26  C   UNL     1      -0.133  10.890  21.149  0.00  0.00    +0.000 A 
ATOM     27  O   UNL     1      -1.350  11.481  21.383  0.00  0.00    +0.000 OA
ENDBRANCH  20  26
BRANCH  20  28
ATOM     28  C   UNL     1       1.267  12.120  19.471  0.00  0.00    +0.000 C 
BRANCH  28  29
ATOM     29  C   UNL     1       0.586  13.423  19.893  0.00  0.00    +0.000 C 
ATOM     30  C   UNL     1       1.522  14.580  20.281  0.00  0.00    +0.000 C 
ATOM     31  O   UNL     1       0.702  15.518  19.534  0.00  0.00    +0.000 OA
ATOM     32  C   UNL     1       0.118  14.407  18.803  0.00  0.00    +0.000 C 
ENDBRANCH  28  29
ENDBRANCH  20  28
ENDBRANCH   1  20
TORSDOF 9
ENDMDL
MODEL 8
REMARK VINA RESULT:      -7.6      3.378      4.932
REMARK  Name = 
REMARK  11 active torsions:
REMARK  status: ('A' for Active; 'I' for Inactive)
REMARK    1  A    between atoms: C_1  and  C_2
REMARK    2  A    between atoms: C_5  and  C_6
REMARK    3  A    between atoms: C_6  and  C_7
REMARK    4  A    between atoms: C_6  and  C_8
REMARK    5  A    between atoms: C_6  and  N_13
REMARK    6  A    between atoms: C_8  and  C_9
REMARK    7  A    between atoms: C_14  and  C_16
REMARK    8  A    between atoms: C_18  and  O_19
REMARK    9  A    between atoms: O_19  and  C_20
REMARK   10  A    between atoms: C_20  and  C_21
REMARK   11  A    between atoms: C_25  and  C_26
REMARK                            x       y       z     vdW  Elec       q    Type
REMARK                         _______ _______ _______ _____ _____    ______ ____
ROOT
ATOM      1  N   UNL     1      -0.202  10.497  18.330  0.00  0.00    +0.000 N 
ATOM      2  C   UNL     1       0.680  10.081  19.303  0.00  0.00    +0.000 C 
ATOM      3  O   UNL     1       0.732  10.558  20.431  0.00  0.00    +0.000 OA
ATOM      4  H   UNL     1      -0.169   9.995  17.441  0.00  0.00    +0.000 HD
ENDROOT
BRANCH   2   5
ATOM      5  C   UNL     1       1.597   8.965  18.908  0.00  0.00    +0.000 A 
ATOM      6  C   UNL     1       1.795   7.915  19.793  0.00  0.00    +0.000 A 
ATOM      7  C   UNL     1       2.610   6.861  19.391  0.00  0.00    +0.000 A 
ATOM      8  C   UNL     1       3.215   6.869  18.118  0.00  0.00    +0.000 A 
ATOM      9  C   UNL     1       2.945   7.990  17.324  0.00  0.00    +0.000 A 
ATOM     10  N   UNL     1       2.159   9.037  17.677  0.00  0.00    +0.000 NA
BRANCH   8  11
ATOM     11  C   UNL     1       4.045   5.716  17.593  0.00  0.00    +0.000 C 
ATOM     12  C   UNL     1       4.959   5.883  16.400  0.00  0.00    +0.000 C 
ATOM     13  C   UNL     1       5.547   5.718  17.767  0.00  0.00    +0.000 C 
ENDBRANCH   8  11
BRANCH   7  14
ATOM     14  O   UNL     1       2.802   5.729  20.143  0.00  0.00    +0.000 OA
BRANCH  14  15
ATOM     15  C   UNL     1       1.643   4.959  20.488  0.00  0.00    +0.000 C 
BRANCH  15  16
ATOM     16  C   UNL     1       1.452   3.798  19.512  0.00  0.00    +0.000 C 
ATOM     17  F   UNL     1       0.507   2.922  19.914  0.00  0.00    +0.000 F 
ATOM     18  F   UNL     1       1.092   4.248  18.287  0.00  0.00    +0.000 F 
ATOM     19  F   UNL     1       2.606   3.105  19.361  0.00  0.00    +0.000 F 
ENDBRANCH  15  16
ENDBRANCH  14  15
ENDBRANCH   7  14
ENDBRANCH   2   5
BRANCH   1  20
ATOM     20  C   UNL     1      -1.197  11.566  18.506  0.00  0.00    +0.000 C 
ATOM     21  C   UNL     1      -0.559  12.928  18.159  0.00  0.00    +0.000 C 
BRANCH  20  26
ATOM     22  C   UNL     1      -3.316  10.133  14.364  0.00  0.00    +0.000 C 
ATOM     23  C   UNL     1      -3.250  10.712  15.719  0.00  0.00    +0.000 A 
ATOM     24  N   UNL     1      -4.191  11.281  16.438  0.00  0.00    +0.000 NA
ATOM     25  N   UNL     1      -3.595  11.681  17.618  0.00  0.00    +0.000 NA
ATOM     26  C   UNL     1      -2.329  11.323  17.535  0.00  0.00    +0.000 A 
ATOM     27  O   UNL     1      -2.035  10.701  16.347  0.00  0.00    +0.000 OA
ENDBRANCH  20  26
BRANCH  20  28
ATOM     28  C   UNL     1      -1.748  11.586  19.961  0.00  0.00    +0.000 C 
BRANCH  28  29
ATOM     29  C   UNL     1      -1.878  13.002  20.525  0.00  0.00    +0.000 C 
ATOM     30  C   UNL     1      -3.286  13.423  20.978  0.00  0.00    +0.000 C 
ATOM     31  O   UNL     1      -2.738  14.030  22.179  0.00  0.00    +0.000 OA
ATOM     32  C   UNL     1      -1.525  13.251  22.004  0.00  0.00    +0.000 C 
ENDBRANCH  28  29
ENDBRANCH  20  28
ENDBRANCH   1  20
TORSDOF 9
ENDMDL
MODEL 9
REMARK VINA RESULT:      -7.5      1.696      2.959
REMARK  Name = 
REMARK  11 active torsions:
REMARK  status: ('A' for Active; 'I' for Inactive)
REMARK    1  A    between atoms: C_1  and  C_2
REMARK    2  A    between atoms: C_5  and  C_6
REMARK    3  A    between atoms: C_6  and  C_7
REMARK    4  A    between atoms: C_6  and  C_8
REMARK    5  A    between atoms: C_6  and  N_13
REMARK    6  A    between atoms: C_8  and  C_9
REMARK    7  A    between atoms: C_14  and  C_16
REMARK    8  A    between atoms: C_18  and  O_19
REMARK    9  A    between atoms: O_19  and  C_20
REMARK   10  A    between atoms: C_20  and  C_21
REMARK   11  A    between atoms: C_25  and  C_26
REMARK                            x       y       z     vdW  Elec       q    Type
REMARK                         _______ _______ _______ _____ _____    ______ ____
ROOT
ATOM      1  N   UNL     1       0.985   9.292  19.437  0.00  0.00    +0.000 N 
ATOM      2  C   UNL     1       1.829   9.001  18.389  0.00  0.00    +0.000 C 
ATOM      3  O   UNL     1       2.002   9.737  17.423  0.00  0.00    +0.000 OA
ATOM      4  H   UNL     1       0.956   8.613  20.200  0.00  0.00    +0.000 HD
ENDROOT
BRANCH   2   5
ATOM      5  C   UNL     1       2.566   7.703  18.494  0.00  0.00    +0.000 A 
ATOM      6  C   UNL     1       3.662   7.484  17.672  0.00  0.00    +0.000 A 
ATOM      7  C   UNL     1       4.367   6.294  17.818  0.00  0.00    +0.000 A 
ATOM      8  C   UNL     1       3.970   5.340  18.777  0.00  0.00    +0.000 A 
ATOM      9  C   UNL     1       2.843   5.674  19.536  0.00  0.00    +0.000 A 
ATOM     10  N   UNL     1       2.128   6.821  19.425  0.00  0.00    +0.000 NA
BRANCH   8  11
ATOM     11  C   UNL     1       4.743   4.063  19.038  0.00  0.00    +0.000 C 
ATOM     12  C   UNL     1       4.141   2.927  19.833  0.00  0.00    +0.000 C 
ATOM     13  C   UNL     1       4.339   2.776  18.356  0.00  0.00    +0.000 C 
ENDBRANCH   8  11
BRANCH   7  14
ATOM     14  O   UNL     1       5.518   6.011  17.126  0.00  0.00    +0.000 OA
BRANCH  14  15
ATOM     15  C   UNL     1       5.381   5.470  15.805  0.00  0.00    +0.000 C 
BRANCH  15  16
ATOM     16  C   UNL     1       6.460   4.422  15.532  0.00  0.00    +0.000 C 
ATOM     17  F   UNL     1       5.965   3.170  15.430  0.00  0.00    +0.000 F 
ATOM     18  F   UNL     1       7.118   4.693  14.381  0.00  0.00    +0.000 F 
ATOM     19  F   UNL     1       7.380   4.412  16.526  0.00  0.00    +0.000 F 
ENDBRANCH  15  16
ENDBRANCH  14  15
ENDBRANCH   7  14
ENDBRANCH   2   5
BRANCH   1  20
ATOM     20  C   UNL     1       0.177  10.517  19.545  0.00  0.00    +0.000 C 
ATOM     21  C   UNL     1      -0.880  10.342  20.656  0.00  0.00    +0.000 C 
BRANCH  20  26
ATOM     22  C   UNL     1       3.164  14.306  18.901  0.00  0.00    +0.000 C 
ATOM     23  C   UNL     1       2.406  13.297  19.664  0.00  0.00    +0.000 A 
ATOM     24  N   UNL     1       2.396  13.049  20.954  0.00  0.00    +0.000 NA
ATOM     25  N   UNL     1       1.542  11.979  21.141  0.00  0.00    +0.000 NA
ATOM     26  C   UNL     1       1.089  11.652  19.947  0.00  0.00    +0.000 A 
ATOM     27  O   UNL     1       1.601  12.449  18.953  0.00  0.00    +0.000 OA
ENDBRANCH  20  26
BRANCH  20  28
ATOM     28  C   UNL     1      -0.516  10.853  18.193  0.00  0.00    +0.000 C 
BRANCH  28  29
ATOM     29  C   UNL     1      -1.965  10.367  18.133  0.00  0.00    +0.000 C 
ATOM     30  C   UNL     1      -3.034  11.454  17.931  0.00  0.00    +0.000 C 
ATOM     31  O   UNL     1      -3.726  10.618  16.964  0.00  0.00    +0.000 OA
ATOM     32  C   UNL     1      -2.517   9.830  16.799  0.00  0.00    +0.000 C 
ENDBRANCH  28  29
ENDBRANCH  20  28
ENDBRANCH   1  20
TORSDOF 9
ENDMDL
