MODEL 1
REMARK VINA RESULT:      -7.6      0.000      0.000
REMARK  Name = 
REMARK  1 active torsions:
REMARK  status: ('A' for Active; 'I' for Inactive)
REMARK    1  A    between atoms: C_7  and  C_8
REMARK                            x       y       z     vdW  Elec       q    Type
REMARK                         _______ _______ _______ _____ _____    ______ ____
ROOT
ATOM      1  C   UNL     1      -1.188  11.989  17.830  0.00  0.00    +0.000 C 
ATOM      2  C   UNL     1      -0.361  11.853  18.881  0.00  0.00    +0.000 C 
ATOM      3  C   UNL     1       1.133  11.965  18.679  0.00  0.00    +0.000 C 
ATOM      4  C   UNL     1       1.773  10.617  18.329  0.00  0.00    +0.000 C 
ATOM      5  C   UNL     1       1.116   9.437  19.054  0.00  0.00    +0.000 C 
ATOM      6  C   UNL     1       1.848   8.141  18.988  0.00  0.00    +0.000 C 
ATOM      7  C   UNL     1       2.229   7.535  17.853  0.00  0.00    +0.000 C 
ATOM      8  C   UNL     1       1.930   7.589  20.360  0.00  0.00    +0.000 C 
ATOM      9  O   UNL     1       2.479   6.567  20.719  0.00  0.00    +0.000 OA
ATOM     10  O   UNL     1       1.239   8.421  21.180  0.00  0.00    +0.000 OA
ATOM     11  C   UNL     1       0.975   9.688  20.551  0.00  0.00    +0.000 C 
ATOM     12  C   UNL     1      -0.444  10.183  20.917  0.00  0.00    +0.000 C 
ATOM     13  C   UNL     1      -0.606  10.465  22.401  0.00  0.00    +0.000 C 
ATOM     14  C   UNL     1      -0.659   9.538  23.363  0.00  0.00    +0.000 C 
ATOM     15  C   UNL     1      -0.782  11.936  22.668  0.00  0.00    +0.000 C 
ATOM     16  C   UNL     1      -0.547  12.598  21.320  0.00  0.00    +0.000 C 
ATOM     17  C   UNL     1      -0.887  11.527  20.273  0.00  0.00    +0.000 C 
ENDROOT
BRANCH   7  18
ATOM     18  C   UNL     1       2.796   6.192  17.752  0.00  0.00    +0.000 A 
ATOM     19  C   UNL     1       1.948   5.078  17.744  0.00  0.00    +0.000 A 
ATOM     20  C   UNL     1       2.479   3.792  17.628  0.00  0.00    +0.000 A 
ATOM     21  C   UNL     1       3.858   3.617  17.518  0.00  0.00    +0.000 A 
ATOM     22  C   UNL     1       4.706   4.725  17.530  0.00  0.00    +0.000 A 
ATOM     23  C   UNL     1       4.177   6.011  17.647  0.00  0.00    +0.000 A 
ENDBRANCH   7  18
TORSDOF 1
ENDMDL
MODEL 2
REMARK VINA RESULT:      -7.6      0.122      1.016
REMARK  Name = 
REMARK  1 active torsions:
REMARK  status: ('A' for Active; 'I' for Inactive)
REMARK    1  A    between atoms: C_7  and  C_8
REMARK                            x       y       z     vdW  Elec       q    Type
REMARK                         _______ _______ _______ _____ _____    ______ ____
ROOT
ATOM      1  C   UNL     1      -1.134  12.153  17.827  0.00  0.00    +0.000 C 
ATOM      2  C   UNL     1      -0.323  11.995  18.888  0.00  0.00    +0.000 C 
ATOM      3  C   UNL     1       1.175  12.088  18.708  0.00  0.00    +0.000 C 
ATOM      4  C   UNL     1       1.800  10.734  18.354  0.00  0.00    +0.000 C 
ATOM      5  C   UNL     1       1.116   9.557  19.058  0.00  0.00    +0.000 C 
ATOM      6  C   UNL     1       1.832   8.251  18.989  0.00  0.00    +0.000 C 
ATOM      7  C   UNL     1       2.220   7.651  17.854  0.00  0.00    +0.000 C 
ATOM      8  C   UNL     1       1.886   7.685  20.356  0.00  0.00    +0.000 C 
ATOM      9  O   UNL     1       2.416   6.652  20.714  0.00  0.00    +0.000 OA
ATOM     10  O   UNL     1       1.196   8.519  21.175  0.00  0.00    +0.000 OA
ATOM     11  C   UNL     1       0.958   9.796  20.555  0.00  0.00    +0.000 C 
ATOM     12  C   UNL     1      -0.458  10.307  20.907  0.00  0.00    +0.000 C 
ATOM     13  C   UNL     1      -0.637  10.577  22.391  0.00  0.00    +0.000 C 
ATOM     14  C   UNL     1      -0.716   9.642  23.343  0.00  0.00    +0.000 C 
ATOM     15  C   UNL     1      -0.796  12.048  22.670  0.00  0.00    +0.000 C 
ATOM     16  C   UNL     1      -0.533  12.720  21.331  0.00  0.00    +0.000 C 
ATOM     17  C   UNL     1      -0.873  11.663  20.269  0.00  0.00    +0.000 C 
ENDROOT
BRANCH   7  18
ATOM     18  C   UNL     1       2.768   6.301  17.748  0.00  0.00    +0.000 A 
ATOM     19  C   UNL     1       4.153   6.119  17.651  0.00  0.00    +0.000 A 
ATOM     20  C   UNL     1       4.688   4.832  17.569  0.00  0.00    +0.000 A 
ATOM     21  C   UNL     1       3.840   3.724  17.586  0.00  0.00    +0.000 A 
ATOM     22  C   UNL     1       2.460   3.903  17.678  0.00  0.00    +0.000 A 
ATOM     23  C   UNL     1       1.923   5.188  17.759  0.00  0.00    +0.000 A 
ENDBRANCH   7  18
TORSDOF 1
ENDMDL
MODEL 3
REMARK VINA RESULT:      -7.4      1.995      7.301
REMARK  Name = 
REMARK  1 active torsions:
REMARK  status: ('A' for Active; 'I' for Inactive)
REMARK    1  A    between atoms: C_7  and  C_8
REMARK                            x       y       z     vdW  Elec       q    Type
REMARK                         _______ _______ _______ _____ _____    ______ ____
ROOT
ATOM      1  C   UNL     1       0.951   3.548  19.862  0.00  0.00    +0.000 C 
ATOM      2  C   UNL     1       2.077   4.278  19.777  0.00  0.00    +0.000 C 
ATOM      3  C   UNL     1       2.452   5.210  20.907  0.00  0.00    +0.000 C 
ATOM      4  C   UNL     1       1.841   6.605  20.733  0.00  0.00    +0.000 C 
ATOM      5  C   UNL     1       1.777   7.052  19.269  0.00  0.00    +0.000 C 
ATOM      6  C   UNL     1       1.461   8.490  19.039  0.00  0.00    +0.000 C 
ATOM      7  C   UNL     1       0.381   9.122  19.522  0.00  0.00    +0.000 C 
ATOM      8  C   UNL     1       2.447   9.029  18.074  0.00  0.00    +0.000 C 
ATOM      9  O   UNL     1       2.540  10.168  17.663  0.00  0.00    +0.000 OA
ATOM     10  O   UNL     1       3.242   8.001  17.680  0.00  0.00    +0.000 OA
ATOM     11  C   UNL     1       3.110   6.864  18.552  0.00  0.00    +0.000 C 
ATOM     12  C   UNL     1       3.138   5.554  17.731  0.00  0.00    +0.000 C 
ATOM     13  C   UNL     1       4.464   5.327  17.025  0.00  0.00    +0.000 C 
ATOM     14  C   UNL     1       4.907   6.021  15.971  0.00  0.00    +0.000 C 
ATOM     15  C   UNL     1       5.209   4.157  17.609  0.00  0.00    +0.000 C 
ATOM     16  C   UNL     1       4.393   3.757  18.829  0.00  0.00    +0.000 C 
ATOM     17  C   UNL     1       2.963   4.237  18.539  0.00  0.00    +0.000 C 
ENDROOT
BRANCH   7  18
ATOM     18  C   UNL     1      -0.040  10.478  19.177  0.00  0.00    +0.000 A 
ATOM     19  C   UNL     1      -1.008  10.674  18.185  0.00  0.00    +0.000 A 
ATOM     20  C   UNL     1      -1.431  11.965  17.862  0.00  0.00    +0.000 A 
ATOM     21  C   UNL     1      -0.888  13.062  18.532  0.00  0.00    +0.000 A 
ATOM     22  C   UNL     1       0.079  12.869  19.518  0.00  0.00    +0.000 A 
ATOM     23  C   UNL     1       0.504  11.581  19.841  0.00  0.00    +0.000 A 
ENDBRANCH   7  18
TORSDOF 1
ENDMDL
MODEL 4
REMARK VINA RESULT:      -7.4      1.991      7.344
REMARK  Name = 
REMARK  1 active torsions:
REMARK  status: ('A' for Active; 'I' for Inactive)
REMARK    1  A    between atoms: C_7  and  C_8
REMARK                            x       y       z     vdW  Elec       q    Type
REMARK                         _______ _______ _______ _____ _____    ______ ____
ROOT
ATOM      1  C   UNL     1       0.970   3.565  19.854  0.00  0.00    +0.000 C 
ATOM      2  C   UNL     1       2.093   4.300  19.771  0.00  0.00    +0.000 C 
ATOM      3  C   UNL     1       2.466   5.230  20.903  0.00  0.00    +0.000 C 
ATOM      4  C   UNL     1       1.849   6.623  20.734  0.00  0.00    +0.000 C 
ATOM      5  C   UNL     1       1.781   7.074  19.272  0.00  0.00    +0.000 C 
ATOM      6  C   UNL     1       1.459   8.512  19.047  0.00  0.00    +0.000 C 
ATOM      7  C   UNL     1       0.377   9.138  19.534  0.00  0.00    +0.000 C 
ATOM      8  C   UNL     1       2.441   9.058  18.083  0.00  0.00    +0.000 C 
ATOM      9  O   UNL     1       2.529  10.199  17.675  0.00  0.00    +0.000 OA
ATOM     10  O   UNL     1       3.239   8.034  17.684  0.00  0.00    +0.000 OA
ATOM     11  C   UNL     1       3.114   6.894  18.552  0.00  0.00    +0.000 C 
ATOM     12  C   UNL     1       3.146   5.587  17.727  0.00  0.00    +0.000 C 
ATOM     13  C   UNL     1       4.471   5.368  17.018  0.00  0.00    +0.000 C 
ATOM     14  C   UNL     1       4.910   6.067  15.966  0.00  0.00    +0.000 C 
ATOM     15  C   UNL     1       5.222   4.199  17.597  0.00  0.00    +0.000 C 
ATOM     16  C   UNL     1       4.410   3.792  18.817  0.00  0.00    +0.000 C 
ATOM     17  C   UNL     1       2.977   4.266  18.531  0.00  0.00    +0.000 C 
ENDROOT
BRANCH   7  18
ATOM     18  C   UNL     1      -0.050  10.493  19.194  0.00  0.00    +0.000 A 
ATOM     19  C   UNL     1       0.516  11.588  19.859  0.00  0.00    +0.000 A 
ATOM     20  C   UNL     1       0.128  12.887  19.526  0.00  0.00    +0.000 A 
ATOM     21  C   UNL     1      -0.823  13.095  18.528  0.00  0.00    +0.000 A 
ATOM     22  C   UNL     1      -1.391  12.007  17.867  0.00  0.00    +0.000 A 
ATOM     23  C   UNL     1      -1.007  10.707  18.198  0.00  0.00    +0.000 A 
ENDBRANCH   7  18
TORSDOF 1
ENDMDL
MODEL 5
REMARK VINA RESULT:      -7.3      3.897      7.179
REMARK  Name = 
REMARK  1 active torsions:
REMARK  status: ('A' for Active; 'I' for Inactive)
REMARK    1  A    between atoms: C_7  and  C_8
REMARK                            x       y       z     vdW  Elec       q    Type
REMARK                         _______ _______ _______ _____ _____    ______ ____
ROOT
ATOM      1  C   UNL     1       4.404   1.806  20.698  0.00  0.00    +0.000 C 
ATOM      2  C   UNL     1       3.502   2.539  20.022  0.00  0.00    +0.000 C 
ATOM      3  C   UNL     1       2.883   1.988  18.757  0.00  0.00    +0.000 C 
ATOM      4  C   UNL     1       3.711   2.328  17.513  0.00  0.00    +0.000 C 
ATOM      5  C   UNL     1       4.361   3.713  17.587  0.00  0.00    +0.000 C 
ATOM      6  C   UNL     1       4.943   4.230  16.316  0.00  0.00    +0.000 C 
ATOM      7  C   UNL     1       5.855   3.585  15.574  0.00  0.00    +0.000 C 
ATOM      8  C   UNL     1       4.459   5.616  16.119  0.00  0.00    +0.000 C 
ATOM      9  O   UNL     1       4.685   6.358  15.184  0.00  0.00    +0.000 OA
ATOM     10  O   UNL     1       3.720   5.953  17.208  0.00  0.00    +0.000 OA
ATOM     11  C   UNL     1       3.363   4.796  17.985  0.00  0.00    +0.000 C 
ATOM     12  C   UNL     1       3.444   5.120  19.495  0.00  0.00    +0.000 C 
ATOM     13  C   UNL     1       2.443   6.179  19.926  0.00  0.00    +0.000 C 
ATOM     14  C   UNL     1       2.515   7.479  19.623  0.00  0.00    +0.000 C 
ATOM     15  C   UNL     1       1.378   5.602  20.819  0.00  0.00    +0.000 C 
ATOM     16  C   UNL     1       1.633   4.103  20.796  0.00  0.00    +0.000 C 
ATOM     17  C   UNL     1       3.124   3.947  20.465  0.00  0.00    +0.000 C 
ENDROOT
BRANCH   7  18
ATOM     18  C   UNL     1       6.563   4.136  14.422  0.00  0.00    +0.000 A 
ATOM     19  C   UNL     1       6.231   3.706  13.131  0.00  0.00    +0.000 A 
ATOM     20  C   UNL     1       6.889   4.242  12.022  0.00  0.00    +0.000 A 
ATOM     21  C   UNL     1       7.877   5.211  12.201  0.00  0.00    +0.000 A 
ATOM     22  C   UNL     1       8.211   5.638  13.485  0.00  0.00    +0.000 A 
ATOM     23  C   UNL     1       7.557   5.103  14.595  0.00  0.00    +0.000 A 
ENDBRANCH   7  18
TORSDOF 1
ENDMDL
MODEL 6
REMARK VINA RESULT:      -7.3      3.914      7.243
REMARK  Name = 
REMARK  1 active torsions:
REMARK  status: ('A' for Active; 'I' for Inactive)
REMARK    1  A    between atoms: C_7  and  C_8
REMARK                            x       y       z     vdW  Elec       q    Type
REMARK                         _______ _______ _______ _____ _____    ______ ____
ROOT
ATOM      1  C   UNL     1       4.419   1.773  20.661  0.00  0.00    +0.000 C 
ATOM      2  C   UNL     1       3.516   2.515  19.996  0.00  0.00    +0.000 C 
ATOM      3  C   UNL     1       2.892   1.979  18.727  0.00  0.00    +0.000 C 
ATOM      4  C   UNL     1       3.716   2.331  17.484  0.00  0.00    +0.000 C 
ATOM      5  C   UNL     1       4.370   3.713  17.571  0.00  0.00    +0.000 C 
ATOM      6  C   UNL     1       4.949   4.243  16.304  0.00  0.00    +0.000 C 
ATOM      7  C   UNL     1       5.858   3.602  15.552  0.00  0.00    +0.000 C 
ATOM      8  C   UNL     1       4.469   5.632  16.124  0.00  0.00    +0.000 C 
ATOM      9  O   UNL     1       4.694   6.383  15.196  0.00  0.00    +0.000 OA
ATOM     10  O   UNL     1       3.735   5.958  17.218  0.00  0.00    +0.000 OA
ATOM     11  C   UNL     1       3.378   4.794  17.985  0.00  0.00    +0.000 C 
ATOM     12  C   UNL     1       3.464   5.102  19.498  0.00  0.00    +0.000 C 
ATOM     13  C   UNL     1       2.468   6.159  19.944  0.00  0.00    +0.000 C 
ATOM     14  C   UNL     1       2.542   7.461  19.654  0.00  0.00    +0.000 C 
ATOM     15  C   UNL     1       1.404   5.575  20.833  0.00  0.00    +0.000 C 
ATOM     16  C   UNL     1       1.654   4.075  20.794  0.00  0.00    +0.000 C 
ATOM     17  C   UNL     1       3.145   3.919  20.455  0.00  0.00    +0.000 C 
ENDROOT
BRANCH   7  18
ATOM     18  C   UNL     1       6.563   4.165  14.403  0.00  0.00    +0.000 A 
ATOM     19  C   UNL     1       7.557   5.130  14.602  0.00  0.00    +0.000 A 
ATOM     20  C   UNL     1       8.250   5.658  13.511  0.00  0.00    +0.000 A 
ATOM     21  C   UNL     1       7.952   5.221  12.220  0.00  0.00    +0.000 A 
ATOM     22  C   UNL     1       6.960   4.263  12.019  0.00  0.00    +0.000 A 
ATOM     23  C   UNL     1       6.265   3.734  13.107  0.00  0.00    +0.000 A 
ENDBRANCH   7  18
TORSDOF 1
ENDMDL
MODEL 7
REMARK VINA RESULT:      -7.0      1.565      3.234
REMARK  Name = 
REMARK  1 active torsions:
REMARK  status: ('A' for Active; 'I' for Inactive)
REMARK    1  A    between atoms: C_7  and  C_8
REMARK                            x       y       z     vdW  Elec       q    Type
REMARK                         _______ _______ _______ _____ _____    ______ ____
ROOT
ATOM      1  C   UNL     1       0.414   9.471  23.671  0.00  0.00    +0.000 C 
ATOM      2  C   UNL     1      -0.037   9.660  22.418  0.00  0.00    +0.000 C 
ATOM      3  C   UNL     1      -0.780   8.548  21.712  0.00  0.00    +0.000 C 
ATOM      4  C   UNL     1       0.167   7.610  20.955  0.00  0.00    +0.000 C 
ATOM      5  C   UNL     1       1.362   8.340  20.333  0.00  0.00    +0.000 C 
ATOM      6  C   UNL     1       2.168   7.556  19.355  0.00  0.00    +0.000 C 
ATOM      7  C   UNL     1       2.730   6.364  19.608  0.00  0.00    +0.000 C 
ATOM      8  C   UNL     1       2.361   8.390  18.147  0.00  0.00    +0.000 C 
ATOM      9  O   UNL     1       2.935   8.089  17.119  0.00  0.00    +0.000 OA
ATOM     10  O   UNL     1       1.802   9.603  18.389  0.00  0.00    +0.000 OA
ATOM     11  C   UNL     1       0.934   9.567  19.536  0.00  0.00    +0.000 C 
ATOM     12  C   UNL     1       1.084  10.866  20.361  0.00  0.00    +0.000 C 
ATOM     13  C   UNL     1       0.641  12.104  19.600  0.00  0.00    +0.000 C 
ATOM     14  C   UNL     1       1.296  12.656  18.574  0.00  0.00    +0.000 C 
ATOM     15  C   UNL     1      -0.609  12.700  20.191  0.00  0.00    +0.000 C 
ATOM     16  C   UNL     1      -1.047  11.696  21.246  0.00  0.00    +0.000 C 
ATOM     17  C   UNL     1       0.233  10.953  21.660  0.00  0.00    +0.000 C 
ENDROOT
BRANCH   7  18
ATOM     18  C   UNL     1       3.659   5.656  18.732  0.00  0.00    +0.000 A 
ATOM     19  C   UNL     1       5.038   5.826  18.898  0.00  0.00    +0.000 A 
ATOM     20  C   UNL     1       5.935   5.138  18.078  0.00  0.00    +0.000 A 
ATOM     21  C   UNL     1       5.454   4.277  17.091  0.00  0.00    +0.000 A 
ATOM     22  C   UNL     1       4.080   4.108  16.921  0.00  0.00    +0.000 A 
ATOM     23  C   UNL     1       3.182   4.796  17.739  0.00  0.00    +0.000 A 
ENDBRANCH   7  18
TORSDOF 1
ENDMDL
MODEL 8
REMARK VINA RESULT:      -7.0      1.561      3.098
REMARK  Name = 
REMARK  1 active torsions:
REMARK  status: ('A' for Active; 'I' for Inactive)
REMARK    1  A    between atoms: C_7  and  C_8
REMARK                            x       y       z     vdW  Elec       q    Type
REMARK                         _______ _______ _______ _____ _____    ______ ____
ROOT
ATOM      1  C   UNL     1       0.403   9.470  23.670  0.00  0.00    +0.000 C 
ATOM      2  C   UNL     1      -0.039   9.656  22.414  0.00  0.00    +0.000 C 
ATOM      3  C   UNL     1      -0.782   8.545  21.708  0.00  0.00    +0.000 C 
ATOM      4  C   UNL     1       0.165   7.600  20.960  0.00  0.00    +0.000 C 
ATOM      5  C   UNL     1       1.367   8.322  20.343  0.00  0.00    +0.000 C 
ATOM      6  C   UNL     1       2.176   7.531  19.373  0.00  0.00    +0.000 C 
ATOM      7  C   UNL     1       2.731   6.338  19.634  0.00  0.00    +0.000 C 
ATOM      8  C   UNL     1       2.380   8.359  18.163  0.00  0.00    +0.000 C 
ATOM      9  O   UNL     1       2.960   8.052  17.140  0.00  0.00    +0.000 OA
ATOM     10  O   UNL     1       1.825   9.576  18.397  0.00  0.00    +0.000 OA
ATOM     11  C   UNL     1       0.950   9.548  19.538  0.00  0.00    +0.000 C 
ATOM     12  C   UNL     1       1.100  10.850  20.359  0.00  0.00    +0.000 C 
ATOM     13  C   UNL     1       0.667  12.087  19.591  0.00  0.00    +0.000 C 
ATOM     14  C   UNL     1       1.332  12.632  18.567  0.00  0.00    +0.000 C 
ATOM     15  C   UNL     1      -0.583  12.690  20.172  0.00  0.00    +0.000 C 
ATOM     16  C   UNL     1      -1.033  11.692  21.227  0.00  0.00    +0.000 C 
ATOM     17  C   UNL     1       0.241  10.945  21.653  0.00  0.00    +0.000 C 
ENDROOT
BRANCH   7  18
ATOM     18  C   UNL     1       3.663   5.622  18.766  0.00  0.00    +0.000 A 
ATOM     19  C   UNL     1       3.171   4.771  17.770  0.00  0.00    +0.000 A 
ATOM     20  C   UNL     1       4.054   4.098  16.923  0.00  0.00    +0.000 A 
ATOM     21  C   UNL     1       5.430   4.276  17.069  0.00  0.00    +0.000 A 
ATOM     22  C   UNL     1       5.922   5.121  18.063  0.00  0.00    +0.000 A 
ATOM     23  C   UNL     1       5.042   5.794  18.911  0.00  0.00    +0.000 A 
ENDBRANCH   7  18
TORSDOF 1
ENDMDL
MODEL 9
REMARK VINA RESULT:      -6.8      8.915     10.979
REMARK  Name = 
REMARK  1 active torsions:
REMARK  status: ('A' for Active; 'I' for Inactive)
REMARK    1  A    between atoms: C_7  and  C_8
REMARK                            x       y       z     vdW  Elec       q    Type
REMARK                         _______ _______ _______ _____ _____    ______ ____
ROOT
ATOM      1  C   UNL     1      10.631  11.206  17.494  0.00  0.00    +0.000 C 
ATOM      2  C   UNL     1      10.910  12.378  18.092  0.00  0.00    +0.000 C 
ATOM      3  C   UNL     1      11.816  12.407  19.301  0.00  0.00    +0.000 C 
ATOM      4  C   UNL     1      11.040  12.218  20.610  0.00  0.00    +0.000 C 
ATOM      5  C   UNL     1       9.659  12.882  20.587  0.00  0.00    +0.000 C 
ATOM      6  C   UNL     1       8.964  12.986  21.901  0.00  0.00    +0.000 C 
ATOM      7  C   UNL     1       8.712  11.952  22.717  0.00  0.00    +0.000 C 
ATOM      8  C   UNL     1       8.477  14.376  22.054  0.00  0.00    +0.000 C 
ATOM      9  O   UNL     1       7.893  14.860  23.003  0.00  0.00    +0.000 OA
ATOM     10  O   UNL     1       8.768  15.043  20.907  0.00  0.00    +0.000 OA
ATOM     11  C   UNL     1       9.723  14.327  20.105  0.00  0.00    +0.000 C 
ATOM     12  C   UNL     1       9.361  14.446  18.606  0.00  0.00    +0.000 C 
ATOM     13  C   UNL     1       9.440  15.873  18.091  0.00  0.00    +0.000 C 
ATOM     14  C   UNL     1       8.585  16.854  18.397  0.00  0.00    +0.000 C 
ATOM     15  C   UNL     1      10.572  16.046  17.114  0.00  0.00    +0.000 C 
ATOM     16  C   UNL     1      11.321  14.724  17.161  0.00  0.00    +0.000 C 
ATOM     17  C   UNL     1      10.286  13.684  17.616  0.00  0.00    +0.000 C 
ENDROOT
BRANCH   7  18
ATOM     18  C   UNL     1       7.890  11.998  23.924  0.00  0.00    +0.000 A 
ATOM     19  C   UNL     1       6.536  11.647  23.856  0.00  0.00    +0.000 A 
ATOM     20  C   UNL     1       5.747  11.669  25.008  0.00  0.00    +0.000 A 
ATOM     21  C   UNL     1       6.310  12.039  26.230  0.00  0.00    +0.000 A 
ATOM     22  C   UNL     1       7.657  12.393  26.299  0.00  0.00    +0.000 A 
ATOM     23  C   UNL     1       8.448  12.373  25.149  0.00  0.00    +0.000 A 
ENDBRANCH   7  18
TORSDOF 1
ENDMDL
