MODEL 1
REMARK VINA RESULT:      -7.7      0.000      0.000
REMARK  Name = 
REMARK  6 active torsions:
REMARK  status: ('A' for Active; 'I' for Inactive)
REMARK    1  A    between atoms: C_1  and  N_2
REMARK    2  A    between atoms: N_2  and  C_3
REMARK    3  A    between atoms: N_2  and  C_4
REMARK    4  A    between atoms: C_4  and  C_5
REMARK    5  A    between atoms: C_5  and  N_6
REMARK    6  A    between atoms: C_7  and  C_9
REMARK                            x       y       z     vdW  Elec       q    Type
REMARK                         _______ _______ _______ _____ _____    ______ ____
ROOT
ATOM      1  C   UNL     1       6.282   5.403  17.338  0.00  0.00    +0.000 A 
ATOM      2  C   UNL     1       5.049   4.887  17.854  0.00  0.00    +0.000 A 
ATOM      3  C   UNL     1       4.406   4.186  16.843  0.00  0.00    +0.000 A 
ATOM      4  N   UNL     1       5.194   4.244  15.709  0.00  0.00    +0.000 N 
ATOM      5  C   UNL     1       4.994   3.674  14.446  0.00  0.00    +0.000 A 
ATOM      6  C   UNL     1       5.906   3.849  13.475  0.00  0.00    +0.000 A 
ATOM      7  C   UNL     1       7.089   4.638  13.759  0.00  0.00    +0.000 A 
ATOM      8  C   UNL     1       7.287   5.190  14.965  0.00  0.00    +0.000 A 
ATOM      9  C   UNL     1       6.326   5.002  16.008  0.00  0.00    +0.000 A 
ATOM     10  C   UNL     1       3.133   3.521  17.011  0.00  0.00    +0.000 C 
ATOM     11  O   UNL     1       2.552   2.880  16.144  0.00  0.00    +0.000 OA
ATOM     12  C   UNL     1       2.511   3.643  18.357  0.00  0.00    +0.000 A 
ATOM     13  C   UNL     1       1.278   3.047  18.641  0.00  0.00    +0.000 A 
ATOM     14  C   UNL     1       0.721   3.181  19.914  0.00  0.00    +0.000 A 
ATOM     15  C   UNL     1       1.414   3.910  20.866  0.00  0.00    +0.000 A 
ATOM     16  N   UNL     1       2.604   4.492  20.629  0.00  0.00    +0.000 NA
ATOM     17  C   UNL     1       3.134   4.352  19.380  0.00  0.00    +0.000 A 
ATOM     18  C   UNL     1       4.458   5.004  19.178  0.00  0.00    +0.000 C 
ATOM     19  O   UNL     1       5.022   5.588  20.096  0.00  0.00    +0.000 OA
ENDROOT
BRANCH   1  21
ATOM     20  N   UNL     1       7.401   7.508  17.654  0.00  0.00    +0.000 N 
ATOM     21  C   UNL     1       7.351   6.176  17.982  0.00  0.00    +0.000 C 
ATOM     22  O   UNL     1       8.117   5.682  18.804  0.00  0.00    +0.000 OA
ATOM     23  H   UNL     1       6.996   7.794  16.767  0.00  0.00    +0.000 HD
BRANCH  20  24
ATOM     24  C   UNL     1       8.413   8.367  18.223  0.00  0.00    +0.000 C 
BRANCH  24  25
ATOM     25  C   UNL     1       8.176   9.846  17.879  0.00  0.00    +0.000 C 
BRANCH  25  27
ATOM     26  C   UNL     1       8.983  12.114  17.897  0.00  0.00    +0.000 C 
ATOM     27  N   UNL     1       9.258  10.743  18.329  0.00  0.00    +0.000 NA
ATOM     28  C   UNL     1       9.431  10.705  19.783  0.00  0.00    +0.000 C 
ENDBRANCH  25  27
ENDBRANCH  24  25
ENDBRANCH  20  24
ENDBRANCH   1  21
TORSDOF 4
ENDMDL
MODEL 2
REMARK VINA RESULT:      -7.6      3.339      6.340
REMARK  Name = 
REMARK  6 active torsions:
REMARK  status: ('A' for Active; 'I' for Inactive)
REMARK    1  A    between atoms: C_1  and  N_2
REMARK    2  A    between atoms: N_2  and  C_3
REMARK    3  A    between atoms: N_2  and  C_4
REMARK    4  A    between atoms: C_4  and  C_5
REMARK    5  A    between atoms: C_5  and  N_6
REMARK    6  A    between atoms: C_7  and  C_9
REMARK                            x       y       z     vdW  Elec       q    Type
REMARK                         _______ _______ _______ _____ _____    ______ ____
ROOT
ATOM      1  C   UNL     1       4.290   4.781  18.458  0.00  0.00    +0.000 A 
ATOM      2  C   UNL     1       3.542   5.994  18.606  0.00  0.00    +0.000 A 
ATOM      3  C   UNL     1       2.683   5.854  19.688  0.00  0.00    +0.000 A 
ATOM      4  N   UNL     1       2.866   4.592  20.224  0.00  0.00    +0.000 N 
ATOM      5  C   UNL     1       2.257   3.991  21.332  0.00  0.00    +0.000 A 
ATOM      6  C   UNL     1       2.596   2.741  21.690  0.00  0.00    +0.000 A 
ATOM      7  C   UNL     1       3.592   2.033  20.910  0.00  0.00    +0.000 A 
ATOM      8  C   UNL     1       4.177   2.601  19.845  0.00  0.00    +0.000 A 
ATOM      9  C   UNL     1       3.831   3.935  19.460  0.00  0.00    +0.000 A 
ATOM     10  C   UNL     1       1.780   6.890  20.135  0.00  0.00    +0.000 C 
ATOM     11  O   UNL     1       1.025   6.802  21.096  0.00  0.00    +0.000 OA
ATOM     12  C   UNL     1       1.798   8.150  19.345  0.00  0.00    +0.000 A 
ATOM     13  C   UNL     1       0.966   9.224  19.677  0.00  0.00    +0.000 A 
ATOM     14  C   UNL     1       1.006  10.393  18.915  0.00  0.00    +0.000 A 
ATOM     15  C   UNL     1       1.877  10.453  17.840  0.00  0.00    +0.000 A 
ATOM     16  N   UNL     1       2.695   9.441  17.496  0.00  0.00    +0.000 NA
ATOM     17  C   UNL     1       2.642   8.306  18.251  0.00  0.00    +0.000 A 
ATOM     18  C   UNL     1       3.579   7.225  17.833  0.00  0.00    +0.000 C 
ATOM     19  O   UNL     1       4.352   7.386  16.896  0.00  0.00    +0.000 OA
ENDROOT
BRANCH   1  21
ATOM     20  N   UNL     1       4.938   4.198  16.216  0.00  0.00    +0.000 N 
ATOM     21  C   UNL     1       5.346   4.407  17.510  0.00  0.00    +0.000 C 
ATOM     22  O   UNL     1       6.529   4.338  17.835  0.00  0.00    +0.000 OA
ATOM     23  H   UNL     1       3.966   3.943  16.060  0.00  0.00    +0.000 HD
BRANCH  20  24
ATOM     24  C   UNL     1       5.890   3.822  15.197  0.00  0.00    +0.000 C 
BRANCH  24  25
ATOM     25  C   UNL     1       5.449   4.279  13.797  0.00  0.00    +0.000 C 
BRANCH  25  27
ATOM     26  C   UNL     1       4.807   3.175  11.756  0.00  0.00    +0.000 C 
ATOM     27  N   UNL     1       5.897   3.387  12.711  0.00  0.00    +0.000 NA
ATOM     28  C   UNL     1       7.072   3.917  12.016  0.00  0.00    +0.000 C 
ENDBRANCH  25  27
ENDBRANCH  24  25
ENDBRANCH  20  24
ENDBRANCH   1  21
TORSDOF 4
ENDMDL
MODEL 3
REMARK VINA RESULT:      -7.5      3.272      6.045
REMARK  Name = 
REMARK  6 active torsions:
REMARK  status: ('A' for Active; 'I' for Inactive)
REMARK    1  A    between atoms: C_1  and  N_2
REMARK    2  A    between atoms: N_2  and  C_3
REMARK    3  A    between atoms: N_2  and  C_4
REMARK    4  A    between atoms: C_4  and  C_5
REMARK    5  A    between atoms: C_5  and  N_6
REMARK    6  A    between atoms: C_7  and  C_9
REMARK                            x       y       z     vdW  Elec       q    Type
REMARK                         _______ _______ _______ _____ _____    ______ ____
ROOT
ATOM      1  C   UNL     1       3.909   4.789  18.402  0.00  0.00    +0.000 A 
ATOM      2  C   UNL     1       3.256   6.049  18.597  0.00  0.00    +0.000 A 
ATOM      3  C   UNL     1       2.487   5.974  19.750  0.00  0.00    +0.000 A 
ATOM      4  N   UNL     1       2.635   4.708  20.286  0.00  0.00    +0.000 N 
ATOM      5  C   UNL     1       2.087   4.157  21.451  0.00  0.00    +0.000 A 
ATOM      6  C   UNL     1       2.375   2.891  21.797  0.00  0.00    +0.000 A 
ATOM      7  C   UNL     1       3.252   2.113  20.944  0.00  0.00    +0.000 A 
ATOM      8  C   UNL     1       3.778   2.633  19.825  0.00  0.00    +0.000 A 
ATOM      9  C   UNL     1       3.485   3.983  19.452  0.00  0.00    +0.000 A 
ATOM     10  C   UNL     1       1.694   7.071  20.259  0.00  0.00    +0.000 C 
ATOM     11  O   UNL     1       1.022   7.041  21.282  0.00  0.00    +0.000 OA
ATOM     12  C   UNL     1       1.724   8.320  19.452  0.00  0.00    +0.000 A 
ATOM     13  C   UNL     1       0.994   9.449  19.840  0.00  0.00    +0.000 A 
ATOM     14  C   UNL     1       1.043  10.606  19.060  0.00  0.00    +0.000 A 
ATOM     15  C   UNL     1       1.820  10.600  17.913  0.00  0.00    +0.000 A 
ATOM     16  N   UNL     1       2.538   9.534  17.514  0.00  0.00    +0.000 NA
ATOM     17  C   UNL     1       2.479   8.411  18.287  0.00  0.00    +0.000 A 
ATOM     18  C   UNL     1       3.304   7.268  17.805  0.00  0.00    +0.000 C 
ATOM     19  O   UNL     1       4.002   7.370  16.803  0.00  0.00    +0.000 OA
ENDROOT
BRANCH   1  21
ATOM     20  N   UNL     1       6.092   4.929  17.401  0.00  0.00    +0.000 N 
ATOM     21  C   UNL     1       4.853   4.338  17.372  0.00  0.00    +0.000 C 
ATOM     22  O   UNL     1       4.577   3.451  16.569  0.00  0.00    +0.000 OA
ATOM     23  H   UNL     1       6.170   5.846  17.833  0.00  0.00    +0.000 HD
BRANCH  20  24
ATOM     24  C   UNL     1       7.101   4.567  16.434  0.00  0.00    +0.000 C 
BRANCH  24  25
ATOM     25  C   UNL     1       6.908   5.297  15.096  0.00  0.00    +0.000 C 
BRANCH  25  27
ATOM     26  C   UNL     1       6.043   3.796  13.424  0.00  0.00    +0.000 C 
ATOM     27  N   UNL     1       7.243   4.477  13.916  0.00  0.00    +0.000 NA
ATOM     28  C   UNL     1       7.836   5.277  12.843  0.00  0.00    +0.000 C 
ENDBRANCH  25  27
ENDBRANCH  24  25
ENDBRANCH  20  24
ENDBRANCH   1  21
TORSDOF 4
ENDMDL
MODEL 4
REMARK VINA RESULT:      -7.5      3.529      6.530
REMARK  Name = 
REMARK  6 active torsions:
REMARK  status: ('A' for Active; 'I' for Inactive)
REMARK    1  A    between atoms: C_1  and  N_2
REMARK    2  A    between atoms: N_2  and  C_3
REMARK    3  A    between atoms: N_2  and  C_4
REMARK    4  A    between atoms: C_4  and  C_5
REMARK    5  A    between atoms: C_5  and  N_6
REMARK    6  A    between atoms: C_7  and  C_9
REMARK                            x       y       z     vdW  Elec       q    Type
REMARK                         _______ _______ _______ _____ _____    ______ ____
ROOT
ATOM      1  C   UNL     1       2.634   6.049  19.029  0.00  0.00    +0.000 A 
ATOM      2  C   UNL     1       3.525   5.580  18.010  0.00  0.00    +0.000 A 
ATOM      3  C   UNL     1       3.568   4.194  18.063  0.00  0.00    +0.000 A 
ATOM      4  N   UNL     1       2.733   3.776  19.083  0.00  0.00    +0.000 N 
ATOM      5  C   UNL     1       2.418   2.480  19.512  0.00  0.00    +0.000 A 
ATOM      6  C   UNL     1       1.561   2.298  20.531  0.00  0.00    +0.000 A 
ATOM      7  C   UNL     1       0.978   3.459  21.174  0.00  0.00    +0.000 A 
ATOM      8  C   UNL     1       1.277   4.703  20.771  0.00  0.00    +0.000 A 
ATOM      9  C   UNL     1       2.182   4.908  19.682  0.00  0.00    +0.000 A 
ATOM     10  C   UNL     1       4.363   3.379  17.172  0.00  0.00    +0.000 C 
ATOM     11  O   UNL     1       4.405   2.155  17.183  0.00  0.00    +0.000 OA
ATOM     12  C   UNL     1       5.177   4.120  16.172  0.00  0.00    +0.000 A 
ATOM     13  C   UNL     1       5.991   3.444  15.257  0.00  0.00    +0.000 A 
ATOM     14  C   UNL     1       6.744   4.169  14.332  0.00  0.00    +0.000 A 
ATOM     15  C   UNL     1       6.663   5.551  14.350  0.00  0.00    +0.000 A 
ATOM     16  N   UNL     1       5.887   6.234  15.212  0.00  0.00    +0.000 NA
ATOM     17  C   UNL     1       5.158   5.510  16.110  0.00  0.00    +0.000 A 
ATOM     18  C   UNL     1       4.307   6.317  17.029  0.00  0.00    +0.000 C 
ATOM     19  O   UNL     1       4.261   7.538  16.940  0.00  0.00    +0.000 OA
ENDROOT
BRANCH   1  21
ATOM     20  N   UNL     1       1.881   8.224  18.331  0.00  0.00    +0.000 N 
ATOM     21  C   UNL     1       2.201   7.405  19.385  0.00  0.00    +0.000 C 
ATOM     22  O   UNL     1       2.077   7.772  20.551  0.00  0.00    +0.000 OA
ATOM     23  H   UNL     1       2.296   8.017  17.426  0.00  0.00    +0.000 HD
BRANCH  20  24
ATOM     24  C   UNL     1       1.446   9.582  18.560  0.00  0.00    +0.000 C 
BRANCH  24  25
ATOM     25  C   UNL     1       0.048   9.847  17.978  0.00  0.00    +0.000 C 
BRANCH  25  27
ATOM     26  C   UNL     1      -0.312  10.399  20.294  0.00  0.00    +0.000 C 
ATOM     27  N   UNL     1      -0.909  10.397  18.956  0.00  0.00    +0.000 NA
ATOM     28  C   UNL     1      -1.339  11.750  18.601  0.00  0.00    +0.000 C 
ENDBRANCH  25  27
ENDBRANCH  24  25
ENDBRANCH  20  24
ENDBRANCH   1  21
TORSDOF 4
ENDMDL
MODEL 5
REMARK VINA RESULT:      -7.3      3.257      6.623
REMARK  Name = 
REMARK  6 active torsions:
REMARK  status: ('A' for Active; 'I' for Inactive)
REMARK    1  A    between atoms: C_1  and  N_2
REMARK    2  A    between atoms: N_2  and  C_3
REMARK    3  A    between atoms: N_2  and  C_4
REMARK    4  A    between atoms: C_4  and  C_5
REMARK    5  A    between atoms: C_5  and  N_6
REMARK    6  A    between atoms: C_7  and  C_9
REMARK                            x       y       z     vdW  Elec       q    Type
REMARK                         _______ _______ _______ _____ _____    ______ ____
ROOT
ATOM      1  C   UNL     1       2.613   5.955  19.190  0.00  0.00    +0.000 A 
ATOM      2  C   UNL     1       3.514   5.543  18.155  0.00  0.00    +0.000 A 
ATOM      3  C   UNL     1       3.574   4.157  18.146  0.00  0.00    +0.000 A 
ATOM      4  N   UNL     1       2.740   3.683  19.143  0.00  0.00    +0.000 N 
ATOM      5  C   UNL     1       2.440   2.365  19.511  0.00  0.00    +0.000 A 
ATOM      6  C   UNL     1       1.582   2.127  20.517  0.00  0.00    +0.000 A 
ATOM      7  C   UNL     1       0.982   3.251  21.209  0.00  0.00    +0.000 A 
ATOM      8  C   UNL     1       1.266   4.515  20.864  0.00  0.00    +0.000 A 
ATOM      9  C   UNL     1       2.173   4.780  19.789  0.00  0.00    +0.000 A 
ATOM     10  C   UNL     1       4.383   3.393  17.222  0.00  0.00    +0.000 C 
ATOM     11  O   UNL     1       4.440   2.170  17.179  0.00  0.00    +0.000 OA
ATOM     12  C   UNL     1       5.192   4.188  16.260  0.00  0.00    +0.000 A 
ATOM     13  C   UNL     1       6.017   3.564  15.320  0.00  0.00    +0.000 A 
ATOM     14  C   UNL     1       6.765   4.339  14.431  0.00  0.00    +0.000 A 
ATOM     15  C   UNL     1       6.666   5.718  14.511  0.00  0.00    +0.000 A 
ATOM     16  N   UNL     1       5.878   6.352  15.400  0.00  0.00    +0.000 NA
ATOM     17  C   UNL     1       5.155   5.579  16.261  0.00  0.00    +0.000 A 
ATOM     18  C   UNL     1       4.291   6.333  17.212  0.00  0.00    +0.000 C 
ATOM     19  O   UNL     1       4.229   7.556  17.177  0.00  0.00    +0.000 OA
ENDROOT
BRANCH   1  21
ATOM     20  N   UNL     1       1.957   7.455  20.953  0.00  0.00    +0.000 N 
ATOM     21  C   UNL     1       2.162   7.288  19.605  0.00  0.00    +0.000 C 
ATOM     22  O   UNL     1       2.029   8.215  18.811  0.00  0.00    +0.000 OA
ATOM     23  H   UNL     1       1.757   6.627  21.508  0.00  0.00    +0.000 HD
BRANCH  20  24
ATOM     24  C   UNL     1       1.509   8.723  21.476  0.00  0.00    +0.000 C 
BRANCH  24  25
ATOM     25  C   UNL     1      -0.023   8.799  21.577  0.00  0.00    +0.000 C 
BRANCH  25  27
ATOM     26  C   UNL     1      -0.866  10.462  23.101  0.00  0.00    +0.000 C 
ATOM     27  N   UNL     1      -0.545  10.173  21.701  0.00  0.00    +0.000 NA
ATOM     28  C   UNL     1       0.403  11.167  21.194  0.00  0.00    +0.000 C 
ENDBRANCH  25  27
ENDBRANCH  24  25
ENDBRANCH  20  24
ENDBRANCH   1  21
TORSDOF 4
ENDMDL
MODEL 6
REMARK VINA RESULT:      -7.2      3.376      6.038
REMARK  Name = 
REMARK  6 active torsions:
REMARK  status: ('A' for Active; 'I' for Inactive)
REMARK    1  A    between atoms: C_1  and  N_2
REMARK    2  A    between atoms: N_2  and  C_3
REMARK    3  A    between atoms: N_2  and  C_4
REMARK    4  A    between atoms: C_4  and  C_5
REMARK    5  A    between atoms: C_5  and  N_6
REMARK    6  A    between atoms: C_7  and  C_9
REMARK                            x       y       z     vdW  Elec       q    Type
REMARK                         _______ _______ _______ _____ _____    ______ ____
ROOT
ATOM      1  C   UNL     1       2.603   6.004  19.157  0.00  0.00    +0.000 A 
ATOM      2  C   UNL     1       3.499   5.580  18.122  0.00  0.00    +0.000 A 
ATOM      3  C   UNL     1       3.566   4.194  18.136  0.00  0.00    +0.000 A 
ATOM      4  N   UNL     1       2.742   3.732  19.146  0.00  0.00    +0.000 N 
ATOM      5  C   UNL     1       2.451   2.419  19.538  0.00  0.00    +0.000 A 
ATOM      6  C   UNL     1       1.601   2.192  20.553  0.00  0.00    +0.000 A 
ATOM      7  C   UNL     1       0.999   3.325  21.231  0.00  0.00    +0.000 A 
ATOM      8  C   UNL     1       1.275   4.584  20.863  0.00  0.00    +0.000 A 
ATOM      9  C   UNL     1       2.173   4.837  19.778  0.00  0.00    +0.000 A 
ATOM     10  C   UNL     1       4.373   3.420  17.219  0.00  0.00    +0.000 C 
ATOM     11  O   UNL     1       4.437   2.196  17.196  0.00  0.00    +0.000 OA
ATOM     12  C   UNL     1       5.172   4.203  16.239  0.00  0.00    +0.000 A 
ATOM     13  C   UNL     1       5.994   3.567  15.304  0.00  0.00    +0.000 A 
ATOM     14  C   UNL     1       6.732   4.332  14.397  0.00  0.00    +0.000 A 
ATOM     15  C   UNL     1       6.626   5.712  14.456  0.00  0.00    +0.000 A 
ATOM     16  N   UNL     1       5.841   6.356  15.339  0.00  0.00    +0.000 NA
ATOM     17  C   UNL     1       5.128   5.594  16.217  0.00  0.00    +0.000 A 
ATOM     18  C   UNL     1       4.265   6.358  17.161  0.00  0.00    +0.000 C 
ATOM     19  O   UNL     1       4.197   7.580  17.107  0.00  0.00    +0.000 OA
ENDROOT
BRANCH   1  21
ATOM     20  N   UNL     1       1.709   8.148  18.531  0.00  0.00    +0.000 N 
ATOM     21  C   UNL     1       2.148   7.342  19.553  0.00  0.00    +0.000 C 
ATOM     22  O   UNL     1       2.106   7.703  20.726  0.00  0.00    +0.000 OA
ATOM     23  H   UNL     1       2.055   7.957  17.594  0.00  0.00    +0.000 HD
BRANCH  20  24
ATOM     24  C   UNL     1       1.240   9.486  18.801  0.00  0.00    +0.000 C 
BRANCH  24  25
ATOM     25  C   UNL     1       2.090  10.551  18.090  0.00  0.00    +0.000 C 
BRANCH  25  27
ATOM     26  C   UNL     1       1.260  12.023  19.805  0.00  0.00    +0.000 C 
ATOM     27  N   UNL     1       1.699  11.937  18.410  0.00  0.00    +0.000 NA
ATOM     28  C   UNL     1       2.791  12.883  18.173  0.00  0.00    +0.000 C 
ENDBRANCH  25  27
ENDBRANCH  24  25
ENDBRANCH  20  24
ENDBRANCH   1  21
TORSDOF 4
ENDMDL
MODEL 7
REMARK VINA RESULT:      -7.0      8.429     10.417
REMARK  Name = 
REMARK  6 active torsions:
REMARK  status: ('A' for Active; 'I' for Inactive)
REMARK    1  A    between atoms: C_1  and  N_2
REMARK    2  A    between atoms: N_2  and  C_3
REMARK    3  A    between atoms: N_2  and  C_4
REMARK    4  A    between atoms: C_4  and  C_5
REMARK    5  A    between atoms: C_5  and  N_6
REMARK    6  A    between atoms: C_7  and  C_9
REMARK                            x       y       z     vdW  Elec       q    Type
REMARK                         _______ _______ _______ _____ _____    ______ ____
ROOT
ATOM      1  C   UNL     1      -0.736  10.742  19.285  0.00  0.00    +0.000 A 
ATOM      2  C   UNL     1      -1.205  11.685  20.255  0.00  0.00    +0.000 A 
ATOM      3  C   UNL     1      -2.456  12.140  19.861  0.00  0.00    +0.000 A 
ATOM      4  N   UNL     1      -2.788  11.513  18.673  0.00  0.00    +0.000 N 
ATOM      5  C   UNL     1      -3.949  11.617  17.897  0.00  0.00    +0.000 A 
ATOM      6  C   UNL     1      -4.070  10.900  16.767  0.00  0.00    +0.000 A 
ATOM      7  C   UNL     1      -2.981  10.027  16.370  0.00  0.00    +0.000 A 
ATOM      8  C   UNL     1      -1.866   9.925  17.106  0.00  0.00    +0.000 A 
ATOM      9  C   UNL     1      -1.730  10.678  18.315  0.00  0.00    +0.000 A 
ATOM     10  C   UNL     1      -3.235  13.100  20.610  0.00  0.00    +0.000 C 
ATOM     11  O   UNL     1      -4.348  13.504  20.296  0.00  0.00    +0.000 OA
ATOM     12  C   UNL     1      -2.606  13.612  21.857  0.00  0.00    +0.000 A 
ATOM     13  C   UNL     1      -3.259  14.548  22.665  0.00  0.00    +0.000 A 
ATOM     14  C   UNL     1      -2.641  15.009  23.829  0.00  0.00    +0.000 A 
ATOM     15  C   UNL     1      -1.385  14.522  24.149  0.00  0.00    +0.000 A 
ATOM     16  N   UNL     1      -0.730  13.618  23.397  0.00  0.00    +0.000 NA
ATOM     17  C   UNL     1      -1.348  13.178  22.263  0.00  0.00    +0.000 A 
ATOM     18  C   UNL     1      -0.584  12.168  21.478  0.00  0.00    +0.000 C 
ATOM     19  O   UNL     1       0.503  11.757  21.866  0.00  0.00    +0.000 OA
ENDROOT
BRANCH   1  21
ATOM     20  N   UNL     1       0.628   8.990  20.211  0.00  0.00    +0.000 N 
ATOM     21  C   UNL     1       0.494   9.942  19.230  0.00  0.00    +0.000 C 
ATOM     22  O   UNL     1       1.326  10.072  18.336  0.00  0.00    +0.000 OA
ATOM     23  H   UNL     1       0.120   9.128  21.080  0.00  0.00    +0.000 HD
BRANCH  20  24
ATOM     24  C   UNL     1       1.799   8.145  20.259  0.00  0.00    +0.000 C 
BRANCH  24  25
ATOM     25  C   UNL     1       1.498   6.775  20.887  0.00  0.00    +0.000 C 
BRANCH  25  27
ATOM     26  C   UNL     1       1.378   4.442  20.305  0.00  0.00    +0.000 C 
ATOM     27  N   UNL     1       2.198   5.654  20.233  0.00  0.00    +0.000 NA
ATOM     28  C   UNL     1       2.525   5.951  18.837  0.00  0.00    +0.000 C 
ENDBRANCH  25  27
ENDBRANCH  24  25
ENDBRANCH  20  24
ENDBRANCH   1  21
TORSDOF 4
ENDMDL
MODEL 8
REMARK VINA RESULT:      -6.7      3.499      5.903
REMARK  Name = 
REMARK  6 active torsions:
REMARK  status: ('A' for Active; 'I' for Inactive)
REMARK    1  A    between atoms: C_1  and  N_2
REMARK    2  A    between atoms: N_2  and  C_3
REMARK    3  A    between atoms: N_2  and  C_4
REMARK    4  A    between atoms: C_4  and  C_5
REMARK    5  A    between atoms: C_5  and  N_6
REMARK    6  A    between atoms: C_7  and  C_9
REMARK                            x       y       z     vdW  Elec       q    Type
REMARK                         _______ _______ _______ _____ _____    ______ ____
ROOT
ATOM      1  C   UNL     1       3.275   5.335  18.186  0.00  0.00    +0.000 A 
ATOM      2  C   UNL     1       2.711   6.595  18.570  0.00  0.00    +0.000 A 
ATOM      3  C   UNL     1       2.149   6.462  19.832  0.00  0.00    +0.000 A 
ATOM      4  N   UNL     1       2.341   5.159  20.254  0.00  0.00    +0.000 N 
ATOM      5  C   UNL     1       1.982   4.544  21.460  0.00  0.00    +0.000 A 
ATOM      6  C   UNL     1       2.278   3.251  21.671  0.00  0.00    +0.000 A 
ATOM      7  C   UNL     1       2.968   2.511  20.631  0.00  0.00    +0.000 A 
ATOM      8  C   UNL     1       3.313   3.092  19.473  0.00  0.00    +0.000 A 
ATOM      9  C   UNL     1       3.009   4.471  19.242  0.00  0.00    +0.000 A 
ATOM     10  C   UNL     1       1.495   7.541  20.538  0.00  0.00    +0.000 C 
ATOM     11  O   UNL     1       1.007   7.457  21.659  0.00  0.00    +0.000 OA
ATOM     12  C   UNL     1       1.431   8.841  19.818  0.00  0.00    +0.000 A 
ATOM     13  C   UNL     1       0.820   9.958  20.396  0.00  0.00    +0.000 A 
ATOM     14  C   UNL     1       0.776  11.164  19.693  0.00  0.00    +0.000 A 
ATOM     15  C   UNL     1       1.343  11.216  18.431  0.00  0.00    +0.000 A 
ATOM     16  N   UNL     1       1.944  10.162  17.848  0.00  0.00    +0.000 NA
ATOM     17  C   UNL     1       1.977   8.991  18.548  0.00  0.00    +0.000 A 
ATOM     18  C   UNL     1       2.667   7.864  17.860  0.00  0.00    +0.000 C 
ATOM     19  O   UNL     1       3.185   8.016  16.760  0.00  0.00    +0.000 OA
ENDROOT
BRANCH   1  21
ATOM     20  N   UNL     1       4.928   5.841  16.514  0.00  0.00    +0.000 N 
ATOM     21  C   UNL     1       4.012   4.933  16.982  0.00  0.00    +0.000 C 
ATOM     22  O   UNL     1       3.863   3.833  16.457  0.00  0.00    +0.000 OA
ATOM     23  H   UNL     1       4.792   6.820  16.754  0.00  0.00    +0.000 HD
BRANCH  20  24
ATOM     24  C   UNL     1       5.710   5.555  15.334  0.00  0.00    +0.000 C 
BRANCH  24  25
ATOM     25  C   UNL     1       6.997   4.783  15.666  0.00  0.00    +0.000 C 
BRANCH  25  27
ATOM     26  C   UNL     1       7.368   6.760  16.990  0.00  0.00    +0.000 C 
ATOM     27  N   UNL     1       7.772   5.368  16.777  0.00  0.00    +0.000 NA
ATOM     28  C   UNL     1       7.610   4.608  18.017  0.00  0.00    +0.000 C 
ENDBRANCH  25  27
ENDBRANCH  24  25
ENDBRANCH  20  24
ENDBRANCH   1  21
TORSDOF 4
ENDMDL
MODEL 9
REMARK VINA RESULT:      -6.7      8.585     10.257
REMARK  Name = 
REMARK  6 active torsions:
REMARK  status: ('A' for Active; 'I' for Inactive)
REMARK    1  A    between atoms: C_1  and  N_2
REMARK    2  A    between atoms: N_2  and  C_3
REMARK    3  A    between atoms: N_2  and  C_4
REMARK    4  A    between atoms: C_4  and  C_5
REMARK    5  A    between atoms: C_5  and  N_6
REMARK    6  A    between atoms: C_7  and  C_9
REMARK                            x       y       z     vdW  Elec       q    Type
REMARK                         _______ _______ _______ _____ _____    ______ ____
ROOT
ATOM      1  C   UNL     1      -0.816  10.798  19.306  0.00  0.00    +0.000 A 
ATOM      2  C   UNL     1      -1.273  11.744  20.280  0.00  0.00    +0.000 A 
ATOM      3  C   UNL     1      -2.532  12.191  19.907  0.00  0.00    +0.000 A 
ATOM      4  N   UNL     1      -2.884  11.556  18.729  0.00  0.00    +0.000 N 
ATOM      5  C   UNL     1      -4.060  11.651  17.975  0.00  0.00    +0.000 A 
ATOM      6  C   UNL     1      -4.198  10.927  16.851  0.00  0.00    +0.000 A 
ATOM      7  C   UNL     1      -3.114  10.058  16.438  0.00  0.00    +0.000 A 
ATOM      8  C   UNL     1      -1.984   9.964  17.153  0.00  0.00    +0.000 A 
ATOM      9  C   UNL     1      -1.829  10.724  18.356  0.00  0.00    +0.000 A 
ATOM     10  C   UNL     1      -3.302  13.151  20.666  0.00  0.00    +0.000 C 
ATOM     11  O   UNL     1      -4.423  13.549  20.371  0.00  0.00    +0.000 OA
ATOM     12  C   UNL     1      -2.652  13.673  21.897  0.00  0.00    +0.000 A 
ATOM     13  C   UNL     1      -3.295  14.610  22.713  0.00  0.00    +0.000 A 
ATOM     14  C   UNL     1      -2.657  15.080  23.863  0.00  0.00    +0.000 A 
ATOM     15  C   UNL     1      -1.392  14.601  24.161  0.00  0.00    +0.000 A 
ATOM     16  N   UNL     1      -0.747  13.696  23.402  0.00  0.00    +0.000 NA
ATOM     17  C   UNL     1      -1.385  13.247  22.282  0.00  0.00    +0.000 A 
ATOM     18  C   UNL     1      -0.630  12.237  21.489  0.00  0.00    +0.000 C 
ATOM     19  O   UNL     1       0.466  11.833  21.858  0.00  0.00    +0.000 OA
ENDROOT
BRANCH   1  21
ATOM     20  N   UNL     1       1.196  10.218  18.123  0.00  0.00    +0.000 N 
ATOM     21  C   UNL     1       0.416  10.004  19.232  0.00  0.00    +0.000 C 
ATOM     22  O   UNL     1       0.760   9.238  20.128  0.00  0.00    +0.000 OA
ATOM     23  H   UNL     1       0.745  10.580  17.287  0.00  0.00    +0.000 HD
BRANCH  20  24
ATOM     24  C   UNL     1       2.430   9.490  17.942  0.00  0.00    +0.000 C 
BRANCH  24  25
ATOM     25  C   UNL     1       2.185   8.003  17.638  0.00  0.00    +0.000 C 
BRANCH  25  27
ATOM     26  C   UNL     1       2.502   5.886  18.739  0.00  0.00    +0.000 C 
ATOM     27  N   UNL     1       3.170   7.098  18.260  0.00  0.00    +0.000 NA
ATOM     28  C   UNL     1       4.247   6.741  17.335  0.00  0.00    +0.000 C 
ENDBRANCH  25  27
ENDBRANCH  24  25
ENDBRANCH  20  24
ENDBRANCH   1  21
TORSDOF 4
ENDMDL
