MODEL 1
REMARK VINA RESULT:      -7.4      0.000      0.000
REMARK  Name = 
REMARK  7 active torsions:
REMARK  status: ('A' for Active; 'I' for Inactive)
REMARK    1  A    between atoms: C_1  and  C_2
REMARK    2  A    between atoms: N_4  and  C_5
REMARK    3  A    between atoms: C_7  and  O_8
REMARK    4  A    between atoms: C_9  and  O_10
REMARK    5  A    between atoms: O_10  and  P_11
REMARK    6  A    between atoms: P_11  and  O_13
REMARK    7  A    between atoms: P_11  and  O_14
REMARK                            x       y       z     vdW  Elec       q    Type
REMARK                         _______ _______ _______ _____ _____    ______ ____
ROOT
ATOM      1  C   UNL     1       4.702   6.106  18.314  0.00  0.00    +0.000 C 
ATOM      2  C   UNL     1       3.353   6.766  18.030  0.00  0.00    +0.000 C 
ATOM      3  C   UNL     1       2.441   6.185  19.081  0.00  0.00    +0.000 C 
ATOM      4  C   UNL     1       2.999   4.779  19.263  0.00  0.00    +0.000 C 
ATOM      5  O   UNL     1       4.412   4.864  18.996  0.00  0.00    +0.000 OA
ENDROOT
BRANCH   1   9
ATOM      6  C   UNL     1       5.371   3.950  13.870  0.00  0.00    +0.000 C 
ATOM      7  C   UNL     1       5.830   4.795  15.014  0.00  0.00    +0.000 A 
ATOM      8  C   UNL     1       5.097   5.039  16.112  0.00  0.00    +0.000 A 
ATOM      9  N   UNL     1       5.548   5.860  17.140  0.00  0.00    +0.000 N 
ATOM     10  C   UNL     1       6.871   6.304  17.152  0.00  0.00    +0.000 A 
ATOM     11  O   UNL     1       7.396   6.877  18.100  0.00  0.00    +0.000 OA
ATOM     12  N   UNL     1       7.594   6.086  16.025  0.00  0.00    +0.000 N 
ATOM     13  C   UNL     1       7.166   5.395  14.910  0.00  0.00    +0.000 A 
ATOM     14  O   UNL     1       7.874   5.276  13.918  0.00  0.00    +0.000 OA
ATOM     15  H   UNL     1       8.526   6.453  15.993  0.00  0.00    +0.000 HD
ENDBRANCH   1   9
BRANCH   3  16
ATOM     16  O   UNL     1       2.531   6.962  20.279  0.00  0.00    +0.000 OA
ATOM     17  H   UNL     1       1.644   7.098  20.654  0.00  0.00    +0.000 HD
ENDBRANCH   3  16
BRANCH   4  18
ATOM     18  O   UNL     1       2.383   3.859  18.373  0.00  0.00    +0.000 OA
BRANCH  18  19
ATOM     19  P   UNL     1       3.245   2.360  18.396  0.00  0.00    +0.000 P 
ATOM     20  O   UNL     1       2.806   2.059  19.828  0.00  0.00    +0.000 OA
BRANCH  19  21
ATOM     21  O   UNL     1       2.110   1.667  17.465  0.00  0.00    +0.000 OA
ATOM     22  H   UNL     1       1.735   2.362  16.898  0.00  0.00    +0.000 HD
ENDBRANCH  19  21
BRANCH  19  23
ATOM     23  O   UNL     1       4.106   0.859  18.420  0.00  0.00    +0.000 OA
ATOM     24  H   UNL     1       5.019   1.101  18.163  0.00  0.00    +0.000 HD
ENDBRANCH  19  23
ENDBRANCH  18  19
ENDBRANCH   4  18
TORSDOF 6
ENDMDL
MODEL 2
REMARK VINA RESULT:      -7.3      1.429      1.476
REMARK  Name = 
REMARK  7 active torsions:
REMARK  status: ('A' for Active; 'I' for Inactive)
REMARK    1  A    between atoms: C_1  and  C_2
REMARK    2  A    between atoms: N_4  and  C_5
REMARK    3  A    between atoms: C_7  and  O_8
REMARK    4  A    between atoms: C_9  and  O_10
REMARK    5  A    between atoms: O_10  and  P_11
REMARK    6  A    between atoms: P_11  and  O_13
REMARK    7  A    between atoms: P_11  and  O_14
REMARK                            x       y       z     vdW  Elec       q    Type
REMARK                         _______ _______ _______ _____ _____    ______ ____
ROOT
ATOM      1  C   UNL     1       4.187   5.878  19.424  0.00  0.00    +0.000 C 
ATOM      2  C   UNL     1       3.109   6.876  18.999  0.00  0.00    +0.000 C 
ATOM      3  C   UNL     1       1.907   6.473  19.815  0.00  0.00    +0.000 C 
ATOM      4  C   UNL     1       2.073   4.962  19.926  0.00  0.00    +0.000 C 
ATOM      5  O   UNL     1       3.490   4.706  19.904  0.00  0.00    +0.000 OA
ENDROOT
BRANCH   1   9
ATOM      6  C   UNL     1       5.152   4.630  14.696  0.00  0.00    +0.000 C 
ATOM      7  C   UNL     1       5.569   4.901  16.105  0.00  0.00    +0.000 A 
ATOM      8  C   UNL     1       4.721   5.231  17.091  0.00  0.00    +0.000 A 
ATOM      9  N   UNL     1       5.154   5.509  18.383  0.00  0.00    +0.000 N 
ATOM     10  C   UNL     1       6.479   5.259  18.746  0.00  0.00    +0.000 A 
ATOM     11  O   UNL     1       6.898   5.305  19.898  0.00  0.00    +0.000 OA
ATOM     12  N   UNL     1       7.338   4.962  17.739  0.00  0.00    +0.000 N 
ATOM     13  C   UNL     1       7.002   4.802  16.410  0.00  0.00    +0.000 A 
ATOM     14  O   UNL     1       7.850   4.570  15.557  0.00  0.00    +0.000 OA
ATOM     15  H   UNL     1       8.305   4.841  17.974  0.00  0.00    +0.000 HD
ENDBRANCH   1   9
BRANCH   3  16
ATOM     16  O   UNL     1       1.953   7.116  21.092  0.00  0.00    +0.000 OA
ATOM     17  H   UNL     1       1.535   6.552  21.764  0.00  0.00    +0.000 HD
ENDBRANCH   3  16
BRANCH   4  18
ATOM     18  O   UNL     1       1.434   4.292  18.849  0.00  0.00    +0.000 OA
BRANCH  18  19
ATOM     19  P   UNL     1       2.178   2.750  18.598  0.00  0.00    +0.000 P 
ATOM     20  O   UNL     1       0.871   2.007  18.870  0.00  0.00    +0.000 OA
BRANCH  19  21
ATOM     21  O   UNL     1       2.187   2.991  16.993  0.00  0.00    +0.000 OA
ATOM     22  H   UNL     1       2.668   3.819  16.825  0.00  0.00    +0.000 HD
ENDBRANCH  19  21
BRANCH  19  23
ATOM     23  O   UNL     1       2.921   1.208  18.347  0.00  0.00    +0.000 OA
ATOM     24  H   UNL     1       3.612   1.380  17.676  0.00  0.00    +0.000 HD
ENDBRANCH  19  23
ENDBRANCH  18  19
ENDBRANCH   4  18
TORSDOF 6
ENDMDL
MODEL 3
REMARK VINA RESULT:      -7.3      1.013      1.435
REMARK  Name = 
REMARK  7 active torsions:
REMARK  status: ('A' for Active; 'I' for Inactive)
REMARK    1  A    between atoms: C_1  and  C_2
REMARK    2  A    between atoms: N_4  and  C_5
REMARK    3  A    between atoms: C_7  and  O_8
REMARK    4  A    between atoms: C_9  and  O_10
REMARK    5  A    between atoms: O_10  and  P_11
REMARK    6  A    between atoms: P_11  and  O_13
REMARK    7  A    between atoms: P_11  and  O_14
REMARK                            x       y       z     vdW  Elec       q    Type
REMARK                         _______ _______ _______ _____ _____    ______ ____
ROOT
ATOM      1  C   UNL     1       4.832   6.002  18.292  0.00  0.00    +0.000 C 
ATOM      2  C   UNL     1       3.344   6.259  18.052  0.00  0.00    +0.000 C 
ATOM      3  C   UNL     1       2.675   5.631  19.249  0.00  0.00    +0.000 C 
ATOM      4  C   UNL     1       3.586   4.450  19.556  0.00  0.00    +0.000 C 
ATOM      5  O   UNL     1       4.911   4.840  19.150  0.00  0.00    +0.000 OA
ENDROOT
BRANCH   1   9
ATOM      6  C   UNL     1       5.413   3.944  13.789  0.00  0.00    +0.000 C 
ATOM      7  C   UNL     1       5.885   4.784  14.932  0.00  0.00    +0.000 A 
ATOM      8  C   UNL     1       5.184   4.986  16.058  0.00  0.00    +0.000 A 
ATOM      9  N   UNL     1       5.644   5.803  17.085  0.00  0.00    +0.000 N 
ATOM     10  C   UNL     1       6.953   6.289  17.060  0.00  0.00    +0.000 A 
ATOM     11  O   UNL     1       7.492   6.862  18.000  0.00  0.00    +0.000 OA
ATOM     12  N   UNL     1       7.642   6.113  15.905  0.00  0.00    +0.000 N 
ATOM     13  C   UNL     1       7.197   5.428  14.794  0.00  0.00    +0.000 A 
ATOM     14  O   UNL     1       7.873   5.349  13.775  0.00  0.00    +0.000 OA
ATOM     15  H   UNL     1       8.560   6.511  15.848  0.00  0.00    +0.000 HD
ENDBRANCH   1   9
BRANCH   3  16
ATOM     16  O   UNL     1       2.631   6.573  20.325  0.00  0.00    +0.000 OA
ATOM     17  H   UNL     1       3.434   7.122  20.320  0.00  0.00    +0.000 HD
ENDBRANCH   3  16
BRANCH   4  18
ATOM     18  O   UNL     1       3.178   3.286  18.851  0.00  0.00    +0.000 OA
BRANCH  18  19
ATOM     19  P   UNL     1       1.511   2.960  19.178  0.00  0.00    +0.000 P 
ATOM     20  O   UNL     1       1.093   3.359  17.763  0.00  0.00    +0.000 OA
BRANCH  19  21
ATOM     21  O   UNL     1       1.782   1.362  19.091  0.00  0.00    +0.000 OA
ATOM     22  H   UNL     1       2.648   1.191  19.499  0.00  0.00    +0.000 HD
ENDBRANCH  19  21
BRANCH  19  23
ATOM     23  O   UNL     1      -0.157   2.635  19.503  0.00  0.00    +0.000 OA
ATOM     24  H   UNL     1      -0.593   3.507  19.422  0.00  0.00    +0.000 HD
ENDBRANCH  19  23
ENDBRANCH  18  19
ENDBRANCH   4  18
TORSDOF 6
ENDMDL
MODEL 4
REMARK VINA RESULT:      -7.1      2.817      5.862
REMARK  Name = 
REMARK  7 active torsions:
REMARK  status: ('A' for Active; 'I' for Inactive)
REMARK    1  A    between atoms: C_1  and  C_2
REMARK    2  A    between atoms: N_4  and  C_5
REMARK    3  A    between atoms: C_7  and  O_8
REMARK    4  A    between atoms: C_9  and  O_10
REMARK    5  A    between atoms: O_10  and  P_11
REMARK    6  A    between atoms: P_11  and  O_13
REMARK    7  A    between atoms: P_11  and  O_14
REMARK                            x       y       z     vdW  Elec       q    Type
REMARK                         _______ _______ _______ _____ _____    ______ ____
ROOT
ATOM      1  C   UNL     1       3.163   4.701  18.867  0.00  0.00    +0.000 C 
ATOM      2  C   UNL     1       3.342   4.518  17.360  0.00  0.00    +0.000 C 
ATOM      3  C   UNL     1       4.605   3.701  17.247  0.00  0.00    +0.000 C 
ATOM      4  C   UNL     1       5.423   4.190  18.435  0.00  0.00    +0.000 C 
ATOM      5  O   UNL     1       4.478   4.568  19.453  0.00  0.00    +0.000 OA
ENDROOT
BRANCH   1   9
ATOM      6  C   UNL     1       2.051   9.465  17.913  0.00  0.00    +0.000 C 
ATOM      7  C   UNL     1       2.040   8.253  18.787  0.00  0.00    +0.000 A 
ATOM      8  C   UNL     1       2.603   7.080  18.455  0.00  0.00    +0.000 A 
ATOM      9  N   UNL     1       2.542   5.965  19.283  0.00  0.00    +0.000 N 
ATOM     10  C   UNL     1       2.057   6.086  20.586  0.00  0.00    +0.000 A 
ATOM     11  O   UNL     1       2.132   5.203  21.434  0.00  0.00    +0.000 OA
ATOM     12  N   UNL     1       1.456   7.261  20.902  0.00  0.00    +0.000 N 
ATOM     13  C   UNL     1       1.361   8.367  20.084  0.00  0.00    +0.000 A 
ATOM     14  O   UNL     1       0.767   9.378  20.437  0.00  0.00    +0.000 OA
ATOM     15  H   UNL     1       1.047   7.342  21.814  0.00  0.00    +0.000 HD
ENDBRANCH   1   9
BRANCH   3  16
ATOM     16  O   UNL     1       4.289   2.309  17.345  0.00  0.00    +0.000 OA
ATOM     17  H   UNL     1       3.764   2.143  18.146  0.00  0.00    +0.000 HD
ENDBRANCH   3  16
BRANCH   4  18
ATOM     18  O   UNL     1       6.236   5.300  18.081  0.00  0.00    +0.000 OA
BRANCH  18  19
ATOM     19  P   UNL     1       6.929   5.040  16.518  0.00  0.00    +0.000 P 
ATOM     20  O   UNL     1       7.508   6.454  16.472  0.00  0.00    +0.000 OA
BRANCH  19  21
ATOM     21  O   UNL     1       8.110   4.135  17.166  0.00  0.00    +0.000 OA
ATOM     22  H   UNL     1       7.857   3.203  17.054  0.00  0.00    +0.000 HD
ENDBRANCH  19  21
BRANCH  19  23
ATOM     23  O   UNL     1       7.624   4.781  14.954  0.00  0.00    +0.000 OA
ATOM     24  H   UNL     1       7.329   3.882  14.705  0.00  0.00    +0.000 HD
ENDBRANCH  19  23
ENDBRANCH  18  19
ENDBRANCH   4  18
TORSDOF 6
ENDMDL
MODEL 5
REMARK VINA RESULT:      -7.0      2.772      5.698
REMARK  Name = 
REMARK  7 active torsions:
REMARK  status: ('A' for Active; 'I' for Inactive)
REMARK    1  A    between atoms: C_1  and  C_2
REMARK    2  A    between atoms: N_4  and  C_5
REMARK    3  A    between atoms: C_7  and  O_8
REMARK    4  A    between atoms: C_9  and  O_10
REMARK    5  A    between atoms: O_10  and  P_11
REMARK    6  A    between atoms: P_11  and  O_13
REMARK    7  A    between atoms: P_11  and  O_14
REMARK                            x       y       z     vdW  Elec       q    Type
REMARK                         _______ _______ _______ _____ _____    ______ ____
ROOT
ATOM      1  C   UNL     1       3.352   4.221  18.975  0.00  0.00    +0.000 C 
ATOM      2  C   UNL     1       2.545   3.356  18.006  0.00  0.00    +0.000 C 
ATOM      3  C   UNL     1       3.600   2.626  17.215  0.00  0.00    +0.000 C 
ATOM      4  C   UNL     1       4.732   3.644  17.152  0.00  0.00    +0.000 C 
ATOM      5  O   UNL     1       4.645   4.425  18.359  0.00  0.00    +0.000 OA
ENDROOT
BRANCH   1   9
ATOM      6  C   UNL     1       2.340   8.963  17.821  0.00  0.00    +0.000 C 
ATOM      7  C   UNL     1       2.293   7.785  18.739  0.00  0.00    +0.000 A 
ATOM      8  C   UNL     1       2.841   6.592  18.463  0.00  0.00    +0.000 A 
ATOM      9  N   UNL     1       2.745   5.510  19.330  0.00  0.00    +0.000 N 
ATOM     10  C   UNL     1       2.238   5.689  20.619  0.00  0.00    +0.000 A 
ATOM     11  O   UNL     1       2.283   4.837  21.500  0.00  0.00    +0.000 OA
ATOM     12  N   UNL     1       1.653   6.884  20.879  0.00  0.00    +0.000 N 
ATOM     13  C   UNL     1       1.592   7.960  20.017  0.00  0.00    +0.000 A 
ATOM     14  O   UNL     1       1.009   8.993  20.321  0.00  0.00    +0.000 OA
ATOM     15  H   UNL     1       1.228   7.007  21.779  0.00  0.00    +0.000 HD
ENDBRANCH   1   9
BRANCH   3  16
ATOM     16  O   UNL     1       3.984   1.434  17.907  0.00  0.00    +0.000 OA
ATOM     17  H   UNL     1       3.779   0.653  17.365  0.00  0.00    +0.000 HD
ENDBRANCH   3  16
BRANCH   4  18
ATOM     18  O   UNL     1       4.610   4.483  16.013  0.00  0.00    +0.000 OA
BRANCH  18  19
ATOM     19  P   UNL     1       6.182   4.905  15.427  0.00  0.00    +0.000 P 
ATOM     20  O   UNL     1       6.055   6.338  15.941  0.00  0.00    +0.000 OA
BRANCH  19  21
ATOM     21  O   UNL     1       6.879   4.092  16.647  0.00  0.00    +0.000 OA
ATOM     22  H   UNL     1       6.457   3.218  16.692  0.00  0.00    +0.000 HD
ENDBRANCH  19  21
BRANCH  19  23
ATOM     23  O   UNL     1       7.754   5.328  14.842  0.00  0.00    +0.000 OA
ATOM     24  H   UNL     1       7.864   6.265  15.102  0.00  0.00    +0.000 HD
ENDBRANCH  19  23
ENDBRANCH  18  19
ENDBRANCH   4  18
TORSDOF 6
ENDMDL
MODEL 6
REMARK VINA RESULT:      -7.0      2.412      5.946
REMARK  Name = 
REMARK  7 active torsions:
REMARK  status: ('A' for Active; 'I' for Inactive)
REMARK    1  A    between atoms: C_1  and  C_2
REMARK    2  A    between atoms: N_4  and  C_5
REMARK    3  A    between atoms: C_7  and  O_8
REMARK    4  A    between atoms: C_9  and  O_10
REMARK    5  A    between atoms: O_10  and  P_11
REMARK    6  A    between atoms: P_11  and  O_13
REMARK    7  A    between atoms: P_11  and  O_14
REMARK                            x       y       z     vdW  Elec       q    Type
REMARK                         _______ _______ _______ _____ _____    ______ ____
ROOT
ATOM      1  C   UNL     1       4.742   3.661  16.778  0.00  0.00    +0.000 C 
ATOM      2  C   UNL     1       4.756   4.659  15.621  0.00  0.00    +0.000 C 
ATOM      3  C   UNL     1       6.217   4.783  15.272  0.00  0.00    +0.000 C 
ATOM      4  C   UNL     1       6.897   4.605  16.624  0.00  0.00    +0.000 C 
ATOM      5  O   UNL     1       6.048   3.735  17.396  0.00  0.00    +0.000 OA
ENDROOT
BRANCH   1   9
ATOM      6  C   UNL     1       2.181   6.726  19.760  0.00  0.00    +0.000 C 
ATOM      7  C   UNL     1       2.494   5.374  19.206  0.00  0.00    +0.000 A 
ATOM      8  C   UNL     1       3.452   5.136  18.297  0.00  0.00    +0.000 A 
ATOM      9  N   UNL     1       3.689   3.866  17.781  0.00  0.00    +0.000 N 
ATOM     10  C   UNL     1       3.061   2.754  18.344  0.00  0.00    +0.000 A 
ATOM     11  O   UNL     1       3.345   1.592  18.071  0.00  0.00    +0.000 OA
ATOM     12  N   UNL     1       2.068   3.004  19.233  0.00  0.00    +0.000 N 
ATOM     13  C   UNL     1       1.687   4.247  19.692  0.00  0.00    +0.000 A 
ATOM     14  O   UNL     1       0.752   4.386  20.471  0.00  0.00    +0.000 OA
ATOM     15  H   UNL     1       1.565   2.218  19.599  0.00  0.00    +0.000 HD
ENDBRANCH   1   9
BRANCH   3  16
ATOM     16  O   UNL     1       6.580   3.755  14.346  0.00  0.00    +0.000 OA
ATOM     17  H   UNL     1       6.783   4.145  13.478  0.00  0.00    +0.000 HD
ENDBRANCH   3  16
BRANCH   4  18
ATOM     18  O   UNL     1       7.060   5.850  17.289  0.00  0.00    +0.000 OA
BRANCH  18  19
ATOM     19  P   UNL     1       7.813   5.598  18.825  0.00  0.00    +0.000 P 
ATOM     20  O   UNL     1       8.299   7.044  18.893  0.00  0.00    +0.000 OA
BRANCH  19  21
ATOM     21  O   UNL     1       6.367   5.615  19.562  0.00  0.00    +0.000 OA
ATOM     22  H   UNL     1       6.130   4.693  19.759  0.00  0.00    +0.000 HD
ENDBRANCH  19  21
BRANCH  19  23
ATOM     23  O   UNL     1       8.566   5.346  20.362  0.00  0.00    +0.000 OA
ATOM     24  H   UNL     1       8.562   6.231  20.781  0.00  0.00    +0.000 HD
ENDBRANCH  19  23
ENDBRANCH  18  19
ENDBRANCH   4  18
TORSDOF 6
ENDMDL
MODEL 7
REMARK VINA RESULT:      -6.9      0.776      1.159
REMARK  Name = 
REMARK  7 active torsions:
REMARK  status: ('A' for Active; 'I' for Inactive)
REMARK    1  A    between atoms: C_1  and  C_2
REMARK    2  A    between atoms: N_4  and  C_5
REMARK    3  A    between atoms: C_7  and  O_8
REMARK    4  A    between atoms: C_9  and  O_10
REMARK    5  A    between atoms: O_10  and  P_11
REMARK    6  A    between atoms: P_11  and  O_13
REMARK    7  A    between atoms: P_11  and  O_14
REMARK                            x       y       z     vdW  Elec       q    Type
REMARK                         _______ _______ _______ _____ _____    ______ ____
ROOT
ATOM      1  C   UNL     1       4.611   6.244  18.190  0.00  0.00    +0.000 C 
ATOM      2  C   UNL     1       3.426   7.163  17.893  0.00  0.00    +0.000 C 
ATOM      3  C   UNL     1       2.350   6.672  18.827  0.00  0.00    +0.000 C 
ATOM      4  C   UNL     1       2.634   5.177  18.903  0.00  0.00    +0.000 C 
ATOM      5  O   UNL     1       4.055   5.023  18.728  0.00  0.00    +0.000 OA
ENDROOT
BRANCH   1   9
ATOM      6  C   UNL     1       5.359   3.962  13.822  0.00  0.00    +0.000 C 
ATOM      7  C   UNL     1       5.805   4.824  14.958  0.00  0.00    +0.000 A 
ATOM      8  C   UNL     1       5.046   5.114  16.027  0.00  0.00    +0.000 A 
ATOM      9  N   UNL     1       5.486   5.949  17.048  0.00  0.00    +0.000 N 
ATOM     10  C   UNL     1       6.819   6.360  17.090  0.00  0.00    +0.000 A 
ATOM     11  O   UNL     1       7.330   6.944  18.040  0.00  0.00    +0.000 OA
ATOM     12  N   UNL     1       7.570   6.097  15.991  0.00  0.00    +0.000 N 
ATOM     13  C   UNL     1       7.158   5.389  14.881  0.00  0.00    +0.000 A 
ATOM     14  O   UNL     1       7.892   5.228  13.914  0.00  0.00    +0.000 OA
ATOM     15  H   UNL     1       8.511   6.441  15.979  0.00  0.00    +0.000 HD
ENDBRANCH   1   9
BRANCH   3  16
ATOM     16  O   UNL     1       2.486   7.313  20.099  0.00  0.00    +0.000 OA
ATOM     17  H   UNL     1       1.670   7.203  20.616  0.00  0.00    +0.000 HD
ENDBRANCH   3  16
BRANCH   4  18
ATOM     18  O   UNL     1       1.933   4.466  17.893  0.00  0.00    +0.000 OA
BRANCH  18  19
ATOM     19  P   UNL     1       1.606   2.855  18.433  0.00  0.00    +0.000 P 
ATOM     20  O   UNL     1       2.659   2.263  17.497  0.00  0.00    +0.000 OA
BRANCH  19  21
ATOM     21  O   UNL     1       2.400   3.135  19.820  0.00  0.00    +0.000 OA
ATOM     22  H   UNL     1       2.743   4.044  19.782  0.00  0.00    +0.000 HD
ENDBRANCH  19  21
BRANCH  19  23
ATOM     23  O   UNL     1       1.280   1.244  18.973  0.00  0.00    +0.000 OA
ATOM     24  H   UNL     1       0.432   1.318  19.455  0.00  0.00    +0.000 HD
ENDBRANCH  19  23
ENDBRANCH  18  19
ENDBRANCH   4  18
TORSDOF 6
ENDMDL
MODEL 8
REMARK VINA RESULT:      -6.9      2.887      5.861
REMARK  Name = 
REMARK  7 active torsions:
REMARK  status: ('A' for Active; 'I' for Inactive)
REMARK    1  A    between atoms: C_1  and  C_2
REMARK    2  A    between atoms: N_4  and  C_5
REMARK    3  A    between atoms: C_7  and  O_8
REMARK    4  A    between atoms: C_9  and  O_10
REMARK    5  A    between atoms: O_10  and  P_11
REMARK    6  A    between atoms: P_11  and  O_13
REMARK    7  A    between atoms: P_11  and  O_14
REMARK                            x       y       z     vdW  Elec       q    Type
REMARK                         _______ _______ _______ _____ _____    ______ ____
ROOT
ATOM      1  C   UNL     1       3.231   4.471  18.917  0.00  0.00    +0.000 C 
ATOM      2  C   UNL     1       2.980   4.035  17.473  0.00  0.00    +0.000 C 
ATOM      3  C   UNL     1       4.234   3.284  17.104  0.00  0.00    +0.000 C 
ATOM      4  C   UNL     1       5.307   4.020  17.896  0.00  0.00    +0.000 C 
ATOM      5  O   UNL     1       4.666   4.518  19.085  0.00  0.00    +0.000 OA
ENDROOT
BRANCH   1   9
ATOM      6  C   UNL     1       2.176   9.227  17.862  0.00  0.00    +0.000 C 
ATOM      7  C   UNL     1       2.153   8.034  18.762  0.00  0.00    +0.000 A 
ATOM      8  C   UNL     1       2.700   6.848  18.454  0.00  0.00    +0.000 A 
ATOM      9  N   UNL     1       2.627   5.751  19.306  0.00  0.00    +0.000 N 
ATOM     10  C   UNL     1       2.147   5.907  20.608  0.00  0.00    +0.000 A 
ATOM     11  O   UNL     1       2.214   5.042  21.474  0.00  0.00    +0.000 OA
ATOM     12  N   UNL     1       1.562   7.096  20.900  0.00  0.00    +0.000 N 
ATOM     13  C   UNL     1       1.479   8.185  20.057  0.00  0.00    +0.000 A 
ATOM     14  O   UNL     1       0.898   9.211  20.390  0.00  0.00    +0.000 OA
ATOM     15  H   UNL     1       1.157   7.202  21.811  0.00  0.00    +0.000 HD
ENDBRANCH   1   9
BRANCH   3  16
ATOM     16  O   UNL     1       4.112   1.915  17.504  0.00  0.00    +0.000 OA
ATOM     17  H   UNL     1       3.487   1.840  18.245  0.00  0.00    +0.000 HD
ENDBRANCH   3  16
BRANCH   4  18
ATOM     18  O   UNL     1       5.858   5.094  17.146  0.00  0.00    +0.000 OA
BRANCH  18  19
ATOM     19  P   UNL     1       7.081   5.889  18.076  0.00  0.00    +0.000 P 
ATOM     20  O   UNL     1       7.899   4.606  18.209  0.00  0.00    +0.000 OA
BRANCH  19  21
ATOM     21  O   UNL     1       7.659   6.609  16.742  0.00  0.00    +0.000 OA
ATOM     22  H   UNL     1       8.473   7.077  16.993  0.00  0.00    +0.000 HD
ENDBRANCH  19  21
BRANCH  19  23
ATOM     23  O   UNL     1       8.305   6.683  19.006  0.00  0.00    +0.000 OA
ATOM     24  H   UNL     1       9.001   6.004  19.118  0.00  0.00    +0.000 HD
ENDBRANCH  19  23
ENDBRANCH  18  19
ENDBRANCH   4  18
TORSDOF 6
ENDMDL
MODEL 9
REMARK VINA RESULT:      -6.9      2.228      5.793
REMARK  Name = 
REMARK  7 active torsions:
REMARK  status: ('A' for Active; 'I' for Inactive)
REMARK    1  A    between atoms: C_1  and  C_2
REMARK    2  A    between atoms: N_4  and  C_5
REMARK    3  A    between atoms: C_7  and  O_8
REMARK    4  A    between atoms: C_9  and  O_10
REMARK    5  A    between atoms: O_10  and  P_11
REMARK    6  A    between atoms: P_11  and  O_13
REMARK    7  A    between atoms: P_11  and  O_14
REMARK                            x       y       z     vdW  Elec       q    Type
REMARK                         _______ _______ _______ _____ _____    ______ ____
ROOT
ATOM      1  C   UNL     1       4.772   4.244  16.873  0.00  0.00    +0.000 C 
ATOM      2  C   UNL     1       4.969   5.107  15.627  0.00  0.00    +0.000 C 
ATOM      3  C   UNL     1       6.378   4.791  15.193  0.00  0.00    +0.000 C 
ATOM      4  C   UNL     1       7.084   4.536  16.519  0.00  0.00    +0.000 C 
ATOM      5  O   UNL     1       6.091   3.999  17.412  0.00  0.00    +0.000 OA
ENDROOT
BRANCH   1   9
ATOM      6  C   UNL     1       2.216   8.118  18.690  0.00  0.00    +0.000 C 
ATOM      7  C   UNL     1       2.691   6.702  18.746  0.00  0.00    +0.000 A 
ATOM      8  C   UNL     1       3.501   6.143  17.834  0.00  0.00    +0.000 A 
ATOM      9  N   UNL     1       3.894   4.811  17.904  0.00  0.00    +0.000 N 
ATOM     10  C   UNL     1       3.613   4.058  19.045  0.00  0.00    +0.000 A 
ATOM     11  O   UNL     1       4.072   2.942  19.264  0.00  0.00    +0.000 OA
ATOM     12  N   UNL     1       2.764   4.615  19.945  0.00  0.00    +0.000 N 
ATOM     13  C   UNL     1       2.228   5.883  19.873  0.00  0.00    +0.000 A 
ATOM     14  O   UNL     1       1.437   6.295  20.714  0.00  0.00    +0.000 OA
ATOM     15  H   UNL     1       2.503   4.062  20.740  0.00  0.00    +0.000 HD
ENDBRANCH   1   9
BRANCH   3  16
ATOM     16  O   UNL     1       6.376   3.634  14.351  0.00  0.00    +0.000 OA
ATOM     17  H   UNL     1       6.183   2.840  14.878  0.00  0.00    +0.000 HD
ENDBRANCH   3  16
BRANCH   4  18
ATOM     18  O   UNL     1       7.630   5.734  17.053  0.00  0.00    +0.000 OA
BRANCH  18  19
ATOM     19  P   UNL     1       7.636   5.654  18.780  0.00  0.00    +0.000 P 
ATOM     20  O   UNL     1       8.706   4.563  18.787  0.00  0.00    +0.000 OA
BRANCH  19  21
ATOM     21  O   UNL     1       8.467   7.045  18.865  0.00  0.00    +0.000 OA
ATOM     22  H   UNL     1       7.937   7.728  18.421  0.00  0.00    +0.000 HD
ENDBRANCH  19  21
BRANCH  19  23
ATOM     23  O   UNL     1       7.642   5.573  20.509  0.00  0.00    +0.000 OA
ATOM     24  H   UNL     1       8.339   6.206  20.777  0.00  0.00    +0.000 HD
ENDBRANCH  19  23
ENDBRANCH  18  19
ENDBRANCH   4  18
TORSDOF 6
ENDMDL
