MODEL 1
REMARK VINA RESULT:      -7.5      0.000      0.000
REMARK  Name = 
REMARK  4 active torsions:
REMARK  status: ('A' for Active; 'I' for Inactive)
REMARK    1  A    between atoms: C_1  and  C_2
REMARK    2  A    between atoms: C_2  and  N_3
REMARK    3  A    between atoms: C_5  and  C_6
REMARK    4  A    between atoms: C_19  and  N_20
REMARK                            x       y       z     vdW  Elec       q    Type
REMARK                         _______ _______ _______ _____ _____    ______ ____
ROOT
ATOM      1  N   UNL     1       1.672   9.408  18.585  0.00  0.00    +0.000 N 
ATOM      2  C   UNL     1       2.301   8.240  18.184  0.00  0.00    +0.000 A 
ATOM      3  C   UNL     1       2.411   7.106  18.892  0.00  0.00    +0.000 A 
ATOM      4  C   UNL     1       1.790   7.085  20.238  0.00  0.00    +0.000 A 
ATOM      5  O   UNL     1       1.795   6.075  20.935  0.00  0.00    +0.000 OA
ATOM      6  C   UNL     1       1.159   8.338  20.721  0.00  0.00    +0.000 A 
ATOM      7  C   UNL     1       0.652   8.365  22.024  0.00  0.00    +0.000 A 
ATOM      8  C   UNL     1       0.099   9.538  22.522  0.00  0.00    +0.000 A 
ATOM      9  F   UNL     1      -0.354   9.523  23.785  0.00  0.00    +0.000 F 
ATOM     10  C   UNL     1       0.014  10.696  21.739  0.00  0.00    +0.000 A 
ATOM     11  C   UNL     1       0.502  10.622  20.415  0.00  0.00    +0.000 A 
ATOM     12  C   UNL     1       1.101   9.467  19.878  0.00  0.00    +0.000 A 
ENDROOT
BRANCH   3  13
ATOM     13  C   UNL     1       3.100   5.943  18.329  0.00  0.00    +0.000 A 
ATOM     14  C   UNL     1       2.367   4.849  17.850  0.00  0.00    +0.000 A 
ATOM     15  C   UNL     1       3.029   3.726  17.349  0.00  0.00    +0.000 A 
ATOM     16  C   UNL     1       4.423   3.691  17.328  0.00  0.00    +0.000 A 
ATOM     17  C   UNL     1       5.151   4.782  17.800  0.00  0.00    +0.000 A 
ATOM     18 CL   UNL     1       6.871   4.735  17.781  0.00  0.00    +0.000 Cl
ATOM     19  C   UNL     1       4.498   5.907  18.299  0.00  0.00    +0.000 A 
ENDBRANCH   3  13
BRANCH  10  20
ATOM     20  N   UNL     1      -0.433  11.936  22.202  0.00  0.00    +0.000 N 
ATOM     21  C   UNL     1      -1.848  12.094  22.586  0.00  0.00    +0.000 C 
ATOM     22  C   UNL     1      -1.972  13.325  23.514  0.00  0.00    +0.000 C 
ATOM     23  N   UNL     1      -1.465  14.573  22.908  0.00  0.00    +0.000 NA
ATOM     24  C   UNL     1      -0.086  14.367  22.416  0.00  0.00    +0.000 C 
ATOM     25  C   UNL     1       0.082  13.129  21.500  0.00  0.00    +0.000 C 
ATOM     26  H   UNL     1      -1.456  15.303  23.619  0.00  0.00    +0.000 HD
ENDBRANCH  10  20
BRANCH   1  28
ATOM     27  C   UNL     1       2.541  11.621  17.941  0.00  0.00    +0.000 C 
ATOM     28  C   UNL     1       1.520  10.532  17.643  0.00  0.00    +0.000 C 
ENDBRANCH   1  28
TORSDOF 3
ENDMDL
MODEL 2
REMARK VINA RESULT:      -7.5      1.081      1.394
REMARK  Name = 
REMARK  4 active torsions:
REMARK  status: ('A' for Active; 'I' for Inactive)
REMARK    1  A    between atoms: C_1  and  C_2
REMARK    2  A    between atoms: C_2  and  N_3
REMARK    3  A    between atoms: C_5  and  C_6
REMARK    4  A    between atoms: C_19  and  N_20
REMARK                            x       y       z     vdW  Elec       q    Type
REMARK                         _______ _______ _______ _____ _____    ______ ____
ROOT
ATOM      1  N   UNL     1       1.530   9.869  18.636  0.00  0.00    +0.000 N 
ATOM      2  C   UNL     1       2.192   8.742  18.174  0.00  0.00    +0.000 A 
ATOM      3  C   UNL     1       2.332   7.574  18.819  0.00  0.00    +0.000 A 
ATOM      4  C   UNL     1       1.707   7.462  20.159  0.00  0.00    +0.000 A 
ATOM      5  O   UNL     1       1.737   6.416  20.800  0.00  0.00    +0.000 OA
ATOM      6  C   UNL     1       1.040   8.669  20.707  0.00  0.00    +0.000 A 
ATOM      7  C   UNL     1       0.527   8.610  22.007  0.00  0.00    +0.000 A 
ATOM      8  C   UNL     1      -0.059   9.738  22.566  0.00  0.00    +0.000 A 
ATOM      9  F   UNL     1      -0.516   9.642  23.824  0.00  0.00    +0.000 F 
ATOM     10  C   UNL     1      -0.174  10.936  21.848  0.00  0.00    +0.000 A 
ATOM     11  C   UNL     1       0.320  10.947  20.524  0.00  0.00    +0.000 A 
ATOM     12  C   UNL     1       0.953   9.841  19.928  0.00  0.00    +0.000 A 
ENDROOT
BRANCH   3  13
ATOM     13  C   UNL     1       3.054   6.464  18.197  0.00  0.00    +0.000 A 
ATOM     14  C   UNL     1       4.312   6.673  17.616  0.00  0.00    +0.000 A 
ATOM     15  C   UNL     1       4.979   5.619  16.989  0.00  0.00    +0.000 A 
ATOM     16  C   UNL     1       4.392   4.354  16.938  0.00  0.00    +0.000 A 
ATOM     17  C   UNL     1       3.143   4.146  17.520  0.00  0.00    +0.000 A 
ATOM     18 CL   UNL     1       2.416   2.589  17.449  0.00  0.00    +0.000 Cl
ATOM     19  C   UNL     1       2.471   5.192  18.149  0.00  0.00    +0.000 A 
ENDBRANCH   3  13
BRANCH  10  20
ATOM     20  N   UNL     1      -0.657  12.135  22.375  0.00  0.00    +0.000 N 
ATOM     21  C   UNL     1      -2.090  12.253  22.702  0.00  0.00    +0.000 C 
ATOM     22  C   UNL     1      -2.272  13.414  23.708  0.00  0.00    +0.000 C 
ATOM     23  N   UNL     1      -1.751  14.706  23.217  0.00  0.00    +0.000 NA
ATOM     24  C   UNL     1      -0.348  14.548  22.778  0.00  0.00    +0.000 C 
ATOM     25  C   UNL     1      -0.123  13.379  21.786  0.00  0.00    +0.000 C 
ATOM     26  H   UNL     1      -1.784  15.383  23.978  0.00  0.00    +0.000 HD
ENDBRANCH  10  20
BRANCH   1  28
ATOM     27  C   UNL     1       2.473  12.044  17.967  0.00  0.00    +0.000 C 
ATOM     28  C   UNL     1       1.350  11.038  17.756  0.00  0.00    +0.000 C 
ENDBRANCH   1  28
TORSDOF 3
ENDMDL
MODEL 3
REMARK VINA RESULT:      -7.5      3.991      8.099
REMARK  Name = 
REMARK  4 active torsions:
REMARK  status: ('A' for Active; 'I' for Inactive)
REMARK    1  A    between atoms: C_1  and  C_2
REMARK    2  A    between atoms: C_2  and  N_3
REMARK    3  A    between atoms: C_5  and  C_6
REMARK    4  A    between atoms: C_19  and  N_20
REMARK                            x       y       z     vdW  Elec       q    Type
REMARK                         _______ _______ _______ _____ _____    ______ ____
ROOT
ATOM      1  N   UNL     1       0.930   9.296  21.023  0.00  0.00    +0.000 N 
ATOM      2  C   UNL     1       0.813  10.639  20.701  0.00  0.00    +0.000 A 
ATOM      3  C   UNL     1       1.183  11.223  19.551  0.00  0.00    +0.000 A 
ATOM      4  C   UNL     1       1.768  10.348  18.506  0.00  0.00    +0.000 A 
ATOM      5  O   UNL     1       2.087  10.784  17.404  0.00  0.00    +0.000 OA
ATOM      6  C   UNL     1       1.961   8.916  18.841  0.00  0.00    +0.000 A 
ATOM      7  C   UNL     1       2.597   8.096  17.903  0.00  0.00    +0.000 A 
ATOM      8  C   UNL     1       2.835   6.761  18.207  0.00  0.00    +0.000 A 
ATOM      9  F   UNL     1       3.469   6.018  17.286  0.00  0.00    +0.000 F 
ATOM     10  C   UNL     1       2.431   6.205  19.427  0.00  0.00    +0.000 A 
ATOM     11  C   UNL     1       1.757   7.053  20.334  0.00  0.00    +0.000 A 
ATOM     12  C   UNL     1       1.524   8.419  20.086  0.00  0.00    +0.000 A 
ENDROOT
BRANCH   3  13
ATOM     13  C   UNL     1       0.987  12.659  19.350  0.00  0.00    +0.000 A 
ATOM     14  C   UNL     1      -0.230  13.145  18.852  0.00  0.00    +0.000 A 
ATOM     15  C   UNL     1      -0.399  14.513  18.625  0.00  0.00    +0.000 A 
ATOM     16  C   UNL     1       0.646  15.398  18.892  0.00  0.00    +0.000 A 
ATOM     17  C   UNL     1       1.854  14.914  19.391  0.00  0.00    +0.000 A 
ATOM     18 CL   UNL     1       3.145  16.005  19.712  0.00  0.00    +0.000 Cl
ATOM     19  C   UNL     1       2.030  13.551  19.622  0.00  0.00    +0.000 A 
ENDBRANCH   3  13
BRANCH  10  20
ATOM     20  N   UNL     1       2.724   4.905  19.843  0.00  0.00    +0.000 N 
ATOM     21  C   UNL     1       2.178   4.418  21.123  0.00  0.00    +0.000 C 
ATOM     22  C   UNL     1       2.196   2.871  21.111  0.00  0.00    +0.000 C 
ATOM     23  N   UNL     1       3.539   2.300  20.877  0.00  0.00    +0.000 NA
ATOM     24  C   UNL     1       4.128   2.886  19.654  0.00  0.00    +0.000 C 
ATOM     25  C   UNL     1       4.107   4.435  19.621  0.00  0.00    +0.000 C 
ATOM     26  H   UNL     1       3.448   1.293  20.749  0.00  0.00    +0.000 HD
ENDBRANCH  10  20
BRANCH   1  28
ATOM     27  C   UNL     1      -0.313   9.902  23.061  0.00  0.00    +0.000 C 
ATOM     28  C   UNL     1       0.358   8.782  22.280  0.00  0.00    +0.000 C 
ENDBRANCH   1  28
TORSDOF 3
ENDMDL
MODEL 4
REMARK VINA RESULT:      -7.5      1.442      1.789
REMARK  Name = 
REMARK  4 active torsions:
REMARK  status: ('A' for Active; 'I' for Inactive)
REMARK    1  A    between atoms: C_1  and  C_2
REMARK    2  A    between atoms: C_2  and  N_3
REMARK    3  A    between atoms: C_5  and  C_6
REMARK    4  A    between atoms: C_19  and  N_20
REMARK                            x       y       z     vdW  Elec       q    Type
REMARK                         _______ _______ _______ _____ _____    ______ ____
ROOT
ATOM      1  N   UNL     1       0.613   9.777  18.723  0.00  0.00    +0.000 N 
ATOM      2  C   UNL     1       1.424   8.787  18.191  0.00  0.00    +0.000 A 
ATOM      3  C   UNL     1       1.997   7.775  18.860  0.00  0.00    +0.000 A 
ATOM      4  C   UNL     1       1.731   7.690  20.317  0.00  0.00    +0.000 A 
ATOM      5  O   UNL     1       2.169   6.770  21.000  0.00  0.00    +0.000 OA
ATOM      6  C   UNL     1       0.914   8.768  20.928  0.00  0.00    +0.000 A 
ATOM      7  C   UNL     1       0.731   8.756  22.314  0.00  0.00    +0.000 A 
ATOM      8  C   UNL     1       0.012   9.777  22.921  0.00  0.00    +0.000 A 
ATOM      9  F   UNL     1      -0.118   9.737  24.256  0.00  0.00    +0.000 F 
ATOM     10  C   UNL     1      -0.561  10.814  22.173  0.00  0.00    +0.000 A 
ATOM     11  C   UNL     1      -0.388  10.773  20.771  0.00  0.00    +0.000 A 
ATOM     12  C   UNL     1       0.361   9.779  20.115  0.00  0.00    +0.000 A 
ENDROOT
BRANCH   3  13
ATOM     13  C   UNL     1       2.825   6.794  18.157  0.00  0.00    +0.000 A 
ATOM     14  C   UNL     1       3.996   7.195  17.500  0.00  0.00    +0.000 A 
ATOM     15  C   UNL     1       4.762   6.263  16.798  0.00  0.00    +0.000 A 
ATOM     16  C   UNL     1       4.360   4.928  16.748  0.00  0.00    +0.000 A 
ATOM     17  C   UNL     1       3.198   4.528  17.406  0.00  0.00    +0.000 A 
ATOM     18 CL   UNL     1       2.699   2.883  17.337  0.00  0.00    +0.000 Cl
ATOM     19  C   UNL     1       2.429   5.452  18.110  0.00  0.00    +0.000 A 
ENDBRANCH   3  13
BRANCH  10  20
ATOM     20  N   UNL     1      -1.207  11.924  22.720  0.00  0.00    +0.000 N 
ATOM     21  C   UNL     1      -2.680  11.979  22.707  0.00  0.00    +0.000 C 
ATOM     22  C   UNL     1      -3.146  12.990  23.781  0.00  0.00    +0.000 C 
ATOM     23  N   UNL     1      -2.582  14.343  23.599  0.00  0.00    +0.000 NA
ATOM     24  C   UNL     1      -1.110  14.264  23.492  0.00  0.00    +0.000 C 
ATOM     25  C   UNL     1      -0.606  13.244  22.440  0.00  0.00    +0.000 C 
ATOM     26  H   UNL     1      -2.824  14.910  24.411  0.00  0.00    +0.000 HD
ENDBRANCH  10  20
BRANCH   1  28
ATOM     27  C   UNL     1      -1.418  10.242  17.409  0.00  0.00    +0.000 C 
ATOM     28  C   UNL     1      -0.048  10.751  17.836  0.00  0.00    +0.000 C 
ENDBRANCH   1  28
TORSDOF 3
ENDMDL
MODEL 5
REMARK VINA RESULT:      -7.4      3.606      8.236
REMARK  Name = 
REMARK  4 active torsions:
REMARK  status: ('A' for Active; 'I' for Inactive)
REMARK    1  A    between atoms: C_1  and  C_2
REMARK    2  A    between atoms: C_2  and  N_3
REMARK    3  A    between atoms: C_5  and  C_6
REMARK    4  A    between atoms: C_19  and  N_20
REMARK                            x       y       z     vdW  Elec       q    Type
REMARK                         _______ _______ _______ _____ _____    ______ ____
ROOT
ATOM      1  N   UNL     1       1.349  10.019  19.055  0.00  0.00    +0.000 N 
ATOM      2  C   UNL     1       0.457  10.870  19.688  0.00  0.00    +0.000 A 
ATOM      3  C   UNL     1      -0.235  10.615  20.809  0.00  0.00    +0.000 A 
ATOM      4  C   UNL     1      -0.021   9.296  21.451  0.00  0.00    +0.000 A 
ATOM      5  O   UNL     1      -0.570   8.996  22.507  0.00  0.00    +0.000 OA
ATOM      6  C   UNL     1       0.884   8.339  20.767  0.00  0.00    +0.000 A 
ATOM      7  C   UNL     1       1.024   7.057  21.308  0.00  0.00    +0.000 A 
ATOM      8  C   UNL     1       1.826   6.124  20.663  0.00  0.00    +0.000 A 
ATOM      9  F   UNL     1       1.912   4.900  21.206  0.00  0.00    +0.000 F 
ATOM     10  C   UNL     1       2.522   6.443  19.491  0.00  0.00    +0.000 A 
ATOM     11  C   UNL     1       2.387   7.759  18.994  0.00  0.00    +0.000 A 
ATOM     12  C   UNL     1       1.560   8.728  19.592  0.00  0.00    +0.000 A 
ENDROOT
BRANCH   3  13
ATOM     13  C   UNL     1      -1.138  11.622  21.369  0.00  0.00    +0.000 A 
ATOM     14  C   UNL     1      -0.891  12.170  22.635  0.00  0.00    +0.000 A 
ATOM     15  C   UNL     1      -1.776  13.101  23.182  0.00  0.00    +0.000 A 
ATOM     16  C   UNL     1      -2.911  13.485  22.468  0.00  0.00    +0.000 A 
ATOM     17  C   UNL     1      -3.154  12.942  21.207  0.00  0.00    +0.000 A 
ATOM     18 CL   UNL     1      -4.558  13.411  20.331  0.00  0.00    +0.000 Cl
ATOM     19  C   UNL     1      -2.275  12.015  20.654  0.00  0.00    +0.000 A 
ENDBRANCH   3  13
BRANCH  10  20
ATOM     20  N   UNL     1       3.263   5.532  18.734  0.00  0.00    +0.000 N 
ATOM     21  C   UNL     1       2.583   4.359  18.152  0.00  0.00    +0.000 C 
ATOM     22  C   UNL     1       3.444   3.820  16.985  0.00  0.00    +0.000 C 
ATOM     23  N   UNL     1       4.822   3.468  17.384  0.00  0.00    +0.000 NA
ATOM     24  C   UNL     1       5.453   4.611  18.075  0.00  0.00    +0.000 C 
ATOM     25  C   UNL     1       4.609   5.193  19.237  0.00  0.00    +0.000 C 
ATOM     26  H   UNL     1       5.360   3.251  16.546  0.00  0.00    +0.000 HD
ENDBRANCH  10  20
BRANCH   1  28
ATOM     27  C   UNL     1       2.418  11.981  18.018  0.00  0.00    +0.000 C 
ATOM     28  C   UNL     1       2.132  10.491  17.898  0.00  0.00    +0.000 C 
ENDBRANCH   1  28
TORSDOF 3
ENDMDL
MODEL 6
REMARK VINA RESULT:      -7.3      1.038      1.190
REMARK  Name = 
REMARK  4 active torsions:
REMARK  status: ('A' for Active; 'I' for Inactive)
REMARK    1  A    between atoms: C_1  and  C_2
REMARK    2  A    between atoms: C_2  and  N_3
REMARK    3  A    between atoms: C_5  and  C_6
REMARK    4  A    between atoms: C_19  and  N_20
REMARK                            x       y       z     vdW  Elec       q    Type
REMARK                         _______ _______ _______ _____ _____    ______ ____
ROOT
ATOM      1  N   UNL     1       0.721   9.607  18.660  0.00  0.00    +0.000 N 
ATOM      2  C   UNL     1       1.492   8.577  18.144  0.00  0.00    +0.000 A 
ATOM      3  C   UNL     1       2.029   7.556  18.829  0.00  0.00    +0.000 A 
ATOM      4  C   UNL     1       1.765   7.508  20.287  0.00  0.00    +0.000 A 
ATOM      5  O   UNL     1       2.170   6.583  20.986  0.00  0.00    +0.000 OA
ATOM      6  C   UNL     1       0.991   8.625  20.882  0.00  0.00    +0.000 A 
ATOM      7  C   UNL     1       0.813   8.645  22.269  0.00  0.00    +0.000 A 
ATOM      8  C   UNL     1       0.135   9.703  22.860  0.00  0.00    +0.000 A 
ATOM      9  F   UNL     1       0.008   9.691  24.195  0.00  0.00    +0.000 F 
ATOM     10  C   UNL     1      -0.401  10.747  22.095  0.00  0.00    +0.000 A 
ATOM     11  C   UNL     1      -0.236  10.676  20.693  0.00  0.00    +0.000 A 
ATOM     12  C   UNL     1       0.474   9.642  20.053  0.00  0.00    +0.000 A 
ENDROOT
BRANCH   3  13
ATOM     13  C   UNL     1       2.817   6.533  18.142  0.00  0.00    +0.000 A 
ATOM     14  C   UNL     1       2.309   5.237  17.979  0.00  0.00    +0.000 A 
ATOM     15  C   UNL     1       3.080   4.254  17.357  0.00  0.00    +0.000 A 
ATOM     16  C   UNL     1       4.361   4.560  16.897  0.00  0.00    +0.000 A 
ATOM     17  C   UNL     1       4.864   5.850  17.055  0.00  0.00    +0.000 A 
ATOM     18 CL   UNL     1       6.447   6.225  16.495  0.00  0.00    +0.000 Cl
ATOM     19  C   UNL     1       4.100   6.838  17.673  0.00  0.00    +0.000 A 
ENDBRANCH   3  13
BRANCH  10  20
ATOM     20  N   UNL     1      -1.004  11.891  22.624  0.00  0.00    +0.000 N 
ATOM     21  C   UNL     1      -2.470  11.926  22.778  0.00  0.00    +0.000 C 
ATOM     22  C   UNL     1      -2.830  13.016  23.816  0.00  0.00    +0.000 C 
ATOM     23  N   UNL     1      -2.320  14.356  23.463  0.00  0.00    +0.000 NA
ATOM     24  C   UNL     1      -0.868  14.286  23.191  0.00  0.00    +0.000 C 
ATOM     25  C   UNL     1      -0.467  13.190  22.172  0.00  0.00    +0.000 C 
ATOM     26  H   UNL     1      -2.478  14.985  24.250  0.00  0.00    +0.000 HD
ENDBRANCH  10  20
BRANCH   1  28
ATOM     27  C   UNL     1      -1.319  10.154  17.393  0.00  0.00    +0.000 C 
ATOM     28  C   UNL     1       0.093  10.589  17.758  0.00  0.00    +0.000 C 
ENDBRANCH   1  28
TORSDOF 3
ENDMDL
MODEL 7
REMARK VINA RESULT:      -7.2      3.583      8.279
REMARK  Name = 
REMARK  4 active torsions:
REMARK  status: ('A' for Active; 'I' for Inactive)
REMARK    1  A    between atoms: C_1  and  C_2
REMARK    2  A    between atoms: C_2  and  N_3
REMARK    3  A    between atoms: C_5  and  C_6
REMARK    4  A    between atoms: C_19  and  N_20
REMARK                            x       y       z     vdW  Elec       q    Type
REMARK                         _______ _______ _______ _____ _____    ______ ____
ROOT
ATOM      1  N   UNL     1       1.254  10.300  19.044  0.00  0.00    +0.000 N 
ATOM      2  C   UNL     1       0.381  11.134  19.725  0.00  0.00    +0.000 A 
ATOM      3  C   UNL     1      -0.279  10.849  20.858  0.00  0.00    +0.000 A 
ATOM      4  C   UNL     1      -0.048   9.513  21.458  0.00  0.00    +0.000 A 
ATOM      5  O   UNL     1      -0.567   9.185  22.521  0.00  0.00    +0.000 OA
ATOM      6  C   UNL     1       0.837   8.575  20.724  0.00  0.00    +0.000 A 
ATOM      7  C   UNL     1       0.992   7.279  21.226  0.00  0.00    +0.000 A 
ATOM      8  C   UNL     1       1.774   6.364  20.534  0.00  0.00    +0.000 A 
ATOM      9  F   UNL     1       1.876   5.125  21.042  0.00  0.00    +0.000 F 
ATOM     10  C   UNL     1       2.438   6.713  19.351  0.00  0.00    +0.000 A 
ATOM     11  C   UNL     1       2.289   8.042  18.894  0.00  0.00    +0.000 A 
ATOM     12  C   UNL     1       1.479   8.995  19.541  0.00  0.00    +0.000 A 
ENDROOT
BRANCH   3  13
ATOM     13  C   UNL     1      -1.166  11.840  21.470  0.00  0.00    +0.000 A 
ATOM     14  C   UNL     1      -0.861  12.384  22.725  0.00  0.00    +0.000 A 
ATOM     15  C   UNL     1      -1.729  13.300  23.321  0.00  0.00    +0.000 A 
ATOM     16  C   UNL     1      -2.905  13.673  22.669  0.00  0.00    +0.000 A 
ATOM     17  C   UNL     1      -3.205  13.134  21.419  0.00  0.00    +0.000 A 
ATOM     18 CL   UNL     1      -4.659  13.588  20.619  0.00  0.00    +0.000 Cl
ATOM     19  C   UNL     1      -2.343  12.221  20.816  0.00  0.00    +0.000 A 
ENDBRANCH   3  13
BRANCH  10  20
ATOM     20  N   UNL     1       3.156   5.823  18.550  0.00  0.00    +0.000 N 
ATOM     21  C   UNL     1       4.257   6.335  17.714  0.00  0.00    +0.000 C 
ATOM     22  C   UNL     1       5.189   5.155  17.350  0.00  0.00    +0.000 C 
ATOM     23  N   UNL     1       4.495   4.048  16.661  0.00  0.00    +0.000 NA
ATOM     24  C   UNL     1       3.320   3.623  17.450  0.00  0.00    +0.000 C 
ATOM     25  C   UNL     1       2.374   4.783  17.852  0.00  0.00    +0.000 C 
ATOM     26  H   UNL     1       5.137   3.261  16.576  0.00  0.00    +0.000 HD
ENDBRANCH  10  20
BRANCH   1  28
ATOM     27  C   UNL     1       2.445  12.241  18.106  0.00  0.00    +0.000 C 
ATOM     28  C   UNL     1       2.004  10.802  17.878  0.00  0.00    +0.000 C 
ENDBRANCH   1  28
TORSDOF 3
ENDMDL
MODEL 8
REMARK VINA RESULT:      -7.2      3.548      8.165
REMARK  Name = 
REMARK  4 active torsions:
REMARK  status: ('A' for Active; 'I' for Inactive)
REMARK    1  A    between atoms: C_1  and  C_2
REMARK    2  A    between atoms: C_2  and  N_3
REMARK    3  A    between atoms: C_5  and  C_6
REMARK    4  A    between atoms: C_19  and  N_20
REMARK                            x       y       z     vdW  Elec       q    Type
REMARK                         _______ _______ _______ _____ _____    ______ ____
ROOT
ATOM      1  N   UNL     1       1.330  10.163  18.984  0.00  0.00    +0.000 N 
ATOM      2  C   UNL     1       0.432  11.030  19.588  0.00  0.00    +0.000 A 
ATOM      3  C   UNL     1      -0.274  10.801  20.706  0.00  0.00    +0.000 A 
ATOM      4  C   UNL     1      -0.071   9.497  21.380  0.00  0.00    +0.000 A 
ATOM      5  O   UNL     1      -0.633   9.221  22.436  0.00  0.00    +0.000 OA
ATOM      6  C   UNL     1       0.840   8.523  20.729  0.00  0.00    +0.000 A 
ATOM      7  C   UNL     1       0.972   7.253  21.300  0.00  0.00    +0.000 A 
ATOM      8  C   UNL     1       1.779   6.304  20.686  0.00  0.00    +0.000 A 
ATOM      9  F   UNL     1       1.857   5.092  21.257  0.00  0.00    +0.000 F 
ATOM     10  C   UNL     1       2.491   6.595  19.515  0.00  0.00    +0.000 A 
ATOM     11  C   UNL     1       2.364   7.900  18.987  0.00  0.00    +0.000 A 
ATOM     12  C   UNL     1       1.531   8.884  19.553  0.00  0.00    +0.000 A 
ENDROOT
BRANCH   3  13
ATOM     13  C   UNL     1      -1.182  11.822  21.232  0.00  0.00    +0.000 A 
ATOM     14  C   UNL     1      -2.394  12.095  20.584  0.00  0.00    +0.000 A 
ATOM     15  C   UNL     1      -3.239  13.096  21.068  0.00  0.00    +0.000 A 
ATOM     16  C   UNL     1      -2.875  13.828  22.197  0.00  0.00    +0.000 A 
ATOM     17  C   UNL     1      -1.671  13.553  22.844  0.00  0.00    +0.000 A 
ATOM     18 CL   UNL     1      -1.220  14.462  24.233  0.00  0.00    +0.000 Cl
ATOM     19  C   UNL     1      -0.824  12.555  22.369  0.00  0.00    +0.000 A 
ENDBRANCH   3  13
BRANCH  10  20
ATOM     20  N   UNL     1       3.238   5.666  18.788  0.00  0.00    +0.000 N 
ATOM     21  C   UNL     1       2.555   4.507  18.184  0.00  0.00    +0.000 C 
ATOM     22  C   UNL     1       3.446   3.946  17.051  0.00  0.00    +0.000 C 
ATOM     23  N   UNL     1       4.801   3.565  17.501  0.00  0.00    +0.000 NA
ATOM     24  C   UNL     1       5.430   4.697  18.213  0.00  0.00    +0.000 C 
ATOM     25  C   UNL     1       4.557   5.300  19.342  0.00  0.00    +0.000 C 
ATOM     26  H   UNL     1       5.364   3.334  16.684  0.00  0.00    +0.000 HD
ENDBRANCH  10  20
BRANCH   1  28
ATOM     27  C   UNL     1       2.507  12.074  17.971  0.00  0.00    +0.000 C 
ATOM     28  C   UNL     1       2.128  10.607  17.827  0.00  0.00    +0.000 C 
ENDBRANCH   1  28
TORSDOF 3
ENDMDL
MODEL 9
REMARK VINA RESULT:      -7.2      3.511      8.282
REMARK  Name = 
REMARK  4 active torsions:
REMARK  status: ('A' for Active; 'I' for Inactive)
REMARK    1  A    between atoms: C_1  and  C_2
REMARK    2  A    between atoms: C_2  and  N_3
REMARK    3  A    between atoms: C_5  and  C_6
REMARK    4  A    between atoms: C_19  and  N_20
REMARK                            x       y       z     vdW  Elec       q    Type
REMARK                         _______ _______ _______ _____ _____    ______ ____
ROOT
ATOM      1  N   UNL     1       1.295  10.388  19.298  0.00  0.00    +0.000 N 
ATOM      2  C   UNL     1       0.559  11.256  20.089  0.00  0.00    +0.000 A 
ATOM      3  C   UNL     1       0.031  10.991  21.293  0.00  0.00    +0.000 A 
ATOM      4  C   UNL     1       0.263   9.636  21.850  0.00  0.00    +0.000 A 
ATOM      5  O   UNL     1      -0.137   9.320  22.967  0.00  0.00    +0.000 OA
ATOM      6  C   UNL     1       0.997   8.664  21.003  0.00  0.00    +0.000 A 
ATOM      7  C   UNL     1       1.143   7.354  21.472  0.00  0.00    +0.000 A 
ATOM      8  C   UNL     1       1.783   6.408  20.682  0.00  0.00    +0.000 A 
ATOM      9  F   UNL     1       1.880   5.160  21.162  0.00  0.00    +0.000 F 
ATOM     10  C   UNL     1       2.312   6.740  19.428  0.00  0.00    +0.000 A 
ATOM     11  C   UNL     1       2.180   8.081  19.002  0.00  0.00    +0.000 A 
ATOM     12  C   UNL     1       1.510   9.065  19.753  0.00  0.00    +0.000 A 
ENDROOT
BRANCH   3  13
ATOM     13  C   UNL     1      -0.717  12.018  22.019  0.00  0.00    +0.000 A 
ATOM     14  C   UNL     1      -0.247  13.337  22.066  0.00  0.00    +0.000 A 
ATOM     15  C   UNL     1      -0.945  14.305  22.791  0.00  0.00    +0.000 A 
ATOM     16  C   UNL     1      -2.110  13.959  23.474  0.00  0.00    +0.000 A 
ATOM     17  C   UNL     1      -2.580  12.647  23.424  0.00  0.00    +0.000 A 
ATOM     18 CL   UNL     1      -4.013  12.218  24.272  0.00  0.00    +0.000 Cl
ATOM     19  C   UNL     1      -1.891  11.676  22.700  0.00  0.00    +0.000 A 
ENDBRANCH   3  13
BRANCH  10  20
ATOM     20  N   UNL     1       2.876   5.825  18.536  0.00  0.00    +0.000 N 
ATOM     21  C   UNL     1       3.903   6.286  17.584  0.00  0.00    +0.000 C 
ATOM     22  C   UNL     1       4.711   5.060  17.098  0.00  0.00    +0.000 C 
ATOM     23  N   UNL     1       3.874   4.011  16.480  0.00  0.00    +0.000 NA
ATOM     24  C   UNL     1       2.774   3.641  17.395  0.00  0.00    +0.000 C 
ATOM     25  C   UNL     1       1.955   4.847  17.921  0.00  0.00    +0.000 C 
ATOM     26  H   UNL     1       4.452   3.189  16.310  0.00  0.00    +0.000 HD
ENDBRANCH  10  20
BRANCH   1  28
ATOM     27  C   UNL     1       2.370  12.313  18.201  0.00  0.00    +0.000 C 
ATOM     28  C   UNL     1       1.920  10.867  18.052  0.00  0.00    +0.000 C 
ENDBRANCH   1  28
TORSDOF 3
ENDMDL
