MODEL 1
REMARK VINA RESULT:      -5.9      0.000      0.000
REMARK  Name = 
REMARK  5 active torsions:
REMARK  status: ('A' for Active; 'I' for Inactive)
REMARK    1  A    between atoms: C_1  and  C_2
REMARK    2  A    between atoms: C_2  and  C_3
REMARK    3  A    between atoms: C_8  and  C_10
REMARK    4  A    between atoms: C_10  and  O_11
REMARK    5  A    between atoms: O_11  and  C_12
REMARK                            x       y       z     vdW  Elec       q    Type
REMARK                         _______ _______ _______ _____ _____    ______ ____
ROOT
ATOM      1  C   UNL     1       6.837   4.639  15.755  0.00  0.00    +0.000 A 
ATOM      2  N   UNL     1       7.778   4.710  16.675  0.00  0.00    +0.000 NA
ATOM      3  N   UNL     1       7.287   4.412  17.937  0.00  0.00    +0.000 NA
ATOM      4  C   UNL     1       6.018   4.074  17.904  0.00  0.00    +0.000 A 
ATOM      5  N   UNL     1       5.317   3.683  19.018  0.00  0.00    +0.000 N 
ATOM      6  C   UNL     1       4.087   3.062  19.017  0.00  0.00    +0.000 C 
ATOM      7  O   UNL     1       3.436   2.709  18.037  0.00  0.00    +0.000 OA
ATOM      8  S   UNL     1       5.292   4.225  16.372  0.00  0.00    +0.000 S 
ATOM      9  H   UNL     1       5.813   3.785  19.892  0.00  0.00    +0.000 HD
ENDROOT
BRANCH   1  11
ATOM     10  C   UNL     1       6.223   3.889  13.465  0.00  0.00    +0.000 C 
ATOM     11  C   UNL     1       7.037   4.871  14.295  0.00  0.00    +0.000 C 
ENDBRANCH   1  11
BRANCH   6  12
ATOM     12  C   UNL     1       3.600   2.733  20.426  0.00  0.00    +0.000 C 
BRANCH  12  13
ATOM     13  O   UNL     1       2.243   2.306  20.398  0.00  0.00    +0.000 OA
ATOM     14  C   UNL     1       1.498   2.887  21.462  0.00  0.00    +0.000 C 
ENDBRANCH  12  13
ENDBRANCH   6  12
TORSDOF 3
ENDMDL
MODEL 2
REMARK VINA RESULT:      -5.7      2.857      6.010
REMARK  Name = 
REMARK  5 active torsions:
REMARK  status: ('A' for Active; 'I' for Inactive)
REMARK    1  A    between atoms: C_1  and  C_2
REMARK    2  A    between atoms: C_2  and  C_3
REMARK    3  A    between atoms: C_8  and  C_10
REMARK    4  A    between atoms: C_10  and  O_11
REMARK    5  A    between atoms: O_11  and  C_12
REMARK                            x       y       z     vdW  Elec       q    Type
REMARK                         _______ _______ _______ _____ _____    ______ ____
ROOT
ATOM      1  C   UNL     1       1.611   3.480  19.219  0.00  0.00    +0.000 A 
ATOM      2  N   UNL     1       1.281   3.272  17.960  0.00  0.00    +0.000 NA
ATOM      3  N   UNL     1       2.320   3.583  17.097  0.00  0.00    +0.000 NA
ATOM      4  C   UNL     1       3.402   3.953  17.744  0.00  0.00    +0.000 A 
ATOM      5  N   UNL     1       4.583   4.262  17.113  0.00  0.00    +0.000 N 
ATOM      6  C   UNL     1       5.811   4.387  17.726  0.00  0.00    +0.000 C 
ATOM      7  O   UNL     1       6.071   4.199  18.911  0.00  0.00    +0.000 OA
ATOM      8  S   UNL     1       3.202   4.086  19.429  0.00  0.00    +0.000 S 
ATOM      9  H   UNL     1       4.532   4.298  16.106  0.00  0.00    +0.000 HD
ENDROOT
BRANCH   1  11
ATOM     10  C   UNL     1       1.543   2.702  21.581  0.00  0.00    +0.000 C 
ATOM     11  C   UNL     1       0.736   3.217  20.397  0.00  0.00    +0.000 C 
ENDBRANCH   1  11
BRANCH   6  12
ATOM     12  C   UNL     1       6.926   4.707  16.732  0.00  0.00    +0.000 C 
BRANCH  12  13
ATOM     13  O   UNL     1       7.757   5.747  17.233  0.00  0.00    +0.000 OA
ATOM     14  C   UNL     1       7.071   6.994  17.245  0.00  0.00    +0.000 C 
ENDBRANCH  12  13
ENDBRANCH   6  12
TORSDOF 3
ENDMDL
MODEL 3
REMARK VINA RESULT:      -5.7      3.930      5.170
REMARK  Name = 
REMARK  5 active torsions:
REMARK  status: ('A' for Active; 'I' for Inactive)
REMARK    1  A    between atoms: C_1  and  C_2
REMARK    2  A    between atoms: C_2  and  C_3
REMARK    3  A    between atoms: C_8  and  C_10
REMARK    4  A    between atoms: C_10  and  O_11
REMARK    5  A    between atoms: O_11  and  C_12
REMARK                            x       y       z     vdW  Elec       q    Type
REMARK                         _______ _______ _______ _____ _____    ______ ____
ROOT
ATOM      1  C   UNL     1       6.396   3.565  12.569  0.00  0.00    +0.000 A 
ATOM      2  N   UNL     1       7.357   4.363  12.151  0.00  0.00    +0.000 NA
ATOM      3  N   UNL     1       7.745   5.261  13.134  0.00  0.00    +0.000 NA
ATOM      4  C   UNL     1       7.103   5.063  14.263  0.00  0.00    +0.000 A 
ATOM      5  N   UNL     1       7.348   5.789  15.402  0.00  0.00    +0.000 N 
ATOM      6  C   UNL     1       6.922   5.461  16.670  0.00  0.00    +0.000 C 
ATOM      7  O   UNL     1       6.302   4.456  17.008  0.00  0.00    +0.000 OA
ATOM      8  S   UNL     1       5.890   3.871  14.179  0.00  0.00    +0.000 S 
ATOM      9  H   UNL     1       7.976   6.570  15.283  0.00  0.00    +0.000 HD
ENDROOT
BRANCH   1  11
ATOM     10  C   UNL     1       6.834   1.602  11.107  0.00  0.00    +0.000 C 
ATOM     11  C   UNL     1       5.775   2.468  11.772  0.00  0.00    +0.000 C 
ENDBRANCH   1  11
BRANCH   6  12
ATOM     12  C   UNL     1       7.392   6.466  17.720  0.00  0.00    +0.000 C 
BRANCH  12  13
ATOM     13  O   UNL     1       7.353   7.789  17.197  0.00  0.00    +0.000 OA
ATOM     14  C   UNL     1       8.176   8.667  17.956  0.00  0.00    +0.000 C 
ENDBRANCH  12  13
ENDBRANCH   6  12
TORSDOF 3
ENDMDL
MODEL 4
REMARK VINA RESULT:      -5.7      1.611      1.776
REMARK  Name = 
REMARK  5 active torsions:
REMARK  status: ('A' for Active; 'I' for Inactive)
REMARK    1  A    between atoms: C_1  and  C_2
REMARK    2  A    between atoms: C_2  and  C_3
REMARK    3  A    between atoms: C_8  and  C_10
REMARK    4  A    between atoms: C_10  and  O_11
REMARK    5  A    between atoms: O_11  and  C_12
REMARK                            x       y       z     vdW  Elec       q    Type
REMARK                         _______ _______ _______ _____ _____    ______ ____
ROOT
ATOM      1  C   UNL     1       6.469   4.725  16.894  0.00  0.00    +0.000 A 
ATOM      2  N   UNL     1       7.132   4.469  18.004  0.00  0.00    +0.000 NA
ATOM      3  N   UNL     1       6.322   4.573  19.124  0.00  0.00    +0.000 NA
ATOM      4  C   UNL     1       5.076   4.844  18.806  0.00  0.00    +0.000 A 
ATOM      5  N   UNL     1       4.070   4.945  19.735  0.00  0.00    +0.000 N 
ATOM      6  C   UNL     1       2.720   4.951  19.460  0.00  0.00    +0.000 C 
ATOM      7  O   UNL     1       2.186   4.821  18.362  0.00  0.00    +0.000 OA
ATOM      8  S   UNL     1       4.821   5.129  17.147  0.00  0.00    +0.000 S 
ATOM      9  H   UNL     1       4.374   4.912  20.698  0.00  0.00    +0.000 HD
ENDROOT
BRANCH   1  11
ATOM     10  C   UNL     1       6.129   3.890  14.576  0.00  0.00    +0.000 C 
ATOM     11  C   UNL     1       7.036   4.671  15.516  0.00  0.00    +0.000 C 
ENDBRANCH   1  11
BRANCH   6  12
ATOM     12  C   UNL     1       1.869   5.044  20.725  0.00  0.00    +0.000 C 
BRANCH  12  13
ATOM     13  O   UNL     1       2.208   4.002  21.632  0.00  0.00    +0.000 OA
ATOM     14  C   UNL     1       1.464   2.820  21.360  0.00  0.00    +0.000 C 
ENDBRANCH  12  13
ENDBRANCH   6  12
TORSDOF 3
ENDMDL
MODEL 5
REMARK VINA RESULT:      -5.7      2.424      5.738
REMARK  Name = 
REMARK  5 active torsions:
REMARK  status: ('A' for Active; 'I' for Inactive)
REMARK    1  A    between atoms: C_1  and  C_2
REMARK    2  A    between atoms: C_2  and  C_3
REMARK    3  A    between atoms: C_8  and  C_10
REMARK    4  A    between atoms: C_10  and  O_11
REMARK    5  A    between atoms: O_11  and  C_12
REMARK                            x       y       z     vdW  Elec       q    Type
REMARK                         _______ _______ _______ _____ _____    ______ ____
ROOT
ATOM      1  C   UNL     1       2.677   3.104  20.049  0.00  0.00    +0.000 A 
ATOM      2  N   UNL     1       3.599   2.346  20.608  0.00  0.00    +0.000 NA
ATOM      3  N   UNL     1       4.862   2.614  20.103  0.00  0.00    +0.000 NA
ATOM      4  C   UNL     1       4.844   3.599  19.233  0.00  0.00    +0.000 A 
ATOM      5  N   UNL     1       5.978   4.087  18.631  0.00  0.00    +0.000 N 
ATOM      6  C   UNL     1       6.070   5.273  17.935  0.00  0.00    +0.000 C 
ATOM      7  O   UNL     1       5.186   6.110  17.776  0.00  0.00    +0.000 OA
ATOM      8  S   UNL     1       3.287   4.178  18.860  0.00  0.00    +0.000 S 
ATOM      9  H   UNL     1       6.819   3.560  18.814  0.00  0.00    +0.000 HD
ENDROOT
BRANCH   1  11
ATOM     10  C   UNL     1       0.381   2.694  19.184  0.00  0.00    +0.000 C 
ATOM     11  C   UNL     1       1.224   3.089  20.387  0.00  0.00    +0.000 C 
ENDBRANCH   1  11
BRANCH   6  12
ATOM     12  C   UNL     1       7.483   5.536  17.419  0.00  0.00    +0.000 C 
BRANCH  12  13
ATOM     13  O   UNL     1       7.852   4.558  16.455  0.00  0.00    +0.000 OA
ATOM     14  C   UNL     1       7.050   4.662  15.283  0.00  0.00    +0.000 C 
ENDBRANCH  12  13
ENDBRANCH   6  12
TORSDOF 3
ENDMDL
MODEL 6
REMARK VINA RESULT:      -5.6      2.489      2.785
REMARK  Name = 
REMARK  5 active torsions:
REMARK  status: ('A' for Active; 'I' for Inactive)
REMARK    1  A    between atoms: C_1  and  C_2
REMARK    2  A    between atoms: C_2  and  C_3
REMARK    3  A    between atoms: C_8  and  C_10
REMARK    4  A    between atoms: C_10  and  O_11
REMARK    5  A    between atoms: O_11  and  C_12
REMARK                            x       y       z     vdW  Elec       q    Type
REMARK                         _______ _______ _______ _____ _____    ______ ____
ROOT
ATOM      1  C   UNL     1       7.201   6.667  18.101  0.00  0.00    +0.000 A 
ATOM      2  N   UNL     1       7.845   6.161  19.133  0.00  0.00    +0.000 NA
ATOM      3  N   UNL     1       7.134   5.132  19.730  0.00  0.00    +0.000 NA
ATOM      4  C   UNL     1       6.017   4.870  19.089  0.00  0.00    +0.000 A 
ATOM      5  N   UNL     1       5.163   3.858  19.453  0.00  0.00    +0.000 N 
ATOM      6  C   UNL     1       4.138   3.356  18.682  0.00  0.00    +0.000 C 
ATOM      7  O   UNL     1       3.842   3.684  17.536  0.00  0.00    +0.000 OA
ATOM      8  S   UNL     1       5.679   5.935  17.805  0.00  0.00    +0.000 S 
ATOM      9  H   UNL     1       5.393   3.398  20.322  0.00  0.00    +0.000 HD
ENDROOT
BRANCH   1  11
ATOM     10  C   UNL     1       8.203   8.943  18.043  0.00  0.00    +0.000 C 
ATOM     11  C   UNL     1       7.702   7.764  17.223  0.00  0.00    +0.000 C 
ENDBRANCH   1  11
BRANCH   6  12
ATOM     12  C   UNL     1       3.399   2.211  19.372  0.00  0.00    +0.000 C 
BRANCH  12  13
ATOM     13  O   UNL     1       2.162   2.665  19.907  0.00  0.00    +0.000 OA
ATOM     14  C   UNL     1       2.220   2.761  21.326  0.00  0.00    +0.000 C 
ENDBRANCH  12  13
ENDBRANCH   6  12
TORSDOF 3
ENDMDL
MODEL 7
REMARK VINA RESULT:      -5.6      1.311      1.706
REMARK  Name = 
REMARK  5 active torsions:
REMARK  status: ('A' for Active; 'I' for Inactive)
REMARK    1  A    between atoms: C_1  and  C_2
REMARK    2  A    between atoms: C_2  and  C_3
REMARK    3  A    between atoms: C_8  and  C_10
REMARK    4  A    between atoms: C_10  and  O_11
REMARK    5  A    between atoms: O_11  and  C_12
REMARK                            x       y       z     vdW  Elec       q    Type
REMARK                         _______ _______ _______ _____ _____    ______ ____
ROOT
ATOM      1  C   UNL     1       6.338   4.675  17.067  0.00  0.00    +0.000 A 
ATOM      2  N   UNL     1       6.731   4.465  18.307  0.00  0.00    +0.000 NA
ATOM      3  N   UNL     1       5.683   4.059  19.118  0.00  0.00    +0.000 NA
ATOM      4  C   UNL     1       4.563   3.923  18.444  0.00  0.00    +0.000 A 
ATOM      5  N   UNL     1       3.395   3.480  19.013  0.00  0.00    +0.000 N 
ATOM      6  C   UNL     1       2.277   3.057  18.326  0.00  0.00    +0.000 C 
ATOM      7  O   UNL     1       2.148   2.957  17.109  0.00  0.00    +0.000 OA
ATOM      8  S   UNL     1       4.663   4.409  16.815  0.00  0.00    +0.000 S 
ATOM      9  H   UNL     1       3.422   3.375  20.016  0.00  0.00    +0.000 HD
ENDROOT
BRANCH   1  11
ATOM     10  C   UNL     1       6.719   4.534  14.613  0.00  0.00    +0.000 C 
ATOM     11  C   UNL     1       7.220   5.089  15.938  0.00  0.00    +0.000 C 
ENDBRANCH   1  11
BRANCH   6  12
ATOM     12  C   UNL     1       1.160   2.599  19.261  0.00  0.00    +0.000 C 
BRANCH  12  13
ATOM     13  O   UNL     1       1.085   3.444  20.402  0.00  0.00    +0.000 OA
ATOM     14  C   UNL     1       1.355   2.721  21.598  0.00  0.00    +0.000 C 
ENDBRANCH  12  13
ENDBRANCH   6  12
TORSDOF 3
ENDMDL
MODEL 8
REMARK VINA RESULT:      -5.5      2.154      2.553
REMARK  Name = 
REMARK  5 active torsions:
REMARK  status: ('A' for Active; 'I' for Inactive)
REMARK    1  A    between atoms: C_1  and  C_2
REMARK    2  A    between atoms: C_2  and  C_3
REMARK    3  A    between atoms: C_8  and  C_10
REMARK    4  A    between atoms: C_10  and  O_11
REMARK    5  A    between atoms: O_11  and  C_12
REMARK                            x       y       z     vdW  Elec       q    Type
REMARK                         _______ _______ _______ _____ _____    ______ ____
ROOT
ATOM      1  C   UNL     1       6.735   4.441  13.705  0.00  0.00    +0.000 A 
ATOM      2  N   UNL     1       7.665   5.298  14.075  0.00  0.00    +0.000 NA
ATOM      3  N   UNL     1       7.455   5.760  15.366  0.00  0.00    +0.000 NA
ATOM      4  C   UNL     1       6.415   5.189  15.929  0.00  0.00    +0.000 A 
ATOM      5  N   UNL     1       6.032   5.439  17.224  0.00  0.00    +0.000 N 
ATOM      6  C   UNL     1       5.140   4.688  17.957  0.00  0.00    +0.000 C 
ATOM      7  O   UNL     1       4.577   3.654  17.607  0.00  0.00    +0.000 OA
ATOM      8  S   UNL     1       5.536   4.159  14.897  0.00  0.00    +0.000 S 
ATOM      9  H   UNL     1       6.537   6.184  17.681  0.00  0.00    +0.000 HD
ENDROOT
BRANCH   1  11
ATOM     10  C   UNL     1       5.266   3.294  12.058  0.00  0.00    +0.000 C 
ATOM     11  C   UNL     1       6.683   3.736  12.392  0.00  0.00    +0.000 C 
ENDBRANCH   1  11
BRANCH   6  12
ATOM     12  C   UNL     1       4.959   5.222  19.377  0.00  0.00    +0.000 C 
BRANCH  12  13
ATOM     13  O   UNL     1       3.620   5.028  19.816  0.00  0.00    +0.000 OA
ATOM     14  C   UNL     1       2.805   6.150  19.495  0.00  0.00    +0.000 C 
ENDBRANCH  12  13
ENDBRANCH   6  12
TORSDOF 3
ENDMDL
MODEL 9
REMARK VINA RESULT:      -5.5      2.598      3.135
REMARK  Name = 
REMARK  5 active torsions:
REMARK  status: ('A' for Active; 'I' for Inactive)
REMARK    1  A    between atoms: C_1  and  C_2
REMARK    2  A    between atoms: C_2  and  C_3
REMARK    3  A    between atoms: C_8  and  C_10
REMARK    4  A    between atoms: C_10  and  O_11
REMARK    5  A    between atoms: O_11  and  C_12
REMARK                            x       y       z     vdW  Elec       q    Type
REMARK                         _______ _______ _______ _____ _____    ______ ____
ROOT
ATOM      1  C   UNL     1       6.950   6.488  17.609  0.00  0.00    +0.000 A 
ATOM      2  N   UNL     1       6.324   6.766  16.483  0.00  0.00    +0.000 NA
ATOM      3  N   UNL     1       5.342   5.831  16.195  0.00  0.00    +0.000 NA
ATOM      4  C   UNL     1       5.232   4.926  17.142  0.00  0.00    +0.000 A 
ATOM      5  N   UNL     1       4.294   3.924  17.114  0.00  0.00    +0.000 N 
ATOM      6  C   UNL     1       3.942   3.123  18.179  0.00  0.00    +0.000 C 
ATOM      7  O   UNL     1       4.361   3.196  19.331  0.00  0.00    +0.000 OA
ATOM      8  S   UNL     1       6.395   5.059  18.378  0.00  0.00    +0.000 S 
ATOM      9  H   UNL     1       3.766   3.856  16.256  0.00  0.00    +0.000 HD
ENDROOT
BRANCH   1  11
ATOM     10  C   UNL     1       7.967   8.753  17.750  0.00  0.00    +0.000 C 
ATOM     11  C   UNL     1       8.036   7.307  18.220  0.00  0.00    +0.000 C 
ENDBRANCH   1  11
BRANCH   6  12
ATOM     12  C   UNL     1       2.843   2.126  17.820  0.00  0.00    +0.000 C 
BRANCH  12  13
ATOM     13  O   UNL     1       1.577   2.775  17.771  0.00  0.00    +0.000 OA
ATOM     14  C   UNL     1       0.827   2.530  18.956  0.00  0.00    +0.000 C 
ENDBRANCH  12  13
ENDBRANCH   6  12
TORSDOF 3
ENDMDL
