MODEL 1
REMARK VINA RESULT:      -6.8      0.000      0.000
REMARK  Name = 
REMARK  2 active torsions:
REMARK  status: ('A' for Active; 'I' for Inactive)
REMARK    1  A    between atoms: C_1  and  C_2
REMARK    2  A    between atoms: C_17  and  C_18
REMARK                            x       y       z     vdW  Elec       q    Type
REMARK                         _______ _______ _______ _____ _____    ______ ____
ROOT
ATOM      1  C   UNL     1       3.748   1.243  18.500  0.00  0.00    +0.000 C 
ATOM      2  C   UNL     1       2.946   2.410  19.018  0.00  0.00    +0.000 C 
ATOM      3  O   UNL     1       1.956   2.158  19.713  0.00  0.00    +0.000 OA
ATOM      4  N   UNL     1       3.354   3.694  18.634  0.00  0.00    +0.000 N 
ATOM      5  C   UNL     1       2.721   4.876  19.171  0.00  0.00    +0.000 A 
ATOM      6  C   UNL     1       2.123   4.860  20.437  0.00  0.00    +0.000 A 
ATOM      7  C   UNL     1       1.644   6.021  21.038  0.00  0.00    +0.000 A 
ATOM      8  C   UNL     1       1.748   7.228  20.367  0.00  0.00    +0.000 A 
ATOM      9 BR   UNL     1       1.148   8.815  21.201  0.00  0.00    +0.000 Br
ATOM     10  C   UNL     1       2.313   7.278  19.097  0.00  0.00    +0.000 A 
ATOM     11  C   UNL     1       2.822   6.110  18.486  0.00  0.00    +0.000 A 
ATOM     12  C   UNL     1       3.401   6.215  17.097  0.00  0.00    +0.000 C 
ATOM     13  C   UNL     1       4.608   7.100  16.934  0.00  0.00    +0.000 C 
ATOM     14  C   UNL     1       5.468   6.594  16.037  0.00  0.00    +0.000 C 
ATOM     15  C   UNL     1       4.966   5.297  15.486  0.00  0.00    +0.000 C 
ATOM     16  C   UNL     1       3.917   4.882  16.531  0.00  0.00    +0.000 C 
ATOM     17  C   UNL     1       4.446   3.941  17.653  0.00  0.00    +0.000 C 
ENDROOT
BRANCH  17  18
ATOM     18  C   UNL     1       5.790   4.340  18.295  0.00  0.00    +0.000 A 
ATOM     19  C   UNL     1       5.883   5.081  19.484  0.00  0.00    +0.000 A 
ATOM     20  C   UNL     1       7.067   5.724  19.847  0.00  0.00    +0.000 A 
ATOM     21  C   UNL     1       8.206   5.584  19.063  0.00  0.00    +0.000 A 
ATOM     22  C   UNL     1       8.175   4.746  17.953  0.00  0.00    +0.000 A 
ATOM     23  C   UNL     1       6.982   4.116  17.581  0.00  0.00    +0.000 A 
ENDBRANCH  17  18
TORSDOF 1
ENDMDL
MODEL 2
REMARK VINA RESULT:      -6.3      9.643     11.286
REMARK  Name = 
REMARK  2 active torsions:
REMARK  status: ('A' for Active; 'I' for Inactive)
REMARK    1  A    between atoms: C_1  and  C_2
REMARK    2  A    between atoms: C_17  and  C_18
REMARK                            x       y       z     vdW  Elec       q    Type
REMARK                         _______ _______ _______ _____ _____    ______ ____
ROOT
ATOM      1  C   UNL     1       6.088  14.967  17.746  0.00  0.00    +0.000 C 
ATOM      2  C   UNL     1       6.866  15.648  18.844  0.00  0.00    +0.000 C 
ATOM      3  O   UNL     1       6.315  16.579  19.441  0.00  0.00    +0.000 OA
ATOM      4  N   UNL     1       8.175  15.206  19.075  0.00  0.00    +0.000 N 
ATOM      5  C   UNL     1       8.956  15.717  20.178  0.00  0.00    +0.000 A 
ATOM      6  C   UNL     1       8.337  16.190  21.341  0.00  0.00    +0.000 A 
ATOM      7  C   UNL     1       9.069  16.543  22.472  0.00  0.00    +0.000 A 
ATOM      8  C   UNL     1      10.449  16.435  22.451  0.00  0.00    +0.000 A 
ATOM      9 BR   UNL     1      11.443  16.860  24.002  0.00  0.00    +0.000 Br
ATOM     10  C   UNL     1      11.100  15.993  21.304  0.00  0.00    +0.000 A 
ATOM     11  C   UNL     1      10.367  15.613  20.158  0.00  0.00    +0.000 A 
ATOM     12  C   UNL     1      11.124  15.165  18.932  0.00  0.00    +0.000 C 
ATOM     13  C   UNL     1      11.974  13.930  19.077  0.00  0.00    +0.000 C 
ATOM     14  C   UNL     1      11.958  13.191  17.958  0.00  0.00    +0.000 C 
ATOM     15  C   UNL     1      11.087  13.817  16.915  0.00  0.00    +0.000 C 
ATOM     16  C   UNL     1      10.225  14.782  17.746  0.00  0.00    +0.000 C 
ATOM     17  C   UNL     1       8.858  14.202  18.216  0.00  0.00    +0.000 C 
ENDROOT
BRANCH  17  18
ATOM     18  C   UNL     1       8.895  12.782  18.816  0.00  0.00    +0.000 A 
ATOM     19  C   UNL     1       9.174  12.526  20.169  0.00  0.00    +0.000 A 
ATOM     20  C   UNL     1       9.549  11.255  20.603  0.00  0.00    +0.000 A 
ATOM     21  C   UNL     1       9.586  10.193  19.707  0.00  0.00    +0.000 A 
ATOM     22  C   UNL     1       9.185  10.394  18.391  0.00  0.00    +0.000 A 
ATOM     23  C   UNL     1       8.826  11.672  17.953  0.00  0.00    +0.000 A 
ENDBRANCH  17  18
TORSDOF 1
ENDMDL
MODEL 3
REMARK VINA RESULT:      -6.3      6.671      9.122
REMARK  Name = 
REMARK  2 active torsions:
REMARK  status: ('A' for Active; 'I' for Inactive)
REMARK    1  A    between atoms: C_1  and  C_2
REMARK    2  A    between atoms: C_17  and  C_18
REMARK                            x       y       z     vdW  Elec       q    Type
REMARK                         _______ _______ _______ _____ _____    ______ ____
ROOT
ATOM      1  C   UNL     1      -2.856  10.779  16.412  0.00  0.00    +0.000 C 
ATOM      2  C   UNL     1      -3.319  11.547  17.624  0.00  0.00    +0.000 C 
ATOM      3  O   UNL     1      -4.519  11.835  17.693  0.00  0.00    +0.000 OA
ATOM      4  N   UNL     1      -2.347  11.920  18.562  0.00  0.00    +0.000 N 
ATOM      5  C   UNL     1      -2.709  12.555  19.808  0.00  0.00    +0.000 A 
ATOM      6  C   UNL     1      -3.961  12.330  20.394  0.00  0.00    +0.000 A 
ATOM      7  C   UNL     1      -4.274  12.806  21.665  0.00  0.00    +0.000 A 
ATOM      8  C   UNL     1      -3.331  13.533  22.370  0.00  0.00    +0.000 A 
ATOM      9 BR   UNL     1      -3.731  14.136  24.117  0.00  0.00    +0.000 Br
ATOM     10  C   UNL     1      -2.086  13.800  21.809  0.00  0.00    +0.000 A 
ATOM     11  C   UNL     1      -1.749  13.304  20.529  0.00  0.00    +0.000 A 
ATOM     12  C   UNL     1      -0.396  13.642  19.956  0.00  0.00    +0.000 C 
ATOM     13  C   UNL     1       0.804  13.141  20.716  0.00  0.00    +0.000 C 
ATOM     14  C   UNL     1       1.792  12.778  19.885  0.00  0.00    +0.000 C 
ATOM     15  C   UNL     1       1.389  12.970  18.457  0.00  0.00    +0.000 C 
ATOM     16  C   UNL     1      -0.143  13.056  18.559  0.00  0.00    +0.000 C 
ATOM     17  C   UNL     1      -0.890  11.705  18.352  0.00  0.00    +0.000 C 
ENDROOT
BRANCH  17  18
ATOM     18  C   UNL     1      -0.317  10.490  19.110  0.00  0.00    +0.000 A 
ATOM     19  C   UNL     1      -0.660  10.182  20.437  0.00  0.00    +0.000 A 
ATOM     20  C   UNL     1       0.119   9.314  21.203  0.00  0.00    +0.000 A 
ATOM     21  C   UNL     1       1.220   8.682  20.639  0.00  0.00    +0.000 A 
ATOM     22  C   UNL     1       1.500   8.868  19.289  0.00  0.00    +0.000 A 
ATOM     23  C   UNL     1       0.729   9.751  18.527  0.00  0.00    +0.000 A 
ENDBRANCH  17  18
TORSDOF 1
ENDMDL
MODEL 4
REMARK VINA RESULT:      -6.3      9.792     11.466
REMARK  Name = 
REMARK  2 active torsions:
REMARK  status: ('A' for Active; 'I' for Inactive)
REMARK    1  A    between atoms: C_1  and  C_2
REMARK    2  A    between atoms: C_17  and  C_18
REMARK                            x       y       z     vdW  Elec       q    Type
REMARK                         _______ _______ _______ _____ _____    ______ ____
ROOT
ATOM      1  C   UNL     1       6.228  14.740  18.064  0.00  0.00    +0.000 C 
ATOM      2  C   UNL     1       6.923  15.406  19.225  0.00  0.00    +0.000 C 
ATOM      3  O   UNL     1       6.247  16.147  19.946  0.00  0.00    +0.000 OA
ATOM      4  N   UNL     1       8.297  15.173  19.373  0.00  0.00    +0.000 N 
ATOM      5  C   UNL     1       9.024  15.672  20.517  0.00  0.00    +0.000 A 
ATOM      6  C   UNL     1       8.381  15.885  21.743  0.00  0.00    +0.000 A 
ATOM      7  C   UNL     1       9.088  16.218  22.895  0.00  0.00    +0.000 A 
ATOM      8  C   UNL     1      10.464  16.354  22.835  0.00  0.00    +0.000 A 
ATOM      9 BR   UNL     1      11.434  16.752  24.409  0.00  0.00    +0.000 Br
ATOM     10  C   UNL     1      11.134  16.176  21.628  0.00  0.00    +0.000 A 
ATOM     11  C   UNL     1      10.430  15.818  20.457  0.00  0.00    +0.000 A 
ATOM     12  C   UNL     1      11.202  15.662  19.170  0.00  0.00    +0.000 C 
ATOM     13  C   UNL     1      12.254  14.585  19.140  0.00  0.00    +0.000 C 
ATOM     14  C   UNL     1      12.318  13.998  17.936  0.00  0.00    +0.000 C 
ATOM     15  C   UNL     1      11.312  14.585  16.999  0.00  0.00    +0.000 C 
ATOM     16  C   UNL     1      10.333  15.278  17.962  0.00  0.00    +0.000 C 
ATOM     17  C   UNL     1       9.105  14.416  18.380  0.00  0.00    +0.000 C 
ENDROOT
BRANCH  17  18
ATOM     18  C   UNL     1       9.407  12.961  18.793  0.00  0.00    +0.000 A 
ATOM     19  C   UNL     1       9.431  11.893  17.880  0.00  0.00    +0.000 A 
ATOM     20  C   UNL     1       9.352  10.569  18.313  0.00  0.00    +0.000 A 
ATOM     21  C   UNL     1       9.315  10.279  19.671  0.00  0.00    +0.000 A 
ATOM     22  C   UNL     1       9.425  11.313  20.596  0.00  0.00    +0.000 A 
ATOM     23  C   UNL     1       9.487  12.640  20.161  0.00  0.00    +0.000 A 
ENDBRANCH  17  18
TORSDOF 1
ENDMDL
MODEL 5
REMARK VINA RESULT:      -6.2      6.871      9.275
REMARK  Name = 
REMARK  2 active torsions:
REMARK  status: ('A' for Active; 'I' for Inactive)
REMARK    1  A    between atoms: C_1  and  C_2
REMARK    2  A    between atoms: C_17  and  C_18
REMARK                            x       y       z     vdW  Elec       q    Type
REMARK                         _______ _______ _______ _____ _____    ______ ____
ROOT
ATOM      1  C   UNL     1      -2.326   9.989  17.146  0.00  0.00    +0.000 C 
ATOM      2  C   UNL     1      -2.898  11.125  17.956  0.00  0.00    +0.000 C 
ATOM      3  O   UNL     1      -4.061  11.468  17.717  0.00  0.00    +0.000 OA
ATOM      4  N   UNL     1      -2.054  11.742  18.889  0.00  0.00    +0.000 N 
ATOM      5  C   UNL     1      -2.545  12.759  19.790  0.00  0.00    +0.000 A 
ATOM      6  C   UNL     1      -3.889  12.784  20.184  0.00  0.00    +0.000 A 
ATOM      7  C   UNL     1      -4.350  13.657  21.166  0.00  0.00    +0.000 A 
ATOM      8  C   UNL     1      -3.464  14.535  21.767  0.00  0.00    +0.000 A 
ATOM      9 BR   UNL     1      -4.075  15.685  23.139  0.00  0.00    +0.000 Br
ATOM     10  C   UNL     1      -2.127  14.556  21.382  0.00  0.00    +0.000 A 
ATOM     11  C   UNL     1      -1.643  13.661  20.402  0.00  0.00    +0.000 A 
ATOM     12  C   UNL     1      -0.191  13.743  20.003  0.00  0.00    +0.000 C 
ATOM     13  C   UNL     1       0.822  13.467  21.083  0.00  0.00    +0.000 C 
ATOM     14  C   UNL     1       1.889  12.816  20.597  0.00  0.00    +0.000 C 
ATOM     15  C   UNL     1       1.735  12.552  19.133  0.00  0.00    +0.000 C 
ATOM     16  C   UNL     1       0.221  12.727  18.927  0.00  0.00    +0.000 C 
ATOM     17  C   UNL     1      -0.609  11.412  19.020  0.00  0.00    +0.000 C 
ENDROOT
BRANCH  17  18
ATOM     18  C   UNL     1      -0.280  10.486  20.208  0.00  0.00    +0.000 A 
ATOM     19  C   UNL     1      -0.794  10.681  21.500  0.00  0.00    +0.000 A 
ATOM     20  C   UNL     1      -0.217  10.064  22.610  0.00  0.00    +0.000 A 
ATOM     21  C   UNL     1       0.845   9.183  22.446  0.00  0.00    +0.000 A 
ATOM     22  C   UNL     1       1.284   8.871  21.164  0.00  0.00    +0.000 A 
ATOM     23  C   UNL     1       0.716   9.503  20.053  0.00  0.00    +0.000 A 
ENDBRANCH  17  18
TORSDOF 1
ENDMDL
MODEL 6
REMARK VINA RESULT:      -6.2      7.297      9.777
REMARK  Name = 
REMARK  2 active torsions:
REMARK  status: ('A' for Active; 'I' for Inactive)
REMARK    1  A    between atoms: C_1  and  C_2
REMARK    2  A    between atoms: C_17  and  C_18
REMARK                            x       y       z     vdW  Elec       q    Type
REMARK                         _______ _______ _______ _____ _____    ______ ____
ROOT
ATOM      1  C   UNL     1      -3.266  13.265  22.063  0.00  0.00    +0.000 C 
ATOM      2  C   UNL     1      -3.630  12.580  20.770  0.00  0.00    +0.000 C 
ATOM      3  O   UNL     1      -4.827  12.525  20.470  0.00  0.00    +0.000 OA
ATOM      4  N   UNL     1      -2.587  12.012  20.026  0.00  0.00    +0.000 N 
ATOM      5  C   UNL     1      -2.822  11.437  18.722  0.00  0.00    +0.000 A 
ATOM      6  C   UNL     1      -3.873  11.887  17.914  0.00  0.00    +0.000 A 
ATOM      7  C   UNL     1      -4.025  11.458  16.598  0.00  0.00    +0.000 A 
ATOM      8  C   UNL     1      -3.122  10.552  16.069  0.00  0.00    +0.000 A 
ATOM      9 BR   UNL     1      -3.293  10.008  14.266  0.00  0.00    +0.000 Br
ATOM     10  C   UNL     1      -2.080  10.062  16.850  0.00  0.00    +0.000 A 
ATOM     11  C   UNL     1      -1.903  10.506  18.180  0.00  0.00    +0.000 A 
ATOM     12  C   UNL     1      -0.773   9.925  18.992  0.00  0.00    +0.000 C 
ATOM     13  C   UNL     1       0.622  10.174  18.482  0.00  0.00    +0.000 C 
ATOM     14  C   UNL     1       1.486  10.356  19.491  0.00  0.00    +0.000 C 
ATOM     15  C   UNL     1       0.792  10.269  20.814  0.00  0.00    +0.000 C 
ATOM     16  C   UNL     1      -0.681  10.476  20.423  0.00  0.00    +0.000 C 
ATOM     17  C   UNL     1      -1.182  11.948  20.512  0.00  0.00    +0.000 C 
ENDROOT
BRANCH  17  18
ATOM     18  C   UNL     1      -0.255  13.018  19.900  0.00  0.00    +0.000 A 
ATOM     19  C   UNL     1       0.866  13.536  20.568  0.00  0.00    +0.000 A 
ATOM     20  C   UNL     1       1.467  14.727  20.160  0.00  0.00    +0.000 A 
ATOM     21  C   UNL     1       1.002  15.392  19.033  0.00  0.00    +0.000 A 
ATOM     22  C   UNL     1      -0.022  14.829  18.277  0.00  0.00    +0.000 A 
ATOM     23  C   UNL     1      -0.634  13.644  18.697  0.00  0.00    +0.000 A 
ENDBRANCH  17  18
TORSDOF 1
ENDMDL
MODEL 7
REMARK VINA RESULT:      -6.2      6.621      9.124
REMARK  Name = 
REMARK  2 active torsions:
REMARK  status: ('A' for Active; 'I' for Inactive)
REMARK    1  A    between atoms: C_1  and  C_2
REMARK    2  A    between atoms: C_17  and  C_18
REMARK                            x       y       z     vdW  Elec       q    Type
REMARK                         _______ _______ _______ _____ _____    ______ ____
ROOT
ATOM      1  C   UNL     1      -2.378  10.186  16.924  0.00  0.00    +0.000 C 
ATOM      2  C   UNL     1      -2.897  11.187  17.925  0.00  0.00    +0.000 C 
ATOM      3  O   UNL     1      -4.109  11.434  17.911  0.00  0.00    +0.000 OA
ATOM      4  N   UNL     1      -1.962  11.801  18.768  0.00  0.00    +0.000 N 
ATOM      5  C   UNL     1      -2.376  12.684  19.834  0.00  0.00    +0.000 A 
ATOM      6  C   UNL     1      -3.631  12.545  20.439  0.00  0.00    +0.000 A 
ATOM      7  C   UNL     1      -3.990  13.281  21.564  0.00  0.00    +0.000 A 
ATOM      8  C   UNL     1      -3.091  14.187  22.101  0.00  0.00    +0.000 A 
ATOM      9 BR   UNL     1      -3.553  15.149  23.662  0.00  0.00    +0.000 Br
ATOM     10  C   UNL     1      -1.844  14.371  21.511  0.00  0.00    +0.000 A 
ATOM     11  C   UNL     1      -1.461  13.615  20.381  0.00  0.00    +0.000 A 
ATOM     12  C   UNL     1      -0.108  13.871  19.765  0.00  0.00    +0.000 C 
ATOM     13  C   UNL     1       1.092  13.604  20.635  0.00  0.00    +0.000 C 
ATOM     14  C   UNL     1       2.111  13.105  19.921  0.00  0.00    +0.000 C 
ATOM     15  C   UNL     1       1.735  12.954  18.482  0.00  0.00    +0.000 C 
ATOM     16  C   UNL     1       0.199  12.997  18.540  0.00  0.00    +0.000 C 
ATOM     17  C   UNL     1      -0.493  11.604  18.632  0.00  0.00    +0.000 C 
ENDROOT
BRANCH  17  18
ATOM     18  C   UNL     1       0.107  10.616  19.652  0.00  0.00    +0.000 A 
ATOM     19  C   UNL     1       1.115   9.693  19.327  0.00  0.00    +0.000 A 
ATOM     20  C   UNL     1       1.383   8.595  20.144  0.00  0.00    +0.000 A 
ATOM     21  C   UNL     1       0.697   8.431  21.341  0.00  0.00    +0.000 A 
ATOM     22  C   UNL     1      -0.211   9.403  21.749  0.00  0.00    +0.000 A 
ATOM     23  C   UNL     1      -0.491  10.495  20.921  0.00  0.00    +0.000 A 
ENDBRANCH  17  18
TORSDOF 1
ENDMDL
MODEL 8
REMARK VINA RESULT:      -6.1      7.319      9.635
REMARK  Name = 
REMARK  2 active torsions:
REMARK  status: ('A' for Active; 'I' for Inactive)
REMARK    1  A    between atoms: C_1  and  C_2
REMARK    2  A    between atoms: C_17  and  C_18
REMARK                            x       y       z     vdW  Elec       q    Type
REMARK                         _______ _______ _______ _____ _____    ______ ____
ROOT
ATOM      1  C   UNL     1      -2.330  10.007  17.785  0.00  0.00    +0.000 C 
ATOM      2  C   UNL     1      -2.869  11.242  18.461  0.00  0.00    +0.000 C 
ATOM      3  O   UNL     1      -4.043  11.553  18.230  0.00  0.00    +0.000 OA
ATOM      4  N   UNL     1      -1.986  11.975  19.265  0.00  0.00    +0.000 N 
ATOM      5  C   UNL     1      -2.440  13.104  20.043  0.00  0.00    +0.000 A 
ATOM      6  C   UNL     1      -3.765  13.186  20.490  0.00  0.00    +0.000 A 
ATOM      7  C   UNL     1      -4.185  14.183  21.366  0.00  0.00    +0.000 A 
ATOM      8  C   UNL     1      -3.277  15.131  21.805  0.00  0.00    +0.000 A 
ATOM      9 BR   UNL     1      -3.829  16.454  23.038  0.00  0.00    +0.000 Br
ATOM     10  C   UNL     1      -1.958  15.097  21.362  0.00  0.00    +0.000 A 
ATOM     11  C   UNL     1      -1.515  14.078  20.489  0.00  0.00    +0.000 A 
ATOM     12  C   UNL     1      -0.082  14.102  20.019  0.00  0.00    +0.000 C 
ATOM     13  C   UNL     1       0.979  13.970  21.079  0.00  0.00    +0.000 C 
ATOM     14  C   UNL     1       2.025  13.257  20.636  0.00  0.00    +0.000 C 
ATOM     15  C   UNL     1       1.807  12.801  19.229  0.00  0.00    +0.000 C 
ATOM     16  C   UNL     1       0.285  12.951  19.069  0.00  0.00    +0.000 C 
ATOM     17  C   UNL     1      -0.536  11.663  19.374  0.00  0.00    +0.000 C 
ENDROOT
BRANCH  17  18
ATOM     18  C   UNL     1      -0.151  10.901  20.658  0.00  0.00    +0.000 A 
ATOM     19  C   UNL     1       0.727   9.805  20.667  0.00  0.00    +0.000 A 
ATOM     20  C   UNL     1       0.780   8.929  21.752  0.00  0.00    +0.000 A 
ATOM     21  C   UNL     1       0.007   9.168  22.881  0.00  0.00    +0.000 A 
ATOM     22  C   UNL     1      -0.769  10.321  22.949  0.00  0.00    +0.000 A 
ATOM     23  C   UNL     1      -0.834  11.188  21.855  0.00  0.00    +0.000 A 
ENDBRANCH  17  18
TORSDOF 1
ENDMDL
MODEL 9
REMARK VINA RESULT:      -6.1      7.037      9.582
REMARK  Name = 
REMARK  2 active torsions:
REMARK  status: ('A' for Active; 'I' for Inactive)
REMARK    1  A    between atoms: C_1  and  C_2
REMARK    2  A    between atoms: C_17  and  C_18
REMARK                            x       y       z     vdW  Elec       q    Type
REMARK                         _______ _______ _______ _____ _____    ______ ____
ROOT
ATOM      1  C   UNL     1       2.305  13.086  18.167  0.00  0.00    +0.000 C 
ATOM      2  C   UNL     1       1.588  13.624  19.380  0.00  0.00    +0.000 C 
ATOM      3  O   UNL     1       1.767  14.813  19.668  0.00  0.00    +0.000 OA
ATOM      4  N   UNL     1       0.809  12.725  20.120  0.00  0.00    +0.000 N 
ATOM      5  C   UNL     1      -0.005  13.171  21.227  0.00  0.00    +0.000 A 
ATOM      6  C   UNL     1      -0.506  14.477  21.272  0.00  0.00    +0.000 A 
ATOM      7  C   UNL     1      -1.414  14.883  22.246  0.00  0.00    +0.000 A 
ATOM      8  C   UNL     1      -1.831  13.978  23.207  0.00  0.00    +0.000 A 
ATOM      9 BR   UNL     1      -3.106  14.507  24.500  0.00  0.00    +0.000 Br
ATOM     10  C   UNL     1      -1.335  12.678  23.209  0.00  0.00    +0.000 A 
ATOM     11  C   UNL     1      -0.429  12.249  22.214  0.00  0.00    +0.000 A 
ATOM     12  C   UNL     1       0.099  10.837  22.276  0.00  0.00    +0.000 C 
ATOM     13  C   UNL     1      -0.916   9.732  22.151  0.00  0.00    +0.000 C 
ATOM     14  C   UNL     1      -0.420   8.689  21.468  0.00  0.00    +0.000 C 
ATOM     15  C   UNL     1       0.985   8.954  21.029  0.00  0.00    +0.000 C 
ATOM     16  C   UNL     1       1.081  10.485  21.148  0.00  0.00    +0.000 C 
ATOM     17  C   UNL     1       0.764  11.265  19.837  0.00  0.00    +0.000 C 
ENDROOT
BRANCH  17  18
ATOM     18  C   UNL     1      -0.492  10.812  19.066  0.00  0.00    +0.000 A 
ATOM     19  C   UNL     1      -0.452   9.883  18.012  0.00  0.00    +0.000 A 
ATOM     20  C   UNL     1      -1.513   9.761  17.115  0.00  0.00    +0.000 A 
ATOM     21  C   UNL     1      -2.667  10.515  17.290  0.00  0.00    +0.000 A 
ATOM     22  C   UNL     1      -2.782  11.343  18.402  0.00  0.00    +0.000 A 
ATOM     23  C   UNL     1      -1.711  11.477  19.291  0.00  0.00    +0.000 A 
ENDBRANCH  17  18
TORSDOF 1
ENDMDL
