MODEL 1
REMARK VINA RESULT:      -7.1      0.000      0.000
REMARK  Name = 
REMARK  7 active torsions:
REMARK  status: ('A' for Active; 'I' for Inactive)
REMARK    1  A    between atoms: C_1  and  O_2
REMARK    2  A    between atoms: O_2  and  C_3
REMARK    3  A    between atoms: C_6  and  S_7
REMARK    4  A    between atoms: S_7  and  C_8
REMARK    5  A    between atoms: C_8  and  C_9
REMARK    6  A    between atoms: C_11  and  C_12
REMARK    7  A    between atoms: N_14  and  O_15
REMARK                            x       y       z     vdW  Elec       q    Type
REMARK                         _______ _______ _______ _____ _____    ______ ____
ROOT
ATOM      1  C   UNL     1       6.266   5.535  16.113  0.00  0.00    +0.000 A 
ATOM      2  C   UNL     1       5.635   4.767  15.163  0.00  0.00    +0.000 A 
ATOM      3  C   UNL     1       6.576   4.643  14.110  0.00  0.00    +0.000 A 
ATOM      4  N   UNL     1       7.710   5.301  14.408  0.00  0.00    +0.000 NA
ATOM      5  O   UNL     1       7.510   5.856  15.660  0.00  0.00    +0.000 OA
ENDROOT
BRANCH   3   6
ATOM      6  C   UNL     1       6.403   3.924  12.849  0.00  0.00    +0.000 C 
ATOM      7  O   UNL     1       7.287   3.833  11.997  0.00  0.00    +0.000 OA
ATOM      8  N   UNL     1       5.171   3.342  12.678  0.00  0.00    +0.000 N 
ATOM      9  H   UNL     1       4.430   3.403  13.370  0.00  0.00    +0.000 HD
BRANCH   8  10
ATOM     10  O   UNL     1       4.936   2.620  11.491  0.00  0.00    +0.000 OA
ATOM     11  H   UNL     1       5.723   2.837  10.948  0.00  0.00    +0.000 HD
ENDBRANCH   8  10
ENDBRANCH   3   6
BRANCH   1  12
ATOM     12  C   UNL     1       5.886   6.074  17.442  0.00  0.00    +0.000 C 
BRANCH  12  13
ATOM     13  S   UNL     1       4.209   6.797  17.388  0.00  0.00    +0.000 S 
BRANCH  13  17
ATOM     14  C   UNL     1       1.582   3.793  19.692  0.00  0.00    +0.000 A 
ATOM     15  C   UNL     1       2.378   4.725  20.352  0.00  0.00    +0.000 A 
ATOM     16  C   UNL     1       3.177   5.615  19.627  0.00  0.00    +0.000 A 
ATOM     17  C   UNL     1       3.214   5.571  18.229  0.00  0.00    +0.000 A 
ATOM     18  C   UNL     1       2.423   4.623  17.572  0.00  0.00    +0.000 A 
ATOM     19  C   UNL     1       1.617   3.735  18.299  0.00  0.00    +0.000 A 
BRANCH  14  21
ATOM     20  C   UNL     1       1.449   2.610  21.734  0.00  0.00    +0.000 C 
ATOM     21  O   UNL     1       0.843   2.975  20.500  0.00  0.00    +0.000 OA
ENDBRANCH  14  21
ENDBRANCH  13  17
ENDBRANCH  12  13
ENDBRANCH   1  12
TORSDOF 6
ENDMDL
MODEL 2
REMARK VINA RESULT:      -7.1      1.368      1.587
REMARK  Name = 
REMARK  7 active torsions:
REMARK  status: ('A' for Active; 'I' for Inactive)
REMARK    1  A    between atoms: C_1  and  O_2
REMARK    2  A    between atoms: O_2  and  C_3
REMARK    3  A    between atoms: C_6  and  S_7
REMARK    4  A    between atoms: S_7  and  C_8
REMARK    5  A    between atoms: C_8  and  C_9
REMARK    6  A    between atoms: C_11  and  C_12
REMARK    7  A    between atoms: N_14  and  O_15
REMARK                            x       y       z     vdW  Elec       q    Type
REMARK                         _______ _______ _______ _____ _____    ______ ____
ROOT
ATOM      1  C   UNL     1       6.814   4.966  15.562  0.00  0.00    +0.000 A 
ATOM      2  C   UNL     1       6.078   3.986  14.939  0.00  0.00    +0.000 A 
ATOM      3  C   UNL     1       6.428   4.083  13.568  0.00  0.00    +0.000 A 
ATOM      4  N   UNL     1       7.323   5.067  13.376  0.00  0.00    +0.000 NA
ATOM      5  O   UNL     1       7.560   5.615  14.625  0.00  0.00    +0.000 OA
ENDROOT
BRANCH   3   6
ATOM      6  C   UNL     1       5.921   3.267  12.466  0.00  0.00    +0.000 C 
ATOM      7  O   UNL     1       4.820   3.443  11.946  0.00  0.00    +0.000 OA
ATOM      8  N   UNL     1       6.773   2.279  12.038  0.00  0.00    +0.000 N 
ATOM      9  H   UNL     1       7.687   2.119  12.451  0.00  0.00    +0.000 HD
BRANCH   8  10
ATOM     10  O   UNL     1       6.358   1.460  10.968  0.00  0.00    +0.000 OA
ATOM     11  H   UNL     1       6.457   2.052  10.194  0.00  0.00    +0.000 HD
ENDBRANCH   8  10
ENDBRANCH   3   6
BRANCH   1  12
ATOM     12  C   UNL     1       6.940   5.450  16.959  0.00  0.00    +0.000 C 
BRANCH  12  13
ATOM     13  S   UNL     1       5.462   6.410  17.443  0.00  0.00    +0.000 S 
BRANCH  13  17
ATOM     14  C   UNL     1       2.715   3.312  19.465  0.00  0.00    +0.000 A 
ATOM     15  C   UNL     1       2.213   4.496  18.930  0.00  0.00    +0.000 A 
ATOM     16  C   UNL     1       3.073   5.425  18.335  0.00  0.00    +0.000 A 
ATOM     17  C   UNL     1       4.453   5.199  18.288  0.00  0.00    +0.000 A 
ATOM     18  C   UNL     1       4.953   4.015  18.841  0.00  0.00    +0.000 A 
ATOM     19  C   UNL     1       4.090   3.080  19.431  0.00  0.00    +0.000 A 
BRANCH  14  21
ATOM     20  C   UNL     1       1.430   2.756  21.370  0.00  0.00    +0.000 C 
ATOM     21  O   UNL     1       1.785   2.478  20.020  0.00  0.00    +0.000 OA
ENDBRANCH  14  21
ENDBRANCH  13  17
ENDBRANCH  12  13
ENDBRANCH   1  12
TORSDOF 6
ENDMDL
MODEL 3
REMARK VINA RESULT:      -7.1      2.987      3.701
REMARK  Name = 
REMARK  7 active torsions:
REMARK  status: ('A' for Active; 'I' for Inactive)
REMARK    1  A    between atoms: C_1  and  O_2
REMARK    2  A    between atoms: O_2  and  C_3
REMARK    3  A    between atoms: C_6  and  S_7
REMARK    4  A    between atoms: S_7  and  C_8
REMARK    5  A    between atoms: C_8  and  C_9
REMARK    6  A    between atoms: C_11  and  C_12
REMARK    7  A    between atoms: N_14  and  O_15
REMARK                            x       y       z     vdW  Elec       q    Type
REMARK                         _______ _______ _______ _____ _____    ______ ____
ROOT
ATOM      1  C   UNL     1       6.012   4.997  18.152  0.00  0.00    +0.000 A 
ATOM      2  C   UNL     1       5.661   5.065  16.824  0.00  0.00    +0.000 A 
ATOM      3  C   UNL     1       6.829   4.682  16.118  0.00  0.00    +0.000 A 
ATOM      4  N   UNL     1       7.829   4.402  16.973  0.00  0.00    +0.000 NA
ATOM      5  O   UNL     1       7.312   4.600  18.241  0.00  0.00    +0.000 OA
ENDROOT
BRANCH   3   6
ATOM      6  C   UNL     1       6.998   4.591  14.669  0.00  0.00    +0.000 C 
ATOM      7  O   UNL     1       7.674   5.386  14.016  0.00  0.00    +0.000 OA
ATOM      8  N   UNL     1       6.346   3.538  14.075  0.00  0.00    +0.000 N 
ATOM      9  H   UNL     1       5.786   2.869  14.596  0.00  0.00    +0.000 HD
BRANCH   8  10
ATOM     10  O   UNL     1       6.474   3.378  12.681  0.00  0.00    +0.000 OA
ATOM     11  H   UNL     1       6.955   2.528  12.606  0.00  0.00    +0.000 HD
ENDBRANCH   8  10
ENDBRANCH   3   6
BRANCH   1  12
ATOM     12  C   UNL     1       5.314   5.273  19.432  0.00  0.00    +0.000 C 
BRANCH  12  13
ATOM     13  S   UNL     1       3.547   4.825  19.312  0.00  0.00    +0.000 S 
BRANCH  13  17
ATOM     14  C   UNL     1       1.531   8.966  19.177  0.00  0.00    +0.000 A 
ATOM     15  C   UNL     1       1.477   8.163  20.314  0.00  0.00    +0.000 A 
ATOM     16  C   UNL     1       2.086   6.904  20.321  0.00  0.00    +0.000 A 
ATOM     17  C   UNL     1       2.736   6.414  19.183  0.00  0.00    +0.000 A 
ATOM     18  C   UNL     1       2.773   7.219  18.039  0.00  0.00    +0.000 A 
ATOM     19  C   UNL     1       2.169   8.485  18.034  0.00  0.00    +0.000 A 
BRANCH  14  21
ATOM     20  C   UNL     1      -0.252  10.348  18.470  0.00  0.00    +0.000 C 
ATOM     21  O   UNL     1       0.903  10.176  19.282  0.00  0.00    +0.000 OA
ENDBRANCH  14  21
ENDBRANCH  13  17
ENDBRANCH  12  13
ENDBRANCH   1  12
TORSDOF 6
ENDMDL
MODEL 4
REMARK VINA RESULT:      -7.1      0.781      1.186
REMARK  Name = 
REMARK  7 active torsions:
REMARK  status: ('A' for Active; 'I' for Inactive)
REMARK    1  A    between atoms: C_1  and  O_2
REMARK    2  A    between atoms: O_2  and  C_3
REMARK    3  A    between atoms: C_6  and  S_7
REMARK    4  A    between atoms: S_7  and  C_8
REMARK    5  A    between atoms: C_8  and  C_9
REMARK    6  A    between atoms: C_11  and  C_12
REMARK    7  A    between atoms: N_14  and  O_15
REMARK                            x       y       z     vdW  Elec       q    Type
REMARK                         _______ _______ _______ _____ _____    ______ ____
ROOT
ATOM      1  C   UNL     1       6.459   5.152  16.059  0.00  0.00    +0.000 A 
ATOM      2  C   UNL     1       5.998   4.252  15.127  0.00  0.00    +0.000 A 
ATOM      3  C   UNL     1       6.798   4.476  13.977  0.00  0.00    +0.000 A 
ATOM      4  N   UNL     1       7.689   5.458  14.205  0.00  0.00    +0.000 NA
ATOM      5  O   UNL     1       7.472   5.875  15.506  0.00  0.00    +0.000 OA
ENDROOT
BRANCH   3   6
ATOM      6  C   UNL     1       6.717   3.783  12.694  0.00  0.00    +0.000 C 
ATOM      7  O   UNL     1       7.286   4.177  11.676  0.00  0.00    +0.000 OA
ATOM      8  N   UNL     1       5.956   2.639  12.700  0.00  0.00    +0.000 N 
ATOM      9  H   UNL     1       5.481   2.295  13.530  0.00  0.00    +0.000 HD
BRANCH   8  10
ATOM     10  O   UNL     1       5.842   1.909  11.500  0.00  0.00    +0.000 OA
ATOM     11  H   UNL     1       5.183   2.429  10.994  0.00  0.00    +0.000 HD
ENDBRANCH   8  10
ENDBRANCH   3   6
BRANCH   1  12
ATOM     12  C   UNL     1       6.087   5.493  17.454  0.00  0.00    +0.000 C 
BRANCH  12  13
ATOM     13  S   UNL     1       4.665   6.641  17.478  0.00  0.00    +0.000 S 
BRANCH  13  17
ATOM     14  C   UNL     1       1.825   4.381  20.316  0.00  0.00    +0.000 A 
ATOM     15  C   UNL     1       2.598   3.713  19.370  0.00  0.00    +0.000 A 
ATOM     16  C   UNL     1       3.440   4.427  18.512  0.00  0.00    +0.000 A 
ATOM     17  C   UNL     1       3.505   5.823  18.566  0.00  0.00    +0.000 A 
ATOM     18  C   UNL     1       2.715   6.490  19.509  0.00  0.00    +0.000 A 
ATOM     19  C   UNL     1       1.875   5.773  20.375  0.00  0.00    +0.000 A 
BRANCH  14  21
ATOM     20  C   UNL     1       1.671   2.428  21.640  0.00  0.00    +0.000 C 
ATOM     21  O   UNL     1       1.040   3.584  21.102  0.00  0.00    +0.000 OA
ENDBRANCH  14  21
ENDBRANCH  13  17
ENDBRANCH  12  13
ENDBRANCH   1  12
TORSDOF 6
ENDMDL
MODEL 5
REMARK VINA RESULT:      -7.0      1.041      1.120
REMARK  Name = 
REMARK  7 active torsions:
REMARK  status: ('A' for Active; 'I' for Inactive)
REMARK    1  A    between atoms: C_1  and  O_2
REMARK    2  A    between atoms: O_2  and  C_3
REMARK    3  A    between atoms: C_6  and  S_7
REMARK    4  A    between atoms: S_7  and  C_8
REMARK    5  A    between atoms: C_8  and  C_9
REMARK    6  A    between atoms: C_11  and  C_12
REMARK    7  A    between atoms: N_14  and  O_15
REMARK                            x       y       z     vdW  Elec       q    Type
REMARK                         _______ _______ _______ _____ _____    ______ ____
ROOT
ATOM      1  C   UNL     1       6.298   5.282  15.724  0.00  0.00    +0.000 A 
ATOM      2  C   UNL     1       5.549   4.379  15.006  0.00  0.00    +0.000 A 
ATOM      3  C   UNL     1       6.224   4.250  13.765  0.00  0.00    +0.000 A 
ATOM      4  N   UNL     1       7.317   5.033  13.737  0.00  0.00    +0.000 NA
ATOM      5  O   UNL     1       7.357   5.675  14.962  0.00  0.00    +0.000 OA
ENDROOT
BRANCH   3   6
ATOM      6  C   UNL     1       5.840   3.411  12.632  0.00  0.00    +0.000 C 
ATOM      7  O   UNL     1       4.738   3.476  12.087  0.00  0.00    +0.000 OA
ATOM      8  N   UNL     1       6.808   2.535  12.205  0.00  0.00    +0.000 N 
ATOM      9  H   UNL     1       7.724   2.469  12.639  0.00  0.00    +0.000 HD
BRANCH   8  10
ATOM     10  O   UNL     1       6.513   1.703  11.107  0.00  0.00    +0.000 OA
ATOM     11  H   UNL     1       6.305   2.347  10.398  0.00  0.00    +0.000 HD
ENDBRANCH   8  10
ENDBRANCH   3   6
BRANCH   1  12
ATOM     12  C   UNL     1       6.185   5.898  17.068  0.00  0.00    +0.000 C 
BRANCH  12  13
ATOM     13  S   UNL     1       4.542   6.668  17.287  0.00  0.00    +0.000 S 
BRANCH  13  17
ATOM     14  C   UNL     1       2.177   3.399  19.511  0.00  0.00    +0.000 A 
ATOM     15  C   UNL     1       3.510   3.669  19.811  0.00  0.00    +0.000 A 
ATOM     16  C   UNL     1       4.207   4.657  19.108  0.00  0.00    +0.000 A 
ATOM     17  C   UNL     1       3.592   5.375  18.077  0.00  0.00    +0.000 A 
ATOM     18  C   UNL     1       2.257   5.089  17.771  0.00  0.00    +0.000 A 
ATOM     19  C   UNL     1       1.555   4.102  18.480  0.00  0.00    +0.000 A 
BRANCH  14  21
ATOM     20  C   UNL     1       1.642   2.598  21.670  0.00  0.00    +0.000 C 
ATOM     21  O   UNL     1       1.595   2.414  20.260  0.00  0.00    +0.000 OA
ENDBRANCH  14  21
ENDBRANCH  13  17
ENDBRANCH  12  13
ENDBRANCH   1  12
TORSDOF 6
ENDMDL
MODEL 6
REMARK VINA RESULT:      -7.0      2.846      3.684
REMARK  Name = 
REMARK  7 active torsions:
REMARK  status: ('A' for Active; 'I' for Inactive)
REMARK    1  A    between atoms: C_1  and  O_2
REMARK    2  A    between atoms: O_2  and  C_3
REMARK    3  A    between atoms: C_6  and  S_7
REMARK    4  A    between atoms: S_7  and  C_8
REMARK    5  A    between atoms: C_8  and  C_9
REMARK    6  A    between atoms: C_11  and  C_12
REMARK    7  A    between atoms: N_14  and  O_15
REMARK                            x       y       z     vdW  Elec       q    Type
REMARK                         _______ _______ _______ _____ _____    ______ ____
ROOT
ATOM      1  C   UNL     1       5.843   4.544  18.015  0.00  0.00    +0.000 A 
ATOM      2  C   UNL     1       5.532   4.647  16.680  0.00  0.00    +0.000 A 
ATOM      3  C   UNL     1       6.779   4.578  16.008  0.00  0.00    +0.000 A 
ATOM      4  N   UNL     1       7.785   4.444  16.891  0.00  0.00    +0.000 NA
ATOM      5  O   UNL     1       7.194   4.424  18.142  0.00  0.00    +0.000 OA
ENDROOT
BRANCH   3   6
ATOM      6  C   UNL     1       7.013   4.645  14.567  0.00  0.00    +0.000 C 
ATOM      7  O   UNL     1       7.735   5.490  14.039  0.00  0.00    +0.000 OA
ATOM      8  N   UNL     1       6.369   3.682  13.831  0.00  0.00    +0.000 N 
ATOM      9  H   UNL     1       5.772   2.974  14.248  0.00  0.00    +0.000 HD
BRANCH   8  10
ATOM     10  O   UNL     1       6.558   3.675  12.434  0.00  0.00    +0.000 OA
ATOM     11  H   UNL     1       7.511   3.464  12.348  0.00  0.00    +0.000 HD
ENDBRANCH   8  10
ENDBRANCH   3   6
BRANCH   1  12
ATOM     12  C   UNL     1       5.059   4.561  19.275  0.00  0.00    +0.000 C 
BRANCH  12  13
ATOM     13  S   UNL     1       3.274   4.388  18.924  0.00  0.00    +0.000 S 
BRANCH  13  17
ATOM     14  C   UNL     1       1.542   8.601  19.618  0.00  0.00    +0.000 A 
ATOM     15  C   UNL     1       2.152   8.250  18.417  0.00  0.00    +0.000 A 
ATOM     16  C   UNL     1       2.683   6.968  18.240  0.00  0.00    +0.000 A 
ATOM     17  C   UNL     1       2.636   6.023  19.270  0.00  0.00    +0.000 A 
ATOM     18  C   UNL     1       2.034   6.386  20.480  0.00  0.00    +0.000 A 
ATOM     19  C   UNL     1       1.496   7.670  20.655  0.00  0.00    +0.000 A 
BRANCH  14  21
ATOM     20  C   UNL     1       0.488  10.384  18.479  0.00  0.00    +0.000 C 
ATOM     21  O   UNL     1       1.059   9.878  19.680  0.00  0.00    +0.000 OA
ENDBRANCH  14  21
ENDBRANCH  13  17
ENDBRANCH  12  13
ENDBRANCH   1  12
TORSDOF 6
ENDMDL
MODEL 7
REMARK VINA RESULT:      -7.0      1.528      1.729
REMARK  Name = 
REMARK  7 active torsions:
REMARK  status: ('A' for Active; 'I' for Inactive)
REMARK    1  A    between atoms: C_1  and  O_2
REMARK    2  A    between atoms: O_2  and  C_3
REMARK    3  A    between atoms: C_6  and  S_7
REMARK    4  A    between atoms: S_7  and  C_8
REMARK    5  A    between atoms: C_8  and  C_9
REMARK    6  A    between atoms: C_11  and  C_12
REMARK    7  A    between atoms: N_14  and  O_15
REMARK                            x       y       z     vdW  Elec       q    Type
REMARK                         _______ _______ _______ _____ _____    ______ ____
ROOT
ATOM      1  C   UNL     1       6.976   4.861  15.635  0.00  0.00    +0.000 A 
ATOM      2  C   UNL     1       6.191   3.907  15.031  0.00  0.00    +0.000 A 
ATOM      3  C   UNL     1       6.427   4.067  13.642  0.00  0.00    +0.000 A 
ATOM      4  N   UNL     1       7.304   5.062  13.421  0.00  0.00    +0.000 NA
ATOM      5  O   UNL     1       7.643   5.553  14.670  0.00  0.00    +0.000 OA
ENDROOT
BRANCH   3   6
ATOM      6  C   UNL     1       5.831   3.300  12.550  0.00  0.00    +0.000 C 
ATOM      7  O   UNL     1       4.729   3.558  12.065  0.00  0.00    +0.000 OA
ATOM      8  N   UNL     1       6.598   2.258  12.087  0.00  0.00    +0.000 N 
ATOM      9  H   UNL     1       7.511   2.031  12.471  0.00  0.00    +0.000 HD
BRANCH   8  10
ATOM     10  O   UNL     1       6.094   1.482  11.025  0.00  0.00    +0.000 OA
ATOM     11  H   UNL     1       5.170   1.312  11.303  0.00  0.00    +0.000 HD
ENDBRANCH   8  10
ENDBRANCH   3   6
BRANCH   1  12
ATOM     12  C   UNL     1       7.216   5.282  17.037  0.00  0.00    +0.000 C 
BRANCH  12  13
ATOM     13  S   UNL     1       6.125   6.677  17.486  0.00  0.00    +0.000 S 
BRANCH  13  17
ATOM     14  C   UNL     1       2.323   4.517  18.938  0.00  0.00    +0.000 A 
ATOM     15  C   UNL     1       3.585   3.942  19.066  0.00  0.00    +0.000 A 
ATOM     16  C   UNL     1       4.720   4.615  18.602  0.00  0.00    +0.000 A 
ATOM     17  C   UNL     1       4.611   5.863  17.979  0.00  0.00    +0.000 A 
ATOM     18  C   UNL     1       3.339   6.428  17.841  0.00  0.00    +0.000 A 
ATOM     19  C   UNL     1       2.201   5.757  18.312  0.00  0.00    +0.000 A 
BRANCH  14  21
ATOM     20  C   UNL     1       1.024   2.551  18.743  0.00  0.00    +0.000 C 
ATOM     21  O   UNL     1       1.286   3.771  19.426  0.00  0.00    +0.000 OA
ENDBRANCH  14  21
ENDBRANCH  13  17
ENDBRANCH  12  13
ENDBRANCH   1  12
TORSDOF 6
ENDMDL
MODEL 8
REMARK VINA RESULT:      -6.9      1.339      1.593
REMARK  Name = 
REMARK  7 active torsions:
REMARK  status: ('A' for Active; 'I' for Inactive)
REMARK    1  A    between atoms: C_1  and  O_2
REMARK    2  A    between atoms: O_2  and  C_3
REMARK    3  A    between atoms: C_6  and  S_7
REMARK    4  A    between atoms: S_7  and  C_8
REMARK    5  A    between atoms: C_8  and  C_9
REMARK    6  A    between atoms: C_11  and  C_12
REMARK    7  A    between atoms: N_14  and  O_15
REMARK                            x       y       z     vdW  Elec       q    Type
REMARK                         _______ _______ _______ _____ _____    ______ ____
ROOT
ATOM      1  C   UNL     1       6.909   4.900  15.613  0.00  0.00    +0.000 A 
ATOM      2  C   UNL     1       6.179   3.968  14.913  0.00  0.00    +0.000 A 
ATOM      3  C   UNL     1       6.560   4.148  13.559  0.00  0.00    +0.000 A 
ATOM      4  N   UNL     1       7.468   5.134  13.450  0.00  0.00    +0.000 NA
ATOM      5  O   UNL     1       7.682   5.599  14.736  0.00  0.00    +0.000 OA
ENDROOT
BRANCH   3   6
ATOM      6  C   UNL     1       6.072   3.409  12.396  0.00  0.00    +0.000 C 
ATOM      7  O   UNL     1       6.800   2.724  11.678  0.00  0.00    +0.000 OA
ATOM      8  N   UNL     1       4.725   3.526  12.160  0.00  0.00    +0.000 N 
ATOM      9  H   UNL     1       4.107   4.082  12.743  0.00  0.00    +0.000 HD
BRANCH   8  10
ATOM     10  O   UNL     1       4.179   2.829  11.063  0.00  0.00    +0.000 OA
ATOM     11  H   UNL     1       3.758   2.053  11.489  0.00  0.00    +0.000 HD
ENDBRANCH   8  10
ENDBRANCH   3   6
BRANCH   1  12
ATOM     12  C   UNL     1       7.007   5.293  17.040  0.00  0.00    +0.000 C 
BRANCH  12  13
ATOM     13  S   UNL     1       5.602   6.363  17.510  0.00  0.00    +0.000 S 
BRANCH  13  17
ATOM     14  C   UNL     1       3.286   3.559  20.339  0.00  0.00    +0.000 A 
ATOM     15  C   UNL     1       4.368   3.108  19.586  0.00  0.00    +0.000 A 
ATOM     16  C   UNL     1       5.043   3.979  18.725  0.00  0.00    +0.000 A 
ATOM     17  C   UNL     1       4.632   5.309  18.580  0.00  0.00    +0.000 A 
ATOM     18  C   UNL     1       3.536   5.751  19.328  0.00  0.00    +0.000 A 
ATOM     19  C   UNL     1       2.863   4.880  20.198  0.00  0.00    +0.000 A 
BRANCH  14  21
ATOM     20  C   UNL     1       1.292   2.726  21.297  0.00  0.00    +0.000 C 
ATOM     21  O   UNL     1       2.703   2.623  21.147  0.00  0.00    +0.000 OA
ENDBRANCH  14  21
ENDBRANCH  13  17
ENDBRANCH  12  13
ENDBRANCH   1  12
TORSDOF 6
ENDMDL
MODEL 9
REMARK VINA RESULT:      -6.9      1.283      1.441
REMARK  Name = 
REMARK  7 active torsions:
REMARK  status: ('A' for Active; 'I' for Inactive)
REMARK    1  A    between atoms: C_1  and  O_2
REMARK    2  A    between atoms: O_2  and  C_3
REMARK    3  A    between atoms: C_6  and  S_7
REMARK    4  A    between atoms: S_7  and  C_8
REMARK    5  A    between atoms: C_8  and  C_9
REMARK    6  A    between atoms: C_11  and  C_12
REMARK    7  A    between atoms: N_14  and  O_15
REMARK                            x       y       z     vdW  Elec       q    Type
REMARK                         _______ _______ _______ _____ _____    ______ ____
ROOT
ATOM      1  C   UNL     1       6.859   5.029  15.387  0.00  0.00    +0.000 A 
ATOM      2  C   UNL     1       6.036   4.126  14.756  0.00  0.00    +0.000 A 
ATOM      3  C   UNL     1       6.475   4.111  13.408  0.00  0.00    +0.000 A 
ATOM      4  N   UNL     1       7.504   4.960  13.236  0.00  0.00    +0.000 NA
ATOM      5  O   UNL     1       7.739   5.529  14.475  0.00  0.00    +0.000 OA
ENDROOT
BRANCH   3   6
ATOM      6  C   UNL     1       5.930   3.318  12.308  0.00  0.00    +0.000 C 
ATOM      7  O   UNL     1       6.590   2.489  11.682  0.00  0.00    +0.000 OA
ATOM      8  N   UNL     1       4.610   3.560  12.019  0.00  0.00    +0.000 N 
ATOM      9  H   UNL     1       4.047   4.237  12.525  0.00  0.00    +0.000 HD
BRANCH   8  10
ATOM     10  O   UNL     1       4.011   2.822  10.978  0.00  0.00    +0.000 OA
ATOM     11  H   UNL     1       4.148   3.400  10.198  0.00  0.00    +0.000 HD
ENDBRANCH   8  10
ENDBRANCH   3   6
BRANCH   1  12
ATOM     12  C   UNL     1       6.965   5.557  16.769  0.00  0.00    +0.000 C 
BRANCH  12  13
ATOM     13  S   UNL     1       5.482   6.533  17.201  0.00  0.00    +0.000 S 
BRANCH  13  17
ATOM     14  C   UNL     1       2.623   3.468  19.115  0.00  0.00    +0.000 A 
ATOM     15  C   UNL     1       2.161   4.677  18.601  0.00  0.00    +0.000 A 
ATOM     16  C   UNL     1       3.055   5.595  18.039  0.00  0.00    +0.000 A 
ATOM     17  C   UNL     1       4.429   5.332  18.005  0.00  0.00    +0.000 A 
ATOM     18  C   UNL     1       4.888   4.122  18.537  0.00  0.00    +0.000 A 
ATOM     19  C   UNL     1       3.991   3.198  19.094  0.00  0.00    +0.000 A 
BRANCH  14  21
ATOM     20  C   UNL     1       1.244   2.951  20.964  0.00  0.00    +0.000 C 
ATOM     21  O   UNL     1       1.663   2.648  19.639  0.00  0.00    +0.000 OA
ENDBRANCH  14  21
ENDBRANCH  13  17
ENDBRANCH  12  13
ENDBRANCH   1  12
TORSDOF 6
ENDMDL
