MODEL 1
REMARK VINA RESULT:      -7.1      0.000      0.000
REMARK  Name = 
REMARK  5 active torsions:
REMARK  status: ('A' for Active; 'I' for Inactive)
REMARK    1  A    between atoms: C_1  and  C_2
REMARK    2  A    between atoms: C_2  and  C_3
REMARK    3  A    between atoms: C_3  and  N_4
REMARK    4  A    between atoms: C_8  and  O_9
REMARK    5  A    between atoms: C_18  and  O_19
REMARK                            x       y       z     vdW  Elec       q    Type
REMARK                         _______ _______ _______ _____ _____    ______ ____
ROOT
ATOM      1  N   UNL     1       3.397   2.984  18.698  0.00  0.00    +0.000 N 
ATOM      2  C   UNL     1       4.644   3.065  19.317  0.00  0.00    +0.000 C 
ATOM      3  O   UNL     1       4.924   2.707  20.447  0.00  0.00    +0.000 OA
ATOM      4  N   UNL     1       5.548   3.653  18.436  0.00  0.00    +0.000 N 
ATOM      5  C   UNL     1       4.916   3.859  17.153  0.00  0.00    +0.000 C 
ATOM      6  C   UNL     1       5.107   5.275  16.637  0.00  0.00    +0.000 C 
ATOM      7  O   UNL     1       6.061   5.719  16.013  0.00  0.00    +0.000 OA
ATOM      8  C   UNL     1       4.034   6.100  17.173  0.00  0.00    +0.000 A 
ATOM      9  C   UNL     1       4.031   7.478  17.289  0.00  0.00    +0.000 A 
ATOM     10  C   UNL     1       3.066   8.038  18.116  0.00  0.00    +0.000 A 
ATOM     11  C   UNL     1       2.138   7.220  18.790  0.00  0.00    +0.000 A 
ATOM     12  C   UNL     1       2.136   5.827  18.615  0.00  0.00    +0.000 A 
ATOM     13  C   UNL     1       3.098   5.265  17.791  0.00  0.00    +0.000 A 
ATOM     14  C   UNL     1       3.397   3.802  17.512  0.00  0.00    +0.000 C 
ATOM     15  H   UNL     1       6.236   4.275  18.841  0.00  0.00    +0.000 HD
ENDROOT
BRANCH   5  16
ATOM     16  O   UNL     1       5.402   2.841  16.319  0.00  0.00    +0.000 OA
ATOM     17  H   UNL     1       6.186   3.229  15.895  0.00  0.00    +0.000 HD
ENDBRANCH   5  16
BRANCH  14  18
ATOM     18  O   UNL     1       2.532   3.302  16.519  0.00  0.00    +0.000 OA
ATOM     19  H   UNL     1       1.885   3.997  16.339  0.00  0.00    +0.000 HD
ENDBRANCH  14  18
BRANCH   1  20
ATOM     20  C   UNL     1       2.423   1.952  19.013  0.00  0.00    +0.000 C 
BRANCH  20  22
ATOM     21  C   UNL     1       1.327   3.085  21.043  0.00  0.00    +0.000 C 
ATOM     22  C   UNL     1       1.132   2.481  19.660  0.00  0.00    +0.000 C 
ENDBRANCH  20  22
ENDBRANCH   1  20
TORSDOF 4
ENDMDL
MODEL 2
REMARK VINA RESULT:      -6.9      1.969      3.454
REMARK  Name = 
REMARK  5 active torsions:
REMARK  status: ('A' for Active; 'I' for Inactive)
REMARK    1  A    between atoms: C_1  and  C_2
REMARK    2  A    between atoms: C_2  and  C_3
REMARK    3  A    between atoms: C_3  and  N_4
REMARK    4  A    between atoms: C_8  and  O_9
REMARK    5  A    between atoms: C_18  and  O_19
REMARK                            x       y       z     vdW  Elec       q    Type
REMARK                         _______ _______ _______ _____ _____    ______ ____
ROOT
ATOM      1  N   UNL     1       3.106   3.603  18.840  0.00  0.00    +0.000 N 
ATOM      2  C   UNL     1       1.881   3.993  18.298  0.00  0.00    +0.000 C 
ATOM      3  O   UNL     1       0.946   3.269  18.008  0.00  0.00    +0.000 OA
ATOM      4  N   UNL     1       1.891   5.373  18.110  0.00  0.00    +0.000 N 
ATOM      5  C   UNL     1       3.107   5.932  18.653  0.00  0.00    +0.000 C 
ATOM      6  C   UNL     1       3.808   6.851  17.668  0.00  0.00    +0.000 C 
ATOM      7  O   UNL     1       3.589   8.039  17.470  0.00  0.00    +0.000 OA
ATOM      8  C   UNL     1       4.684   6.039  16.837  0.00  0.00    +0.000 A 
ATOM      9  C   UNL     1       5.194   6.378  15.597  0.00  0.00    +0.000 A 
ATOM     10  C   UNL     1       5.732   5.349  14.835  0.00  0.00    +0.000 A 
ATOM     11  C   UNL     1       5.753   4.029  15.326  0.00  0.00    +0.000 A 
ATOM     12  C   UNL     1       5.270   3.724  16.608  0.00  0.00    +0.000 A 
ATOM     13  C   UNL     1       4.732   4.748  17.371  0.00  0.00    +0.000 A 
ATOM     14  C   UNL     1       4.047   4.687  18.726  0.00  0.00    +0.000 C 
ATOM     15  H   UNL     1       1.419   5.719  17.284  0.00  0.00    +0.000 HD
ENDROOT
BRANCH   5  16
ATOM     16  O   UNL     1       2.746   6.518  19.875  0.00  0.00    +0.000 OA
ATOM     17  H   UNL     1       1.784   6.642  19.810  0.00  0.00    +0.000 HD
ENDBRANCH   5  16
BRANCH  14  18
ATOM     18  O   UNL     1       5.002   4.676  19.762  0.00  0.00    +0.000 OA
ATOM     19  H   UNL     1       5.122   5.595  20.039  0.00  0.00    +0.000 HD
ENDBRANCH  14  18
BRANCH   1  20
ATOM     20  C   UNL     1       3.257   2.440  19.699  0.00  0.00    +0.000 C 
BRANCH  20  22
ATOM     21  C   UNL     1       1.423   2.638  21.489  0.00  0.00    +0.000 C 
ATOM     22  C   UNL     1       2.911   2.697  21.174  0.00  0.00    +0.000 C 
ENDBRANCH  20  22
ENDBRANCH   1  20
TORSDOF 4
ENDMDL
MODEL 3
REMARK VINA RESULT:      -6.9      1.570      4.452
REMARK  Name = 
REMARK  5 active torsions:
REMARK  status: ('A' for Active; 'I' for Inactive)
REMARK    1  A    between atoms: C_1  and  C_2
REMARK    2  A    between atoms: C_2  and  C_3
REMARK    3  A    between atoms: C_3  and  N_4
REMARK    4  A    between atoms: C_8  and  O_9
REMARK    5  A    between atoms: C_18  and  O_19
REMARK                            x       y       z     vdW  Elec       q    Type
REMARK                         _______ _______ _______ _____ _____    ______ ____
ROOT
ATOM      1  N   UNL     1       4.135   5.868  17.750  0.00  0.00    +0.000 N 
ATOM      2  C   UNL     1       4.941   5.068  16.939  0.00  0.00    +0.000 C 
ATOM      3  O   UNL     1       5.150   5.211  15.747  0.00  0.00    +0.000 OA
ATOM      4  N   UNL     1       5.470   4.035  17.708  0.00  0.00    +0.000 N 
ATOM      5  C   UNL     1       5.105   4.221  19.094  0.00  0.00    +0.000 C 
ATOM      6  C   UNL     1       4.517   2.963  19.708  0.00  0.00    +0.000 C 
ATOM      7  O   UNL     1       5.121   2.021  20.203  0.00  0.00    +0.000 OA
ATOM      8  C   UNL     1       3.085   2.961  19.447  0.00  0.00    +0.000 A 
ATOM      9  C   UNL     1       2.243   1.863  19.472  0.00  0.00    +0.000 A 
ATOM     10  C   UNL     1       0.995   2.015  18.881  0.00  0.00    +0.000 A 
ATOM     11  C   UNL     1       0.623   3.241  18.297  0.00  0.00    +0.000 A 
ATOM     12  C   UNL     1       1.481   4.351  18.329  0.00  0.00    +0.000 A 
ATOM     13  C   UNL     1       2.727   4.203  18.917  0.00  0.00    +0.000 A 
ATOM     14  C   UNL     1       3.883   5.187  18.994  0.00  0.00    +0.000 C 
ATOM     15  H   UNL     1       5.560   3.134  17.255  0.00  0.00    +0.000 HD
ENDROOT
BRANCH   5  16
ATOM     16  O   UNL     1       6.252   4.723  19.727  0.00  0.00    +0.000 OA
ATOM     17  H   UNL     1       6.027   5.644  19.941  0.00  0.00    +0.000 HD
ENDBRANCH   5  16
BRANCH  14  18
ATOM     18  O   UNL     1       3.697   6.084  20.065  0.00  0.00    +0.000 OA
ATOM     19  H   UNL     1       4.294   5.801  20.771  0.00  0.00    +0.000 HD
ENDBRANCH  14  18
BRANCH   1  20
ATOM     20  C   UNL     1       3.924   7.285  17.503  0.00  0.00    +0.000 C 
BRANCH  20  22
ATOM     21  C   UNL     1       2.234   9.185  17.874  0.00  0.00    +0.000 C 
ATOM     22  C   UNL     1       2.449   7.717  17.536  0.00  0.00    +0.000 C 
ENDBRANCH  20  22
ENDBRANCH   1  20
TORSDOF 4
ENDMDL
MODEL 4
REMARK VINA RESULT:      -6.8      1.882      4.451
REMARK  Name = 
REMARK  5 active torsions:
REMARK  status: ('A' for Active; 'I' for Inactive)
REMARK    1  A    between atoms: C_1  and  C_2
REMARK    2  A    between atoms: C_2  and  C_3
REMARK    3  A    between atoms: C_3  and  N_4
REMARK    4  A    between atoms: C_8  and  O_9
REMARK    5  A    between atoms: C_18  and  O_19
REMARK                            x       y       z     vdW  Elec       q    Type
REMARK                         _______ _______ _______ _____ _____    ______ ____
ROOT
ATOM      1  N   UNL     1       5.195   5.330  18.428  0.00  0.00    +0.000 N 
ATOM      2  C   UNL     1       4.628   5.806  17.246  0.00  0.00    +0.000 C 
ATOM      3  O   UNL     1       4.659   6.951  16.829  0.00  0.00    +0.000 OA
ATOM      4  N   UNL     1       3.981   4.756  16.601  0.00  0.00    +0.000 N 
ATOM      5  C   UNL     1       4.226   3.521  17.311  0.00  0.00    +0.000 C 
ATOM      6  C   UNL     1       2.946   2.751  17.586  0.00  0.00    +0.000 C 
ATOM      7  O   UNL     1       2.369   1.972  16.839  0.00  0.00    +0.000 OA
ATOM      8  C   UNL     1       2.391   3.233  18.842  0.00  0.00    +0.000 A 
ATOM      9  C   UNL     1       1.081   3.106  19.268  0.00  0.00    +0.000 A 
ATOM     10  C   UNL     1       0.684   3.909  20.329  0.00  0.00    +0.000 A 
ATOM     11  C   UNL     1       1.593   4.799  20.934  0.00  0.00    +0.000 A 
ATOM     12  C   UNL     1       2.930   4.871  20.510  0.00  0.00    +0.000 A 
ATOM     13  C   UNL     1       3.328   4.072  19.451  0.00  0.00    +0.000 A 
ATOM     14  C   UNL     1       4.662   4.025  18.723  0.00  0.00    +0.000 C 
ATOM     15  H   UNL     1       3.116   4.981  16.126  0.00  0.00    +0.000 HD
ENDROOT
BRANCH   5  16
ATOM     16  O   UNL     1       5.195   2.836  16.563  0.00  0.00    +0.000 OA
ATOM     17  H   UNL     1       6.026   3.300  16.760  0.00  0.00    +0.000 HD
ENDBRANCH   5  16
BRANCH  14  18
ATOM     18  O   UNL     1       5.580   3.220  19.426  0.00  0.00    +0.000 OA
ATOM     19  H   UNL     1       6.169   3.820  19.902  0.00  0.00    +0.000 HD
ENDBRANCH  14  18
BRANCH   1  20
ATOM     20  C   UNL     1       6.388   5.910  19.023  0.00  0.00    +0.000 C 
BRANCH  20  22
ATOM     21  C   UNL     1       7.886   7.632  17.841  0.00  0.00    +0.000 C 
ATOM     22  C   UNL     1       7.530   6.164  18.025  0.00  0.00    +0.000 C 
ENDBRANCH  20  22
ENDBRANCH   1  20
TORSDOF 4
ENDMDL
MODEL 5
REMARK VINA RESULT:      -6.8      2.084      3.529
REMARK  Name = 
REMARK  5 active torsions:
REMARK  status: ('A' for Active; 'I' for Inactive)
REMARK    1  A    between atoms: C_1  and  C_2
REMARK    2  A    between atoms: C_2  and  C_3
REMARK    3  A    between atoms: C_3  and  N_4
REMARK    4  A    between atoms: C_8  and  O_9
REMARK    5  A    between atoms: C_18  and  O_19
REMARK                            x       y       z     vdW  Elec       q    Type
REMARK                         _______ _______ _______ _____ _____    ______ ____
ROOT
ATOM      1  N   UNL     1       3.218   4.411  17.800  0.00  0.00    +0.000 N 
ATOM      2  C   UNL     1       3.397   5.718  18.252  0.00  0.00    +0.000 C 
ATOM      3  O   UNL     1       2.582   6.624  18.214  0.00  0.00    +0.000 OA
ATOM      4  N   UNL     1       4.690   5.850  18.749  0.00  0.00    +0.000 N 
ATOM      5  C   UNL     1       5.351   4.566  18.739  0.00  0.00    +0.000 C 
ATOM      6  C   UNL     1       6.723   4.628  18.091  0.00  0.00    +0.000 C 
ATOM      7  O   UNL     1       7.783   4.944  18.615  0.00  0.00    +0.000 OA
ATOM      8  C   UNL     1       6.554   4.428  16.658  0.00  0.00    +0.000 A 
ATOM      9  C   UNL     1       7.446   4.788  15.664  0.00  0.00    +0.000 A 
ATOM     10  C   UNL     1       6.961   4.810  14.362  0.00  0.00    +0.000 A 
ATOM     11  C   UNL     1       5.621   4.470  14.091  0.00  0.00    +0.000 A 
ATOM     12  C   UNL     1       4.753   4.064  15.117  0.00  0.00    +0.000 A 
ATOM     13  C   UNL     1       5.233   4.041  16.416  0.00  0.00    +0.000 A 
ATOM     14  C   UNL     1       4.497   3.755  17.714  0.00  0.00    +0.000 C 
ATOM     15  H   UNL     1       5.153   6.734  18.577  0.00  0.00    +0.000 HD
ENDROOT
BRANCH   5  16
ATOM     16  O   UNL     1       5.331   4.115  20.068  0.00  0.00    +0.000 OA
ATOM     17  H   UNL     1       4.411   4.243  20.353  0.00  0.00    +0.000 HD
ENDBRANCH   5  16
BRANCH  14  18
ATOM     18  O   UNL     1       4.400   2.366  17.931  0.00  0.00    +0.000 OA
ATOM     19  H   UNL     1       3.742   2.033  17.307  0.00  0.00    +0.000 HD
ENDBRANCH  14  18
BRANCH   1  20
ATOM     20  C   UNL     1       1.925   3.747  17.791  0.00  0.00    +0.000 C 
BRANCH  20  22
ATOM     21  C   UNL     1       1.669   2.581  20.067  0.00  0.00    +0.000 C 
ATOM     22  C   UNL     1       1.223   3.717  19.158  0.00  0.00    +0.000 C 
ENDBRANCH  20  22
ENDBRANCH   1  20
TORSDOF 4
ENDMDL
MODEL 6
REMARK VINA RESULT:      -6.7      1.773      4.355
REMARK  Name = 
REMARK  5 active torsions:
REMARK  status: ('A' for Active; 'I' for Inactive)
REMARK    1  A    between atoms: C_1  and  C_2
REMARK    2  A    between atoms: C_2  and  C_3
REMARK    3  A    between atoms: C_3  and  N_4
REMARK    4  A    between atoms: C_8  and  O_9
REMARK    5  A    between atoms: C_18  and  O_19
REMARK                            x       y       z     vdW  Elec       q    Type
REMARK                         _______ _______ _______ _____ _____    ______ ____
ROOT
ATOM      1  N   UNL     1       5.286   4.538  17.773  0.00  0.00    +0.000 N 
ATOM      2  C   UNL     1       4.449   3.646  17.103  0.00  0.00    +0.000 C 
ATOM      3  O   UNL     1       4.269   3.576  15.900  0.00  0.00    +0.000 OA
ATOM      4  N   UNL     1       3.812   2.836  18.039  0.00  0.00    +0.000 N 
ATOM      5  C   UNL     1       4.328   3.114  19.359  0.00  0.00    +0.000 C 
ATOM      6  C   UNL     1       3.223   3.353  20.372  0.00  0.00    +0.000 C 
ATOM      7  O   UNL     1       2.602   2.513  21.011  0.00  0.00    +0.000 OA
ATOM      8  C   UNL     1       2.872   4.765  20.333  0.00  0.00    +0.000 A 
ATOM      9  C   UNL     1       1.693   5.335  20.779  0.00  0.00    +0.000 A 
ATOM     10  C   UNL     1       1.423   6.631  20.358  0.00  0.00    +0.000 A 
ATOM     11  C   UNL     1       2.326   7.316  19.521  0.00  0.00    +0.000 A 
ATOM     12  C   UNL     1       3.537   6.727  19.124  0.00  0.00    +0.000 A 
ATOM     13  C   UNL     1       3.809   5.435  19.542  0.00  0.00    +0.000 A 
ATOM     14  C   UNL     1       4.972   4.525  19.179  0.00  0.00    +0.000 C 
ATOM     15  H   UNL     1       2.851   2.586  17.841  0.00  0.00    +0.000 HD
ENDROOT
BRANCH   5  16
ATOM     16  O   UNL     1       5.204   2.059  19.657  0.00  0.00    +0.000 OA
ATOM     17  H   UNL     1       6.080   2.391  19.397  0.00  0.00    +0.000 HD
ENDBRANCH   5  16
BRANCH  14  18
ATOM     18  O   UNL     1       6.094   4.815  19.979  0.00  0.00    +0.000 OA
ATOM     19  H   UNL     1       6.233   5.770  19.928  0.00  0.00    +0.000 HD
ENDBRANCH  14  18
BRANCH   1  20
ATOM     20  C   UNL     1       6.499   5.081  17.183  0.00  0.00    +0.000 C 
BRANCH  20  22
ATOM     21  C   UNL     1       7.594   7.360  17.641  0.00  0.00    +0.000 C 
ATOM     22  C   UNL     1       6.465   6.601  16.959  0.00  0.00    +0.000 C 
ENDBRANCH  20  22
ENDBRANCH   1  20
TORSDOF 4
ENDMDL
MODEL 7
REMARK VINA RESULT:      -6.7      1.780      3.472
REMARK  Name = 
REMARK  5 active torsions:
REMARK  status: ('A' for Active; 'I' for Inactive)
REMARK    1  A    between atoms: C_1  and  C_2
REMARK    2  A    between atoms: C_2  and  C_3
REMARK    3  A    between atoms: C_3  and  N_4
REMARK    4  A    between atoms: C_8  and  O_9
REMARK    5  A    between atoms: C_18  and  O_19
REMARK                            x       y       z     vdW  Elec       q    Type
REMARK                         _______ _______ _______ _____ _____    ______ ____
ROOT
ATOM      1  N   UNL     1       3.194   3.349  18.084  0.00  0.00    +0.000 N 
ATOM      2  C   UNL     1       2.216   4.273  17.716  0.00  0.00    +0.000 C 
ATOM      3  O   UNL     1       1.095   4.027  17.306  0.00  0.00    +0.000 OA
ATOM      4  N   UNL     1       2.729   5.558  17.868  0.00  0.00    +0.000 N 
ATOM      5  C   UNL     1       4.042   5.492  18.468  0.00  0.00    +0.000 C 
ATOM      6  C   UNL     1       5.068   6.309  17.702  0.00  0.00    +0.000 C 
ATOM      7  O   UNL     1       5.299   7.505  17.809  0.00  0.00    +0.000 OA
ATOM      8  C   UNL     1       5.626   5.465  16.655  0.00  0.00    +0.000 A 
ATOM      9  C   UNL     1       6.276   5.890  15.511  0.00  0.00    +0.000 A 
ATOM     10  C   UNL     1       6.437   4.957  14.495  0.00  0.00    +0.000 A 
ATOM     11  C   UNL     1       5.960   3.640  14.650  0.00  0.00    +0.000 A 
ATOM     12  C   UNL     1       5.347   3.225  15.843  0.00  0.00    +0.000 A 
ATOM     13  C   UNL     1       5.183   4.155  16.857  0.00  0.00    +0.000 A 
ATOM     14  C   UNL     1       4.466   4.015  18.190  0.00  0.00    +0.000 C 
ATOM     15  H   UNL     1       2.450   6.241  17.176  0.00  0.00    +0.000 HD
ENDROOT
BRANCH   5  16
ATOM     16  O   UNL     1       3.866   5.850  19.813  0.00  0.00    +0.000 OA
ATOM     17  H   UNL     1       3.140   6.497  19.799  0.00  0.00    +0.000 HD
ENDBRANCH   5  16
BRANCH  14  18
ATOM     18  O   UNL     1       5.309   3.409  19.143  0.00  0.00    +0.000 OA
ATOM     19  H   UNL     1       6.198   3.405  18.764  0.00  0.00    +0.000 HD
ENDBRANCH  14  18
BRANCH   1  20
ATOM     20  C   UNL     1       2.879   2.037  18.626  0.00  0.00    +0.000 C 
BRANCH  20  22
ATOM     21  C   UNL     1       2.440   2.729  21.062  0.00  0.00    +0.000 C 
ATOM     22  C   UNL     1       1.895   2.063  19.807  0.00  0.00    +0.000 C 
ENDBRANCH  20  22
ENDBRANCH   1  20
TORSDOF 4
ENDMDL
MODEL 8
REMARK VINA RESULT:      -6.6      1.678      4.092
REMARK  Name = 
REMARK  5 active torsions:
REMARK  status: ('A' for Active; 'I' for Inactive)
REMARK    1  A    between atoms: C_1  and  C_2
REMARK    2  A    between atoms: C_2  and  C_3
REMARK    3  A    between atoms: C_3  and  N_4
REMARK    4  A    between atoms: C_8  and  O_9
REMARK    5  A    between atoms: C_18  and  O_19
REMARK                            x       y       z     vdW  Elec       q    Type
REMARK                         _______ _______ _______ _____ _____    ______ ____
ROOT
ATOM      1  N   UNL     1       4.216   3.980  17.356  0.00  0.00    +0.000 N 
ATOM      2  C   UNL     1       3.006   3.286  17.327  0.00  0.00    +0.000 C 
ATOM      3  O   UNL     1       2.470   2.790  16.352  0.00  0.00    +0.000 OA
ATOM      4  N   UNL     1       2.470   3.261  18.612  0.00  0.00    +0.000 N 
ATOM      5  C   UNL     1       3.406   3.848  19.544  0.00  0.00    +0.000 C 
ATOM      6  C   UNL     1       2.756   4.896  20.430  0.00  0.00    +0.000 C 
ATOM      7  O   UNL     1       2.141   4.715  21.472  0.00  0.00    +0.000 OA
ATOM      8  C   UNL     1       2.817   6.174  19.735  0.00  0.00    +0.000 A 
ATOM      9  C   UNL     1       2.027   7.284  19.978  0.00  0.00    +0.000 A 
ATOM     10  C   UNL     1       2.017   8.274  19.004  0.00  0.00    +0.000 A 
ATOM     11  C   UNL     1       2.791   8.136  17.834  0.00  0.00    +0.000 A 
ATOM     12  C   UNL     1       3.619   7.020  17.639  0.00  0.00    +0.000 A 
ATOM     13  C   UNL     1       3.630   6.030  18.608  0.00  0.00    +0.000 A 
ATOM     14  C   UNL     1       4.335   4.683  18.607  0.00  0.00    +0.000 C 
ATOM     15  H   UNL     1       1.464   3.341  18.684  0.00  0.00    +0.000 HD
ENDROOT
BRANCH   5  16
ATOM     16  O   UNL     1       4.000   2.771  20.218  0.00  0.00    +0.000 OA
ATOM     17  H   UNL     1       4.221   3.127  21.096  0.00  0.00    +0.000 HD
ENDBRANCH   5  16
BRANCH  14  18
ATOM     18  O   UNL     1       5.676   4.828  19.013  0.00  0.00    +0.000 OA
ATOM     19  H   UNL     1       5.755   4.392  19.873  0.00  0.00    +0.000 HD
ENDBRANCH  14  18
BRANCH   1  20
ATOM     20  C   UNL     1       5.305   3.710  16.431  0.00  0.00    +0.000 C 
BRANCH  20  22
ATOM     21  C   UNL     1       5.999   4.147  13.996  0.00  0.00    +0.000 C 
ATOM     22  C   UNL     1       5.418   4.721  15.280  0.00  0.00    +0.000 C 
ENDBRANCH  20  22
ENDBRANCH   1  20
TORSDOF 4
ENDMDL
MODEL 9
REMARK VINA RESULT:      -6.6      1.855      4.302
REMARK  Name = 
REMARK  5 active torsions:
REMARK  status: ('A' for Active; 'I' for Inactive)
REMARK    1  A    between atoms: C_1  and  C_2
REMARK    2  A    between atoms: C_2  and  C_3
REMARK    3  A    between atoms: C_3  and  N_4
REMARK    4  A    between atoms: C_8  and  O_9
REMARK    5  A    between atoms: C_18  and  O_19
REMARK                            x       y       z     vdW  Elec       q    Type
REMARK                         _______ _______ _______ _____ _____    ______ ____
ROOT
ATOM      1  N   UNL     1       5.204   4.130  17.874  0.00  0.00    +0.000 N 
ATOM      2  C   UNL     1       4.503   4.064  16.670  0.00  0.00    +0.000 C 
ATOM      3  O   UNL     1       4.715   4.717  15.664  0.00  0.00    +0.000 OA
ATOM      4  N   UNL     1       3.477   3.131  16.796  0.00  0.00    +0.000 N 
ATOM      5  C   UNL     1       3.573   2.469  18.077  0.00  0.00    +0.000 C 
ATOM      6  C   UNL     1       2.249   2.460  18.821  0.00  0.00    +0.000 C 
ATOM      7  O   UNL     1       1.331   1.659  18.702  0.00  0.00    +0.000 OA
ATOM      8  C   UNL     1       2.154   3.693  19.590  0.00  0.00    +0.000 A 
ATOM      9  C   UNL     1       0.999   4.272  20.083  0.00  0.00    +0.000 A 
ATOM     10  C   UNL     1       1.086   5.595  20.497  0.00  0.00    +0.000 A 
ATOM     11  C   UNL     1       2.308   6.292  20.417  0.00  0.00    +0.000 A 
ATOM     12  C   UNL     1       3.474   5.662  19.957  0.00  0.00    +0.000 A 
ATOM     13  C   UNL     1       3.391   4.343  19.542  0.00  0.00    +0.000 A 
ATOM     14  C   UNL     1       4.452   3.460  18.904  0.00  0.00    +0.000 C 
ATOM     15  H   UNL     1       2.607   3.349  16.328  0.00  0.00    +0.000 HD
ENDROOT
BRANCH   5  16
ATOM     16  O   UNL     1       4.128   1.208  17.816  0.00  0.00    +0.000 OA
ATOM     17  H   UNL     1       3.402   0.584  17.985  0.00  0.00    +0.000 HD
ENDBRANCH   5  16
BRANCH  14  18
ATOM     18  O   UNL     1       5.283   2.896  19.892  0.00  0.00    +0.000 OA
ATOM     19  H   UNL     1       5.275   1.940  19.748  0.00  0.00    +0.000 HD
ENDBRANCH  14  18
BRANCH   1  20
ATOM     20  C   UNL     1       6.612   4.484  17.951  0.00  0.00    +0.000 C 
BRANCH  20  22
ATOM     21  C   UNL     1       7.309   6.901  17.423  0.00  0.00    +0.000 C 
ATOM     22  C   UNL     1       6.876   5.901  18.486  0.00  0.00    +0.000 C 
ENDBRANCH  20  22
ENDBRANCH   1  20
TORSDOF 4
ENDMDL
