MODEL 1
REMARK VINA RESULT:      -7.7      0.000      0.000
REMARK  Name = 
REMARK  1 active torsions:
REMARK  status: ('A' for Active; 'I' for Inactive)
REMARK    1  A    between atoms: C_11  and  N_12
REMARK                            x       y       z     vdW  Elec       q    Type
REMARK                         _______ _______ _______ _____ _____    ______ ____
ROOT
ATOM      1  C   UNL     1       0.893   3.183  20.491  0.00  0.00    +0.000 A 
ATOM      2  C   UNL     1       1.562   2.249  19.715  0.00  0.00    +0.000 A 
ATOM      3  C   UNL     1       2.524   2.664  18.791  0.00  0.00    +0.000 A 
ATOM      4  C   UNL     1       2.826   4.042  18.627  0.00  0.00    +0.000 A 
ATOM      5  C   UNL     1       2.145   4.960  19.426  0.00  0.00    +0.000 A 
ATOM      6  C   UNL     1       1.179   4.545  20.364  0.00  0.00    +0.000 A 
ATOM      7  S   UNL     1       2.643   6.569  19.095  0.00  0.00    +0.000 S 
ATOM      8  C   UNL     1       3.737   6.080  17.866  0.00  0.00    +0.000 A 
ATOM      9  C   UNL     1       4.542   6.909  17.062  0.00  0.00    +0.000 A 
ATOM     10  C   UNL     1       5.387   6.321  16.111  0.00  0.00    +0.000 A 
ATOM     11  C   UNL     1       5.466   4.936  15.958  0.00  0.00    +0.000 A 
ATOM     12  C   UNL     1       4.629   4.142  16.754  0.00  0.00    +0.000 A 
ATOM     13  C   UNL     1       3.754   4.697  17.725  0.00  0.00    +0.000 A 
ENDROOT
BRANCH  11  14
ATOM     14  N   UNL     1       6.351   4.386  15.006  0.00  0.00    +0.000 N 
ATOM     15  C   UNL     1       6.005   3.896  13.783  0.00  0.00    +0.000 C 
ATOM     16  N   UNL     1       4.834   3.851  13.210  0.00  0.00    +0.000 NA
ATOM     17  C   UNL     1       5.074   3.177  11.913  0.00  0.00    +0.000 C 
ATOM     18  C   UNL     1       6.586   3.209  11.705  0.00  0.00    +0.000 C 
ATOM     19  N   UNL     1       7.056   3.393  13.066  0.00  0.00    +0.000 N 
ATOM     20  H   UNL     1       7.171   3.958  15.407  0.00  0.00    +0.000 HD
ATOM     21  H   UNL     1       7.917   3.919  13.149  0.00  0.00    +0.000 HD
ENDBRANCH  11  14
TORSDOF 1
ENDMDL
MODEL 2
REMARK VINA RESULT:      -7.6      4.704      6.438
REMARK  Name = 
REMARK  1 active torsions:
REMARK  status: ('A' for Active; 'I' for Inactive)
REMARK    1  A    between atoms: C_11  and  N_12
REMARK                            x       y       z     vdW  Elec       q    Type
REMARK                         _______ _______ _______ _____ _____    ______ ____
ROOT
ATOM      1  C   UNL     1      -1.039  11.270  22.653  0.00  0.00    +0.000 A 
ATOM      2  C   UNL     1      -0.642  10.072  23.227  0.00  0.00    +0.000 A 
ATOM      3  C   UNL     1       0.126   9.164  22.493  0.00  0.00    +0.000 A 
ATOM      4  C   UNL     1       0.502   9.447  21.154  0.00  0.00    +0.000 A 
ATOM      5  C   UNL     1       0.096  10.662  20.604  0.00  0.00    +0.000 A 
ATOM      6  C   UNL     1      -0.672  11.585  21.342  0.00  0.00    +0.000 A 
ATOM      7  S   UNL     1       0.647  10.832  18.987  0.00  0.00    +0.000 S 
ATOM      8  C   UNL     1       1.398   9.289  18.978  0.00  0.00    +0.000 A 
ATOM      9  C   UNL     1       2.075   8.677  17.906  0.00  0.00    +0.000 A 
ATOM     10  C   UNL     1       2.636   7.406  18.093  0.00  0.00    +0.000 A 
ATOM     11  C   UNL     1       2.559   6.745  19.319  0.00  0.00    +0.000 A 
ATOM     12  C   UNL     1       1.852   7.370  20.355  0.00  0.00    +0.000 A 
ATOM     13  C   UNL     1       1.263   8.654  20.207  0.00  0.00    +0.000 A 
ENDROOT
BRANCH  11  14
ATOM     14  N   UNL     1       3.162   5.478  19.471  0.00  0.00    +0.000 N 
ATOM     15  C   UNL     1       2.578   4.278  19.200  0.00  0.00    +0.000 C 
ATOM     16  N   UNL     1       1.390   4.023  18.725  0.00  0.00    +0.000 NA
ATOM     17  C   UNL     1       1.309   2.545  18.683  0.00  0.00    +0.000 C 
ATOM     18  C   UNL     1       2.744   2.048  18.840  0.00  0.00    +0.000 C 
ATOM     19  N   UNL     1       3.375   3.197  19.462  0.00  0.00    +0.000 N 
ATOM     20  H   UNL     1       3.868   5.442  20.191  0.00  0.00    +0.000 HD
ATOM     21  H   UNL     1       4.352   3.324  19.225  0.00  0.00    +0.000 HD
ENDBRANCH  11  14
TORSDOF 1
ENDMDL
MODEL 3
REMARK VINA RESULT:      -7.5      1.381      1.473
REMARK  Name = 
REMARK  1 active torsions:
REMARK  status: ('A' for Active; 'I' for Inactive)
REMARK    1  A    between atoms: C_11  and  N_12
REMARK                            x       y       z     vdW  Elec       q    Type
REMARK                         _______ _______ _______ _____ _____    ______ ____
ROOT
ATOM      1  C   UNL     1       2.438   2.697  21.565  0.00  0.00    +0.000 A 
ATOM      2  C   UNL     1       3.494   2.156  20.847  0.00  0.00    +0.000 A 
ATOM      3  C   UNL     1       4.106   2.898  19.834  0.00  0.00    +0.000 A 
ATOM      4  C   UNL     1       3.654   4.207  19.519  0.00  0.00    +0.000 A 
ATOM      5  C   UNL     1       2.596   4.730  20.262  0.00  0.00    +0.000 A 
ATOM      6  C   UNL     1       1.981   3.988  21.290  0.00  0.00    +0.000 A 
ATOM      7  S   UNL     1       2.194   6.317  19.747  0.00  0.00    +0.000 S 
ATOM      8  C   UNL     1       3.385   6.322  18.512  0.00  0.00    +0.000 A 
ATOM      9  C   UNL     1       3.649   7.349  17.586  0.00  0.00    +0.000 A 
ATOM     10  C   UNL     1       4.678   7.175  16.650  0.00  0.00    +0.000 A 
ATOM     11  C   UNL     1       5.459   6.019  16.629  0.00  0.00    +0.000 A 
ATOM     12  C   UNL     1       5.151   5.004  17.545  0.00  0.00    +0.000 A 
ATOM     13  C   UNL     1       4.113   5.138  18.506  0.00  0.00    +0.000 A 
ENDROOT
BRANCH  11  14
ATOM     14  N   UNL     1       6.503   5.896  15.687  0.00  0.00    +0.000 N 
ATOM     15  C   UNL     1       6.502   5.082  14.595  0.00  0.00    +0.000 C 
ATOM     16  N   UNL     1       5.567   4.283  14.158  0.00  0.00    +0.000 NA
ATOM     17  C   UNL     1       6.153   3.635  12.962  0.00  0.00    +0.000 C 
ATOM     18  C   UNL     1       7.377   4.472  12.597  0.00  0.00    +0.000 C 
ATOM     19  N   UNL     1       7.654   5.134  13.858  0.00  0.00    +0.000 N 
ATOM     20  H   UNL     1       7.420   6.084  16.062  0.00  0.00    +0.000 HD
ATOM     21  H   UNL     1       8.061   6.057  13.772  0.00  0.00    +0.000 HD
ENDBRANCH  11  14
TORSDOF 1
ENDMDL
MODEL 4
REMARK VINA RESULT:      -7.4      4.327      7.367
REMARK  Name = 
REMARK  1 active torsions:
REMARK  status: ('A' for Active; 'I' for Inactive)
REMARK    1  A    between atoms: C_11  and  N_12
REMARK                            x       y       z     vdW  Elec       q    Type
REMARK                         _______ _______ _______ _____ _____    ______ ____
ROOT
ATOM      1  C   UNL     1       5.776   4.891  15.088  0.00  0.00    +0.000 A 
ATOM      2  C   UNL     1       5.650   6.178  15.588  0.00  0.00    +0.000 A 
ATOM      3  C   UNL     1       4.857   6.417  16.713  0.00  0.00    +0.000 A 
ATOM      4  C   UNL     1       4.166   5.356  17.354  0.00  0.00    +0.000 A 
ATOM      5  C   UNL     1       4.317   4.070  16.835  0.00  0.00    +0.000 A 
ATOM      6  C   UNL     1       5.122   3.822  15.705  0.00  0.00    +0.000 A 
ATOM      7  S   UNL     1       3.419   2.921  17.739  0.00  0.00    +0.000 S 
ATOM      8  C   UNL     1       2.787   4.108  18.805  0.00  0.00    +0.000 A 
ATOM      9  C   UNL     1       1.884   3.908  19.866  0.00  0.00    +0.000 A 
ATOM     10  C   UNL     1       1.487   5.008  20.639  0.00  0.00    +0.000 A 
ATOM     11  C   UNL     1       1.983   6.290  20.397  0.00  0.00    +0.000 A 
ATOM     12  C   UNL     1       2.857   6.458  19.314  0.00  0.00    +0.000 A 
ATOM     13  C   UNL     1       3.280   5.372  18.502  0.00  0.00    +0.000 A 
ENDROOT
BRANCH  11  14
ATOM     14  N   UNL     1       1.577   7.364  21.217  0.00  0.00    +0.000 N 
ATOM     15  C   UNL     1       1.240   8.613  20.790  0.00  0.00    +0.000 C 
ATOM     16  N   UNL     1       1.180   9.084  19.574  0.00  0.00    +0.000 NA
ATOM     17  C   UNL     1       0.795  10.505  19.740  0.00  0.00    +0.000 C 
ATOM     18  C   UNL     1       0.288  10.631  21.174  0.00  0.00    +0.000 C 
ATOM     19  N   UNL     1       0.910   9.477  21.797  0.00  0.00    +0.000 N 
ATOM     20  H   UNL     1       1.958   7.335  22.151  0.00  0.00    +0.000 HD
ATOM     21  H   UNL     1       0.377   9.065  22.553  0.00  0.00    +0.000 HD
ENDBRANCH  11  14
TORSDOF 1
ENDMDL
MODEL 5
REMARK VINA RESULT:      -7.3      2.064      3.107
REMARK  Name = 
REMARK  1 active torsions:
REMARK  status: ('A' for Active; 'I' for Inactive)
REMARK    1  A    between atoms: C_11  and  N_12
REMARK                            x       y       z     vdW  Elec       q    Type
REMARK                         _______ _______ _______ _____ _____    ______ ____
ROOT
ATOM      1  C   UNL     1       1.106   8.785  19.538  0.00  0.00    +0.000 A 
ATOM      2  C   UNL     1       1.673   9.260  18.365  0.00  0.00    +0.000 A 
ATOM      3  C   UNL     1       2.687   8.535  17.733  0.00  0.00    +0.000 A 
ATOM      4  C   UNL     1       3.156   7.312  18.282  0.00  0.00    +0.000 A 
ATOM      5  C   UNL     1       2.563   6.854  19.458  0.00  0.00    +0.000 A 
ATOM      6  C   UNL     1       1.535   7.577  20.095  0.00  0.00    +0.000 A 
ATOM      7  S   UNL     1       3.249   5.365  19.966  0.00  0.00    +0.000 S 
ATOM      8  C   UNL     1       4.365   5.323  18.663  0.00  0.00    +0.000 A 
ATOM      9  C   UNL     1       5.349   4.348  18.413  0.00  0.00    +0.000 A 
ATOM     10  C   UNL     1       6.166   4.479  17.282  0.00  0.00    +0.000 A 
ATOM     11  C   UNL     1       6.013   5.540  16.388  0.00  0.00    +0.000 A 
ATOM     12  C   UNL     1       5.044   6.509  16.683  0.00  0.00    +0.000 A 
ATOM     13  C   UNL     1       4.199   6.417  17.821  0.00  0.00    +0.000 A 
ENDROOT
BRANCH  11  14
ATOM     14  N   UNL     1       6.841   5.619  15.248  0.00  0.00    +0.000 N 
ATOM     15  C   UNL     1       6.723   4.862  14.122  0.00  0.00    +0.000 C 
ATOM     16  N   UNL     1       5.839   3.949  13.825  0.00  0.00    +0.000 NA
ATOM     17  C   UNL     1       6.244   3.451  12.490  0.00  0.00    +0.000 C 
ATOM     18  C   UNL     1       7.233   4.479  11.948  0.00  0.00    +0.000 C 
ATOM     19  N   UNL     1       7.675   5.121  13.173  0.00  0.00    +0.000 N 
ATOM     20  H   UNL     1       7.781   5.928  15.442  0.00  0.00    +0.000 HD
ATOM     21  H   UNL     1       7.921   6.098  13.075  0.00  0.00    +0.000 HD
ENDBRANCH  11  14
TORSDOF 1
ENDMDL
MODEL 6
REMARK VINA RESULT:      -7.0      4.359      6.368
REMARK  Name = 
REMARK  1 active torsions:
REMARK  status: ('A' for Active; 'I' for Inactive)
REMARK    1  A    between atoms: C_11  and  N_12
REMARK                            x       y       z     vdW  Elec       q    Type
REMARK                         _______ _______ _______ _____ _____    ______ ____
ROOT
ATOM      1  C   UNL     1       2.382   2.291  21.303  0.00  0.00    +0.000 A 
ATOM      2  C   UNL     1       1.366   3.232  21.378  0.00  0.00    +0.000 A 
ATOM      3  C   UNL     1       1.447   4.411  20.631  0.00  0.00    +0.000 A 
ATOM      4  C   UNL     1       2.567   4.667  19.797  0.00  0.00    +0.000 A 
ATOM      5  C   UNL     1       3.570   3.700  19.735  0.00  0.00    +0.000 A 
ATOM      6  C   UNL     1       3.490   2.506  20.479  0.00  0.00    +0.000 A 
ATOM      7  S   UNL     1       4.833   4.177  18.676  0.00  0.00    +0.000 S 
ATOM      8  C   UNL     1       4.093   5.682  18.313  0.00  0.00    +0.000 A 
ATOM      9  C   UNL     1       4.593   6.701  17.480  0.00  0.00    +0.000 A 
ATOM     10  C   UNL     1       3.834   7.864  17.296  0.00  0.00    +0.000 A 
ATOM     11  C   UNL     1       2.587   8.028  17.900  0.00  0.00    +0.000 A 
ATOM     12  C   UNL     1       2.133   7.008  18.746  0.00  0.00    +0.000 A 
ATOM     13  C   UNL     1       2.873   5.815  18.965  0.00  0.00    +0.000 A 
ENDROOT
BRANCH  11  14
ATOM     14  N   UNL     1       1.845   9.204  17.665  0.00  0.00    +0.000 N 
ATOM     15  C   UNL     1       1.134   9.900  18.597  0.00  0.00    +0.000 C 
ATOM     16  N   UNL     1       1.003   9.676  19.875  0.00  0.00    +0.000 NA
ATOM     17  C   UNL     1       0.086  10.737  20.352  0.00  0.00    +0.000 C 
ATOM     18  C   UNL     1       0.046  11.780  19.238  0.00  0.00    +0.000 C 
ATOM     19  N   UNL     1       0.480  10.993  18.098  0.00  0.00    +0.000 N 
ATOM     20  H   UNL     1       1.485   9.284  16.726  0.00  0.00    +0.000 HD
ATOM     21  H   UNL     1       0.994  11.512  17.396  0.00  0.00    +0.000 HD
ENDBRANCH  11  14
TORSDOF 1
ENDMDL
MODEL 7
REMARK VINA RESULT:      -6.9      3.911      5.504
REMARK  Name = 
REMARK  1 active torsions:
REMARK  status: ('A' for Active; 'I' for Inactive)
REMARK    1  A    between atoms: C_11  and  N_12
REMARK                            x       y       z     vdW  Elec       q    Type
REMARK                         _______ _______ _______ _____ _____    ______ ____
ROOT
ATOM      1  C   UNL     1      -0.516  10.634  21.554  0.00  0.00    +0.000 A 
ATOM      2  C   UNL     1      -0.198   9.471  22.239  0.00  0.00    +0.000 A 
ATOM      3  C   UNL     1       0.650   8.526  21.657  0.00  0.00    +0.000 A 
ATOM      4  C   UNL     1       1.190   8.734  20.360  0.00  0.00    +0.000 A 
ATOM      5  C   UNL     1       0.860   9.916  19.698  0.00  0.00    +0.000 A 
ATOM      6  C   UNL     1       0.011  10.876  20.283  0.00  0.00    +0.000 A 
ATOM      7  S   UNL     1       1.606   9.997  18.154  0.00  0.00    +0.000 S 
ATOM      8  C   UNL     1       2.345   8.457  18.323  0.00  0.00    +0.000 A 
ATOM      9  C   UNL     1       3.146   7.787  17.379  0.00  0.00    +0.000 A 
ATOM     10  C   UNL     1       3.674   6.530  17.704  0.00  0.00    +0.000 A 
ATOM     11  C   UNL     1       3.443   5.938  18.946  0.00  0.00    +0.000 A 
ATOM     12  C   UNL     1       2.617   6.619  19.851  0.00  0.00    +0.000 A 
ATOM     13  C   UNL     1       2.057   7.891  19.560  0.00  0.00    +0.000 A 
ENDROOT
BRANCH  11  14
ATOM     14  N   UNL     1       4.016   4.683  19.241  0.00  0.00    +0.000 N 
ATOM     15  C   UNL     1       3.555   3.474  18.816  0.00  0.00    +0.000 C 
ATOM     16  N   UNL     1       2.542   3.200  18.041  0.00  0.00    +0.000 NA
ATOM     17  C   UNL     1       2.512   1.721  17.968  0.00  0.00    +0.000 C 
ATOM     18  C   UNL     1       3.867   1.254  18.493  0.00  0.00    +0.000 C 
ATOM     19  N   UNL     1       4.283   2.408  19.270  0.00  0.00    +0.000 N 
ATOM     20  H   UNL     1       4.508   4.652  20.122  0.00  0.00    +0.000 HD
ATOM     21  H   UNL     1       5.283   2.559  19.301  0.00  0.00    +0.000 HD
ENDBRANCH  11  14
TORSDOF 1
ENDMDL
MODEL 8
REMARK VINA RESULT:      -6.9      5.237      7.135
REMARK  Name = 
REMARK  1 active torsions:
REMARK  status: ('A' for Active; 'I' for Inactive)
REMARK    1  A    between atoms: C_11  and  N_12
REMARK                            x       y       z     vdW  Elec       q    Type
REMARK                         _______ _______ _______ _____ _____    ______ ____
ROOT
ATOM      1  C   UNL     1       3.160   2.577  20.704  0.00  0.00    +0.000 A 
ATOM      2  C   UNL     1       2.340   3.344  21.520  0.00  0.00    +0.000 A 
ATOM      3  C   UNL     1       2.027   4.657  21.161  0.00  0.00    +0.000 A 
ATOM      4  C   UNL     1       2.546   5.229  19.969  0.00  0.00    +0.000 A 
ATOM      5  C   UNL     1       3.360   4.433  19.164  0.00  0.00    +0.000 A 
ATOM      6  C   UNL     1       3.673   3.105  19.517  0.00  0.00    +0.000 A 
ATOM      7  S   UNL     1       3.885   5.285  17.770  0.00  0.00    +0.000 S 
ATOM      8  C   UNL     1       3.075   6.727  18.227  0.00  0.00    +0.000 A 
ATOM      9  C   UNL     1       3.072   7.958  17.543  0.00  0.00    +0.000 A 
ATOM     10  C   UNL     1       2.338   9.029  18.071  0.00  0.00    +0.000 A 
ATOM     11  C   UNL     1       1.593   8.898  19.243  0.00  0.00    +0.000 A 
ATOM     12  C   UNL     1       1.642   7.668  19.915  0.00  0.00    +0.000 A 
ATOM     13  C   UNL     1       2.378   6.560  19.418  0.00  0.00    +0.000 A 
ENDROOT
BRANCH  11  14
ATOM     14  N   UNL     1       0.847   9.994  19.725  0.00  0.00    +0.000 N 
ATOM     15  C   UNL     1      -0.262  10.525  19.138  0.00  0.00    +0.000 C 
ATOM     16  N   UNL     1      -0.891  10.146  18.060  0.00  0.00    +0.000 NA
ATOM     17  C   UNL     1      -1.991  11.124  17.900  0.00  0.00    +0.000 C 
ATOM     18  C   UNL     1      -2.097  11.849  19.240  0.00  0.00    +0.000 C 
ATOM     19  N   UNL     1      -0.779  11.607  19.798  0.00  0.00    +0.000 N 
ATOM     20  H   UNL     1       1.386  10.654  20.264  0.00  0.00    +0.000 HD
ATOM     21  H   UNL     1      -0.753  11.539  20.808  0.00  0.00    +0.000 HD
ENDBRANCH  11  14
TORSDOF 1
ENDMDL
MODEL 9
REMARK VINA RESULT:      -6.9      4.363      5.833
REMARK  Name = 
REMARK  1 active torsions:
REMARK  status: ('A' for Active; 'I' for Inactive)
REMARK    1  A    between atoms: C_11  and  N_12
REMARK                            x       y       z     vdW  Elec       q    Type
REMARK                         _______ _______ _______ _____ _____    ______ ____
ROOT
ATOM      1  C   UNL     1      -0.897  10.753  22.966  0.00  0.00    +0.000 A 
ATOM      2  C   UNL     1      -0.263   9.585  23.361  0.00  0.00    +0.000 A 
ATOM      3  C   UNL     1       0.507   8.862  22.446  0.00  0.00    +0.000 A 
ATOM      4  C   UNL     1       0.645   9.303  21.103  0.00  0.00    +0.000 A 
ATOM      5  C   UNL     1       0.003  10.485  20.735  0.00  0.00    +0.000 A 
ATOM      6  C   UNL     1      -0.768  11.223  21.656  0.00  0.00    +0.000 A 
ATOM      7  S   UNL     1       0.288  10.864  19.085  0.00  0.00    +0.000 S 
ATOM      8  C   UNL     1       1.230   9.454  18.824  0.00  0.00    +0.000 A 
ATOM      9  C   UNL     1       1.822   9.035  17.617  0.00  0.00    +0.000 A 
ATOM     10  C   UNL     1       2.571   7.850  17.601  0.00  0.00    +0.000 A 
ATOM     11  C   UNL     1       2.761   7.089  18.755  0.00  0.00    +0.000 A 
ATOM     12  C   UNL     1       2.133   7.519  19.932  0.00  0.00    +0.000 A 
ATOM     13  C   UNL     1       1.361   8.710  19.991  0.00  0.00    +0.000 A 
ENDROOT
BRANCH  11  14
ATOM     14  N   UNL     1       3.544   5.917  18.699  0.00  0.00    +0.000 N 
ATOM     15  C   UNL     1       4.790   5.813  18.158  0.00  0.00    +0.000 C 
ATOM     16  N   UNL     1       5.538   6.736  17.619  0.00  0.00    +0.000 NA
ATOM     17  C   UNL     1       6.760   6.023  17.179  0.00  0.00    +0.000 C 
ATOM     18  C   UNL     1       6.729   4.673  17.893  0.00  0.00    +0.000 C 
ATOM     19  N   UNL     1       5.318   4.552  18.210  0.00  0.00    +0.000 N 
ATOM     20  H   UNL     1       3.006   5.064  18.666  0.00  0.00    +0.000 HD
ATOM     21  H   UNL     1       5.117   4.042  19.061  0.00  0.00    +0.000 HD
ENDBRANCH  11  14
TORSDOF 1
ENDMDL
