MODEL 1
REMARK VINA RESULT:      -7.6      0.000      0.000
REMARK  Name = 
REMARK  5 active torsions:
REMARK  status: ('A' for Active; 'I' for Inactive)
REMARK    1  A    between atoms: C_1  and  N_2
REMARK    2  A    between atoms: N_2  and  C_3
REMARK    3  A    between atoms: N_9  and  C_10
REMARK    4  A    between atoms: C_16  and  C_17
REMARK    5  A    between atoms: N_19  and  C_20
REMARK                            x       y       z     vdW  Elec       q    Type
REMARK                         _______ _______ _______ _____ _____    ______ ____
ROOT
ATOM      1  C   UNL     1       3.557   5.124  18.935  0.00  0.00    +0.000 A 
ATOM      2  C   UNL     1       3.343   4.114  19.853  0.00  0.00    +0.000 A 
ATOM      3  C   UNL     1       2.461   4.600  20.852  0.00  0.00    +0.000 A 
ATOM      4  C   UNL     1       2.114   5.887  20.505  0.00  0.00    +0.000 A 
ATOM      5  C   UNL     1       1.261   6.879  21.077  0.00  0.00    +0.000 A 
ATOM      6  C   UNL     1       1.109   8.076  20.469  0.00  0.00    +0.000 A 
ATOM      7  C   UNL     1       1.791   8.377  19.215  0.00  0.00    +0.000 A 
ATOM      8  C   UNL     1       2.569   7.430  18.677  0.00  0.00    +0.000 A 
ATOM      9  N   UNL     1       2.764   6.206  19.319  0.00  0.00    +0.000 N 
ENDROOT
BRANCH   1  18
ATOM     10  C   UNL     1       7.350   4.335  12.251  0.00  0.00    +0.000 C 
ATOM     11  N   UNL     1       6.522   4.169  13.435  0.00  0.00    +0.000 N 
ATOM     12  C   UNL     1       5.171   3.688  13.186  0.00  0.00    +0.000 C 
ATOM     13  C   UNL     1       6.944   4.863  14.563  0.00  0.00    +0.000 C 
ATOM     14  O   UNL     1       7.932   5.601  14.501  0.00  0.00    +0.000 OA
ATOM     15  N   UNL     1       6.235   4.758  15.737  0.00  0.00    +0.000 N 
ATOM     16  C   UNL     1       6.526   5.692  16.844  0.00  0.00    +0.000 C 
ATOM     17  C   UNL     1       5.224   6.252  17.476  0.00  0.00    +0.000 C 
ATOM     18  N   UNL     1       4.313   5.139  17.799  0.00  0.00    +0.000 N 
ATOM     19  C   UNL     1       4.016   4.261  16.654  0.00  0.00    +0.000 C 
ATOM     20  C   UNL     1       5.347   3.671  16.164  0.00  0.00    +0.000 C 
ENDBRANCH   1  18
BRANCH   7  21
ATOM     21  C   UNL     1       1.782   9.678  18.480  0.00  0.00    +0.000 C 
ATOM     22  O   UNL     1       2.144   9.746  17.308  0.00  0.00    +0.000 OA
ATOM     23  N   UNL     1       1.315  10.771  19.180  0.00  0.00    +0.000 N 
ATOM     24  H   UNL     1       0.974  10.659  20.123  0.00  0.00    +0.000 HD
BRANCH  23  25
ATOM     25  C   UNL     1       1.189  12.046  18.542  0.00  0.00    +0.000 C 
ATOM     26  C   UNL     1       1.067  13.290  19.379  0.00  0.00    +0.000 C 
ATOM     27  C   UNL     1       2.301  13.052  18.558  0.00  0.00    +0.000 C 
ENDBRANCH  23  25
ENDBRANCH   7  21
TORSDOF 3
ENDMDL
MODEL 2
REMARK VINA RESULT:      -7.2      1.102      1.318
REMARK  Name = 
REMARK  5 active torsions:
REMARK  status: ('A' for Active; 'I' for Inactive)
REMARK    1  A    between atoms: C_1  and  N_2
REMARK    2  A    between atoms: N_2  and  C_3
REMARK    3  A    between atoms: N_9  and  C_10
REMARK    4  A    between atoms: C_16  and  C_17
REMARK    5  A    between atoms: N_19  and  C_20
REMARK                            x       y       z     vdW  Elec       q    Type
REMARK                         _______ _______ _______ _____ _____    ______ ____
ROOT
ATOM      1  C   UNL     1       4.185   4.137  18.680  0.00  0.00    +0.000 A 
ATOM      2  C   UNL     1       4.152   2.996  19.460  0.00  0.00    +0.000 A 
ATOM      3  C   UNL     1       3.290   3.234  20.561  0.00  0.00    +0.000 A 
ATOM      4  C   UNL     1       2.774   4.503  20.414  0.00  0.00    +0.000 A 
ATOM      5  C   UNL     1       1.853   5.298  21.161  0.00  0.00    +0.000 A 
ATOM      6  C   UNL     1       1.522   6.536  20.734  0.00  0.00    +0.000 A 
ATOM      7  C   UNL     1       2.078   7.081  19.499  0.00  0.00    +0.000 A 
ATOM      8  C   UNL     1       2.922   6.316  18.796  0.00  0.00    +0.000 A 
ATOM      9  N   UNL     1       3.300   5.053  19.251  0.00  0.00    +0.000 N 
ENDROOT
BRANCH   1  18
ATOM     10  C   UNL     1       7.542   4.731  11.748  0.00  0.00    +0.000 C 
ATOM     11  N   UNL     1       6.816   4.311  12.936  0.00  0.00    +0.000 N 
ATOM     12  C   UNL     1       5.492   3.759  12.691  0.00  0.00    +0.000 C 
ATOM     13  C   UNL     1       7.262   4.855  14.135  0.00  0.00    +0.000 C 
ATOM     14  O   UNL     1       8.183   5.677  14.135  0.00  0.00    +0.000 OA
ATOM     15  N   UNL     1       6.648   4.507  15.316  0.00  0.00    +0.000 N 
ATOM     16  C   UNL     1       6.945   5.280  16.540  0.00  0.00    +0.000 C 
ATOM     17  C   UNL     1       5.652   5.619  17.328  0.00  0.00    +0.000 C 
ATOM     18  N   UNL     1       4.854   4.394  17.520  0.00  0.00    +0.000 N 
ATOM     19  C   UNL     1       4.545   3.682  16.268  0.00  0.00    +0.000 C 
ATOM     20  C   UNL     1       5.880   3.293  15.613  0.00  0.00    +0.000 C 
ENDBRANCH   1  18
BRANCH   7  21
ATOM     21  C   UNL     1       1.868   8.456  18.953  0.00  0.00    +0.000 C 
ATOM     22  O   UNL     1       2.332   8.782  17.863  0.00  0.00    +0.000 OA
ATOM     23  N   UNL     1       1.105   9.309  19.724  0.00  0.00    +0.000 N 
ATOM     24  H   UNL     1       0.696   8.982  20.586  0.00  0.00    +0.000 HD
BRANCH  23  25
ATOM     25  C   UNL     1       0.777  10.620  19.253  0.00  0.00    +0.000 C 
ATOM     26  C   UNL     1      -0.488  11.287  19.723  0.00  0.00    +0.000 C 
ATOM     27  C   UNL     1       0.850  11.822  20.146  0.00  0.00    +0.000 C 
ENDBRANCH  23  25
ENDBRANCH   7  21
TORSDOF 3
ENDMDL
MODEL 3
REMARK VINA RESULT:      -7.0      2.715      7.198
REMARK  Name = 
REMARK  5 active torsions:
REMARK  status: ('A' for Active; 'I' for Inactive)
REMARK    1  A    between atoms: C_1  and  N_2
REMARK    2  A    between atoms: N_2  and  C_3
REMARK    3  A    between atoms: N_9  and  C_10
REMARK    4  A    between atoms: C_16  and  C_17
REMARK    5  A    between atoms: N_19  and  C_20
REMARK                            x       y       z     vdW  Elec       q    Type
REMARK                         _______ _______ _______ _____ _____    ______ ____
ROOT
ATOM      1  C   UNL     1       1.867   5.661  20.011  0.00  0.00    +0.000 A 
ATOM      2  C   UNL     1       0.906   4.786  20.482  0.00  0.00    +0.000 A 
ATOM      3  C   UNL     1       1.455   3.478  20.478  0.00  0.00    +0.000 A 
ATOM      4  C   UNL     1       2.760   3.580  20.047  0.00  0.00    +0.000 A 
ATOM      5  C   UNL     1       3.822   2.646  19.853  0.00  0.00    +0.000 A 
ATOM      6  C   UNL     1       5.030   3.071  19.425  0.00  0.00    +0.000 A 
ATOM      7  C   UNL     1       5.286   4.485  19.171  0.00  0.00    +0.000 A 
ATOM      8  C   UNL     1       4.288   5.353  19.379  0.00  0.00    +0.000 A 
ATOM      9  N   UNL     1       3.025   4.918  19.781  0.00  0.00    +0.000 N 
ENDROOT
BRANCH   1  18
ATOM     10  C   UNL     1       1.025  13.339  19.900  0.00  0.00    +0.000 C 
ATOM     11  N   UNL     1       0.948  11.913  20.170  0.00  0.00    +0.000 N 
ATOM     12  C   UNL     1       1.030  11.541  21.575  0.00  0.00    +0.000 C 
ATOM     13  C   UNL     1       1.230  11.082  19.090  0.00  0.00    +0.000 C 
ATOM     14  O   UNL     1       1.569  11.570  18.008  0.00  0.00    +0.000 OA
ATOM     15  N   UNL     1       1.169   9.717  19.243  0.00  0.00    +0.000 N 
ATOM     16  C   UNL     1       1.721   8.846  18.184  0.00  0.00    +0.000 C 
ATOM     17  C   UNL     1       2.579   7.698  18.778  0.00  0.00    +0.000 C 
ATOM     18  N   UNL     1       1.821   7.014  19.842  0.00  0.00    +0.000 N 
ATOM     19  C   UNL     1       1.330   7.916  20.898  0.00  0.00    +0.000 C 
ATOM     20  C   UNL     1       0.407   8.949  20.234  0.00  0.00    +0.000 C 
ENDBRANCH   1  18
BRANCH   7  21
ATOM     21  C   UNL     1       6.538   5.084  18.620  0.00  0.00    +0.000 C 
ATOM     22  O   UNL     1       7.537   4.396  18.424  0.00  0.00    +0.000 OA
ATOM     23  N   UNL     1       6.490   6.430  18.318  0.00  0.00    +0.000 N 
ATOM     24  H   UNL     1       5.631   6.945  18.441  0.00  0.00    +0.000 HD
BRANCH  23  25
ATOM     25  C   UNL     1       7.609   7.082  17.710  0.00  0.00    +0.000 C 
ATOM     26  C   UNL     1       7.569   8.567  17.470  0.00  0.00    +0.000 C 
ATOM     27  C   UNL     1       8.512   7.992  18.487  0.00  0.00    +0.000 C 
ENDBRANCH  23  25
ENDBRANCH   7  21
TORSDOF 3
ENDMDL
MODEL 4
REMARK VINA RESULT:      -6.8      3.155      6.530
REMARK  Name = 
REMARK  5 active torsions:
REMARK  status: ('A' for Active; 'I' for Inactive)
REMARK    1  A    between atoms: C_1  and  N_2
REMARK    2  A    between atoms: N_2  and  C_3
REMARK    3  A    between atoms: N_9  and  C_10
REMARK    4  A    between atoms: C_16  and  C_17
REMARK    5  A    between atoms: N_19  and  C_20
REMARK                            x       y       z     vdW  Elec       q    Type
REMARK                         _______ _______ _______ _____ _____    ______ ____
ROOT
ATOM      1  C   UNL     1       3.420   5.441  18.501  0.00  0.00    +0.000 A 
ATOM      2  C   UNL     1       2.573   6.442  18.937  0.00  0.00    +0.000 A 
ATOM      3  C   UNL     1       1.977   6.024  20.153  0.00  0.00    +0.000 A 
ATOM      4  C   UNL     1       2.503   4.790  20.467  0.00  0.00    +0.000 A 
ATOM      5  C   UNL     1       2.327   3.876  21.551  0.00  0.00    +0.000 A 
ATOM      6  C   UNL     1       3.023   2.720  21.583  0.00  0.00    +0.000 A 
ATOM      7  C   UNL     1       3.978   2.383  20.531  0.00  0.00    +0.000 A 
ATOM      8  C   UNL     1       4.150   3.259  19.533  0.00  0.00    +0.000 A 
ATOM      9  N   UNL     1       3.405   4.437  19.471  0.00  0.00    +0.000 N 
ENDROOT
BRANCH   1  18
ATOM     10  C   UNL     1       7.480   4.198  12.047  0.00  0.00    +0.000 C 
ATOM     11  N   UNL     1       6.608   4.112  13.207  0.00  0.00    +0.000 N 
ATOM     12  C   UNL     1       5.271   3.601  12.942  0.00  0.00    +0.000 C 
ATOM     13  C   UNL     1       6.979   4.891  14.297  0.00  0.00    +0.000 C 
ATOM     14  O   UNL     1       7.964   5.632  14.219  0.00  0.00    +0.000 OA
ATOM     15  N   UNL     1       6.225   4.866  15.447  0.00  0.00    +0.000 N 
ATOM     16  C   UNL     1       6.466   5.882  16.492  0.00  0.00    +0.000 C 
ATOM     17  C   UNL     1       5.136   6.474  17.030  0.00  0.00    +0.000 C 
ATOM     18  N   UNL     1       4.220   5.379  17.398  0.00  0.00    +0.000 N 
ATOM     19  C   UNL     1       3.975   4.416  16.310  0.00  0.00    +0.000 C 
ATOM     20  C   UNL     1       5.329   3.804  15.918  0.00  0.00    +0.000 C 
ENDBRANCH   1  18
BRANCH   7  21
ATOM     21  C   UNL     1       4.749   1.112  20.395  0.00  0.00    +0.000 C 
ATOM     22  O   UNL     1       4.791   0.507  19.326  0.00  0.00    +0.000 OA
ATOM     23  N   UNL     1       5.429   0.687  21.518  0.00  0.00    +0.000 N 
ATOM     24  H   UNL     1       5.414   1.244  22.359  0.00  0.00    +0.000 HD
BRANCH  23  25
ATOM     25  C   UNL     1       6.264  -0.475  21.469  0.00  0.00    +0.000 C 
ATOM     26  C   UNL     1       7.346  -0.659  22.498  0.00  0.00    +0.000 C 
ATOM     27  C   UNL     1       6.153  -1.571  22.487  0.00  0.00    +0.000 C 
ENDBRANCH  23  25
ENDBRANCH   7  21
TORSDOF 3
ENDMDL
MODEL 5
REMARK VINA RESULT:      -6.8      2.316      7.267
REMARK  Name = 
REMARK  5 active torsions:
REMARK  status: ('A' for Active; 'I' for Inactive)
REMARK    1  A    between atoms: C_1  and  N_2
REMARK    2  A    between atoms: N_2  and  C_3
REMARK    3  A    between atoms: N_9  and  C_10
REMARK    4  A    between atoms: C_16  and  C_17
REMARK    5  A    between atoms: N_19  and  C_20
REMARK                            x       y       z     vdW  Elec       q    Type
REMARK                         _______ _______ _______ _____ _____    ______ ____
ROOT
ATOM      1  C   UNL     1       2.361   5.938  18.249  0.00  0.00    +0.000 A 
ATOM      2  C   UNL     1       1.525   4.839  18.309  0.00  0.00    +0.000 A 
ATOM      3  C   UNL     1       2.238   3.710  17.832  0.00  0.00    +0.000 A 
ATOM      4  C   UNL     1       3.516   4.127  17.529  0.00  0.00    +0.000 A 
ATOM      5  C   UNL     1       4.689   3.476  17.041  0.00  0.00    +0.000 A 
ATOM      6  C   UNL     1       5.829   4.176  16.861  0.00  0.00    +0.000 A 
ATOM      7  C   UNL     1       5.898   5.600  17.174  0.00  0.00    +0.000 A 
ATOM      8  C   UNL     1       4.797   6.194  17.654  0.00  0.00    +0.000 A 
ATOM      9  N   UNL     1       3.604   5.487  17.804  0.00  0.00    +0.000 N 
ENDROOT
BRANCH   1  18
ATOM     10  C   UNL     1       0.677  12.910  21.119  0.00  0.00    +0.000 C 
ATOM     11  N   UNL     1       0.804  11.488  20.842  0.00  0.00    +0.000 N 
ATOM     12  C   UNL     1       1.162  10.662  21.985  0.00  0.00    +0.000 C 
ATOM     13  C   UNL     1       0.988  11.151  19.505  0.00  0.00    +0.000 C 
ATOM     14  O   UNL     1       1.083  12.039  18.653  0.00  0.00    +0.000 OA
ATOM     15  N   UNL     1       1.104   9.830  19.141  0.00  0.00    +0.000 N 
ATOM     16  C   UNL     1       1.560   9.494  17.777  0.00  0.00    +0.000 C 
ATOM     17  C   UNL     1       2.627   8.367  17.793  0.00  0.00    +0.000 C 
ATOM     18  N   UNL     1       2.139   7.236  18.604  0.00  0.00    +0.000 N 
ATOM     19  C   UNL     1       1.738   7.612  19.971  0.00  0.00    +0.000 C 
ATOM     20  C   UNL     1       0.609   8.648  19.855  0.00  0.00    +0.000 C 
ENDBRANCH   1  18
BRANCH   7  21
ATOM     21  C   UNL     1       7.059   6.513  16.948  0.00  0.00    +0.000 C 
ATOM     22  O   UNL     1       7.815   6.351  15.993  0.00  0.00    +0.000 OA
ATOM     23  N   UNL     1       7.203   7.551  17.845  0.00  0.00    +0.000 N 
ATOM     24  H   UNL     1       6.526   7.680  18.582  0.00  0.00    +0.000 HD
BRANCH  23  25
ATOM     25  C   UNL     1       8.234   8.528  17.670  0.00  0.00    +0.000 C 
ATOM     26  C   UNL     1       7.924   9.985  17.880  0.00  0.00    +0.000 C 
ATOM     27  C   UNL     1       8.833   9.263  18.831  0.00  0.00    +0.000 C 
ENDBRANCH  23  25
ENDBRANCH   7  21
TORSDOF 3
ENDMDL
MODEL 6
REMARK VINA RESULT:      -6.8      1.576      7.382
REMARK  Name = 
REMARK  5 active torsions:
REMARK  status: ('A' for Active; 'I' for Inactive)
REMARK    1  A    between atoms: C_1  and  N_2
REMARK    2  A    between atoms: N_2  and  C_3
REMARK    3  A    between atoms: N_9  and  C_10
REMARK    4  A    between atoms: C_16  and  C_17
REMARK    5  A    between atoms: N_19  and  C_20
REMARK                            x       y       z     vdW  Elec       q    Type
REMARK                         _______ _______ _______ _____ _____    ______ ____
ROOT
ATOM      1  C   UNL     1       1.979   5.724  20.096  0.00  0.00    +0.000 A 
ATOM      2  C   UNL     1       1.118   5.078  20.963  0.00  0.00    +0.000 A 
ATOM      3  C   UNL     1       1.473   3.706  21.005  0.00  0.00    +0.000 A 
ATOM      4  C   UNL     1       2.577   3.542  20.196  0.00  0.00    +0.000 A 
ATOM      5  C   UNL     1       3.401   2.429  19.847  0.00  0.00    +0.000 A 
ATOM      6  C   UNL     1       4.454   2.598  19.019  0.00  0.00    +0.000 A 
ATOM      7  C   UNL     1       4.786   3.913  18.479  0.00  0.00    +0.000 A 
ATOM      8  C   UNL     1       4.020   4.952  18.833  0.00  0.00    +0.000 A 
ATOM      9  N   UNL     1       2.906   4.779  19.655  0.00  0.00    +0.000 N 
ENDROOT
BRANCH   1  18
ATOM     10  C   UNL     1       1.701  13.338  18.819  0.00  0.00    +0.000 C 
ATOM     11  N   UNL     1       1.495  11.973  19.275  0.00  0.00    +0.000 N 
ATOM     12  C   UNL     1       1.404  11.807  20.718  0.00  0.00    +0.000 C 
ATOM     13  C   UNL     1       1.828  10.979  18.361  0.00  0.00    +0.000 C 
ATOM     14  O   UNL     1       2.312  11.283  17.267  0.00  0.00    +0.000 OA
ATOM     15  N   UNL     1       1.655   9.656  18.695  0.00  0.00    +0.000 N 
ATOM     16  C   UNL     1       2.251   8.610  17.837  0.00  0.00    +0.000 C 
ATOM     17  C   UNL     1       2.959   7.516  18.680  0.00  0.00    +0.000 C 
ATOM     18  N   UNL     1       2.047   7.038  19.735  0.00  0.00    +0.000 N 
ATOM     19  C   UNL     1       1.514   8.111  20.593  0.00  0.00    +0.000 C 
ATOM     20  C   UNL     1       0.741   9.085  19.690  0.00  0.00    +0.000 C 
ENDBRANCH   1  18
BRANCH   7  21
ATOM     21  C   UNL     1       5.863   4.230  17.494  0.00  0.00    +0.000 C 
ATOM     22  O   UNL     1       6.881   4.827  17.838  0.00  0.00    +0.000 OA
ATOM     23  N   UNL     1       5.660   3.788  16.202  0.00  0.00    +0.000 N 
ATOM     24  H   UNL     1       4.836   3.253  15.976  0.00  0.00    +0.000 HD
BRANCH  23  25
ATOM     25  C   UNL     1       6.667   3.970  15.202  0.00  0.00    +0.000 C 
ATOM     26  C   UNL     1       6.302   3.859  13.747  0.00  0.00    +0.000 C 
ATOM     27  C   UNL     1       6.701   5.185  14.325  0.00  0.00    +0.000 C 
ENDBRANCH  23  25
ENDBRANCH   7  21
TORSDOF 3
ENDMDL
MODEL 7
REMARK VINA RESULT:      -6.7      3.566      9.316
REMARK  Name = 
REMARK  5 active torsions:
REMARK  status: ('A' for Active; 'I' for Inactive)
REMARK    1  A    between atoms: C_1  and  N_2
REMARK    2  A    between atoms: N_2  and  C_3
REMARK    3  A    between atoms: N_9  and  C_10
REMARK    4  A    between atoms: C_16  and  C_17
REMARK    5  A    between atoms: N_19  and  C_20
REMARK                            x       y       z     vdW  Elec       q    Type
REMARK                         _______ _______ _______ _____ _____    ______ ____
ROOT
ATOM      1  C   UNL     1      -0.252  12.270  21.623  0.00  0.00    +0.000 A 
ATOM      2  C   UNL     1      -0.958  12.179  22.808  0.00  0.00    +0.000 A 
ATOM      3  C   UNL     1      -1.109  10.807  23.132  0.00  0.00    +0.000 A 
ATOM      4  C   UNL     1      -0.453  10.080  22.163  0.00  0.00    +0.000 A 
ATOM      5  C   UNL     1      -0.227   8.687  21.942  0.00  0.00    +0.000 A 
ATOM      6  C   UNL     1       0.495   8.277  20.878  0.00  0.00    +0.000 A 
ATOM      7  C   UNL     1       1.072   9.237  19.942  0.00  0.00    +0.000 A 
ATOM      8  C   UNL     1       0.872  10.541  20.173  0.00  0.00    +0.000 A 
ATOM      9  N   UNL     1       0.093  10.971  21.248  0.00  0.00    +0.000 N 
ENDROOT
BRANCH   1  18
ATOM     10  C   UNL     1       1.093  18.450  17.187  0.00  0.00    +0.000 C 
ATOM     11  N   UNL     1       0.557  17.261  17.831  0.00  0.00    +0.000 N 
ATOM     12  C   UNL     1      -0.847  17.340  18.209  0.00  0.00    +0.000 C 
ATOM     13  C   UNL     1       1.500  16.398  18.377  0.00  0.00    +0.000 C 
ATOM     14  O   UNL     1       2.698  16.689  18.339  0.00  0.00    +0.000 OA
ATOM     15  N   UNL     1       1.091  15.239  18.995  0.00  0.00    +0.000 N 
ATOM     16  C   UNL     1       2.061  14.467  19.798  0.00  0.00    +0.000 C 
ATOM     17  C   UNL     1       1.451  14.018  21.152  0.00  0.00    +0.000 C 
ATOM     18  N   UNL     1       0.150  13.366  20.917  0.00  0.00    +0.000 N 
ATOM     19  C   UNL     1      -0.800  14.192  20.152  0.00  0.00    +0.000 C 
ATOM     20  C   UNL     1      -0.157  14.496  18.789  0.00  0.00    +0.000 C 
ENDBRANCH   1  18
BRANCH   7  21
ATOM     21  C   UNL     1       1.816   8.927  18.685  0.00  0.00    +0.000 C 
ATOM     22  O   UNL     1       1.808   9.706  17.734  0.00  0.00    +0.000 OA
ATOM     23  N   UNL     1       2.529   7.745  18.673  0.00  0.00    +0.000 N 
ATOM     24  H   UNL     1       2.554   7.162  19.496  0.00  0.00    +0.000 HD
BRANCH  23  25
ATOM     25  C   UNL     1       3.340   7.394  17.548  0.00  0.00    +0.000 C 
ATOM     26  C   UNL     1       4.791   7.052  17.752  0.00  0.00    +0.000 C 
ATOM     27  C   UNL     1       3.819   5.990  17.325  0.00  0.00    +0.000 C 
ENDBRANCH  23  25
ENDBRANCH   7  21
TORSDOF 3
ENDMDL
MODEL 8
REMARK VINA RESULT:      -6.6      6.048     11.575
REMARK  Name = 
REMARK  5 active torsions:
REMARK  status: ('A' for Active; 'I' for Inactive)
REMARK    1  A    between atoms: C_1  and  N_2
REMARK    2  A    between atoms: N_2  and  C_3
REMARK    3  A    between atoms: N_9  and  C_10
REMARK    4  A    between atoms: C_16  and  C_17
REMARK    5  A    between atoms: N_19  and  C_20
REMARK                            x       y       z     vdW  Elec       q    Type
REMARK                         _______ _______ _______ _____ _____    ______ ____
ROOT
ATOM      1  C   UNL     1      -4.489  12.549  19.215  0.00  0.00    +0.000 A 
ATOM      2  C   UNL     1      -5.624  12.697  18.441  0.00  0.00    +0.000 A 
ATOM      3  C   UNL     1      -5.449  11.955  17.245  0.00  0.00    +0.000 A 
ATOM      4  C   UNL     1      -4.226  11.326  17.326  0.00  0.00    +0.000 A 
ATOM      5  C   UNL     1      -3.501  10.439  16.473  0.00  0.00    +0.000 A 
ATOM      6  C   UNL     1      -2.296   9.964  16.854  0.00  0.00    +0.000 A 
ATOM      7  C   UNL     1      -1.716  10.326  18.144  0.00  0.00    +0.000 A 
ATOM      8  C   UNL     1      -2.416  11.139  18.944  0.00  0.00    +0.000 A 
ATOM      9  N   UNL     1      -3.643  11.667  18.541  0.00  0.00    +0.000 N 
ENDROOT
BRANCH   1  18
ATOM     10  C   UNL     1      -1.965  15.849  25.727  0.00  0.00    +0.000 C 
ATOM     11  N   UNL     1      -2.139  15.336  24.378  0.00  0.00    +0.000 N 
ATOM     12  C   UNL     1      -1.842  16.281  23.311  0.00  0.00    +0.000 C 
ATOM     13  C   UNL     1      -2.943  14.207  24.265  0.00  0.00    +0.000 C 
ATOM     14  O   UNL     1      -3.493  13.738  25.265  0.00  0.00    +0.000 OA
ATOM     15  N   UNL     1      -3.156  13.639  23.031  0.00  0.00    +0.000 N 
ATOM     16  C   UNL     1      -4.210  12.614  22.879  0.00  0.00    +0.000 C 
ATOM     17  C   UNL     1      -5.069  12.863  21.611  0.00  0.00    +0.000 C 
ATOM     18  N   UNL     1      -4.187  13.054  20.445  0.00  0.00    +0.000 N 
ATOM     19  C   UNL     1      -3.182  14.116  20.626  0.00  0.00    +0.000 C 
ATOM     20  C   UNL     1      -2.313  13.732  21.833  0.00  0.00    +0.000 C 
ENDBRANCH   1  18
BRANCH   7  21
ATOM     21  C   UNL     1      -0.366   9.946  18.656  0.00  0.00    +0.000 C 
ATOM     22  O   UNL     1       0.582   9.787  17.890  0.00  0.00    +0.000 OA
ATOM     23  N   UNL     1      -0.246   9.820  20.026  0.00  0.00    +0.000 N 
ATOM     24  H   UNL     1      -1.036  10.014  20.622  0.00  0.00    +0.000 HD
BRANCH  23  25
ATOM     25  C   UNL     1       1.024   9.539  20.624  0.00  0.00    +0.000 C 
ATOM     26  C   UNL     1       1.086   9.043  22.043  0.00  0.00    +0.000 C 
ATOM     27  C   UNL     1       1.470   8.136  20.909  0.00  0.00    +0.000 C 
ENDBRANCH  23  25
ENDBRANCH   7  21
TORSDOF 3
ENDMDL
MODEL 9
REMARK VINA RESULT:      -6.6      7.727     11.739
REMARK  Name = 
REMARK  5 active torsions:
REMARK  status: ('A' for Active; 'I' for Inactive)
REMARK    1  A    between atoms: C_1  and  N_2
REMARK    2  A    between atoms: N_2  and  C_3
REMARK    3  A    between atoms: N_9  and  C_10
REMARK    4  A    between atoms: C_16  and  C_17
REMARK    5  A    between atoms: N_19  and  C_20
REMARK                            x       y       z     vdW  Elec       q    Type
REMARK                         _______ _______ _______ _____ _____    ______ ____
ROOT
ATOM      1  C   UNL     1      -1.073  11.993  19.876  0.00  0.00    +0.000 A 
ATOM      2  C   UNL     1       0.141  11.353  19.709  0.00  0.00    +0.000 A 
ATOM      3  C   UNL     1      -0.010  10.364  18.704  0.00  0.00    +0.000 A 
ATOM      4  C   UNL     1      -1.304  10.444  18.239  0.00  0.00    +0.000 A 
ATOM      5  C   UNL     1      -2.049   9.752  17.236  0.00  0.00    +0.000 A 
ATOM      6  C   UNL     1      -3.335  10.085  16.994  0.00  0.00    +0.000 A 
ATOM      7  C   UNL     1      -3.986  11.164  17.730  0.00  0.00    +0.000 A 
ATOM      8  C   UNL     1      -3.270  11.821  18.651  0.00  0.00    +0.000 A 
ATOM      9  N   UNL     1      -1.954  11.456  18.936  0.00  0.00    +0.000 N 
ENDROOT
BRANCH   1  18
ATOM     10  C   UNL     1      -3.582  17.066  25.134  0.00  0.00    +0.000 C 
ATOM     11  N   UNL     1      -3.325  15.899  24.305  0.00  0.00    +0.000 N 
ATOM     12  C   UNL     1      -3.066  14.666  25.033  0.00  0.00    +0.000 C 
ATOM     13  C   UNL     1      -2.944  16.166  22.995  0.00  0.00    +0.000 C 
ATOM     14  O   UNL     1      -2.796  17.333  22.620  0.00  0.00    +0.000 OA
ATOM     15  N   UNL     1      -2.693  15.127  22.129  0.00  0.00    +0.000 N 
ATOM     16  C   UNL     1      -2.039  15.407  20.834  0.00  0.00    +0.000 C 
ATOM     17  C   UNL     1      -0.911  14.385  20.532  0.00  0.00    +0.000 C 
ATOM     18  N   UNL     1      -1.425  13.014  20.708  0.00  0.00    +0.000 N 
ATOM     19  C   UNL     1      -2.027  12.769  22.030  0.00  0.00    +0.000 C 
ATOM     20  C   UNL     1      -3.198  13.751  22.196  0.00  0.00    +0.000 C 
ENDBRANCH   1  18
BRANCH   7  21
ATOM     21  C   UNL     1      -5.416  11.583  17.627  0.00  0.00    +0.000 C 
ATOM     22  O   UNL     1      -6.322  10.849  18.016  0.00  0.00    +0.000 OA
ATOM     23  N   UNL     1      -5.648  12.840  17.107  0.00  0.00    +0.000 N 
ATOM     24  H   UNL     1      -4.872  13.432  16.852  0.00  0.00    +0.000 HD
BRANCH  23  25
ATOM     25  C   UNL     1      -6.977  13.368  17.041  0.00  0.00    +0.000 C 
ATOM     26  C   UNL     1      -7.325  14.610  17.816  0.00  0.00    +0.000 C 
ATOM     27  C   UNL     1      -7.285  14.644  16.316  0.00  0.00    +0.000 C 
ENDBRANCH  23  25
ENDBRANCH   7  21
TORSDOF 3
ENDMDL
