MODEL 1
REMARK VINA RESULT:      -7.8      0.000      0.000
REMARK  Name = 
REMARK  10 active torsions:
REMARK  status: ('A' for Active; 'I' for Inactive)
REMARK    1  A    between atoms: C_2  and  C_4
REMARK    2  A    between atoms: C_8  and  C_9
REMARK    3  A    between atoms: N_16  and  C_17
REMARK    4  A    between atoms: C_17  and  C_18
REMARK    5  A    between atoms: C_18  and  N_19
REMARK    6  A    between atoms: N_19  and  C_20
REMARK    7  A    between atoms: C_20  and  C_21
REMARK    8  A    between atoms: C_21  and  C_22
REMARK    9  A    between atoms: C_28  and  C_30
REMARK   10  A    between atoms: C_30  and  O_31
REMARK                            x       y       z     vdW  Elec       q    Type
REMARK                         _______ _______ _______ _____ _____    ______ ____
ROOT
ATOM      1  C   UNL     1       4.999   5.515  15.667  0.00  0.00    +0.000 C 
ATOM      2  C   UNL     1       5.450   6.772  16.489  0.00  0.00    +0.000 C 
ATOM      3  C   UNL     1       6.318   6.490  17.759  0.00  0.00    +0.000 C 
ATOM      4  C   UNL     1       7.666   5.935  17.310  0.00  0.00    +0.000 C 
ATOM      5  C   UNL     1       7.382   4.439  17.129  0.00  0.00    +0.000 C 
ATOM      6  C   UNL     1       5.953   4.232  17.671  0.00  0.00    +0.000 C 
ATOM      7  C   UNL     1       4.779   4.385  16.684  0.00  0.00    +0.000 C 
ATOM      8  N   UNL     1       5.900   5.353  18.603  0.00  0.00    +0.000 NA
ENDROOT
BRANCH   1  13
ATOM      9  C   UNL     1       6.042   3.555  12.475  0.00  0.00    +0.000 A 
ATOM     10  C   UNL     1       7.317   4.083  12.234  0.00  0.00    +0.000 A 
ATOM     11  C   UNL     1       7.835   5.021  13.104  0.00  0.00    +0.000 A 
ATOM     12  C   UNL     1       7.078   5.419  14.202  0.00  0.00    +0.000 A 
ATOM     13  C   UNL     1       5.746   4.986  14.430  0.00  0.00    +0.000 A 
ATOM     14  C   UNL     1       5.239   4.036  13.537  0.00  0.00    +0.000 A 
BRANCH   9  16
ATOM     15  N   UNL     1       6.370   1.377  11.444  0.00  0.00    +0.000 N 
ATOM     16  C   UNL     1       5.529   2.442  11.632  0.00  0.00    +0.000 C 
ATOM     17  O   UNL     1       4.397   2.448  11.178  0.00  0.00    +0.000 OA
ATOM     18  H   UNL     1       5.980   0.573  10.969  0.00  0.00    +0.000 HD
ATOM     19  H   UNL     1       7.212   1.242  11.983  0.00  0.00    +0.000 HD
ENDBRANCH   9  16
ENDBRANCH   1  13
BRANCH   8  20
ATOM     20  C   UNL     1       4.687   5.477  19.410  0.00  0.00    +0.000 C 
BRANCH  20  21
ATOM     21  C   UNL     1       4.177   4.142  20.047  0.00  0.00    +0.000 C 
BRANCH  21  22
ATOM     22  N   UNL     1       2.716   3.933  20.102  0.00  0.00    +0.000 N 
ATOM     23  C   UNL     1       2.193   2.861  19.359  0.00  0.00    +0.000 C 
ATOM     24  O   UNL     1       2.891   2.086  18.695  0.00  0.00    +0.000 OA
BRANCH  22  25
ATOM     25  C   UNL     1       1.808   4.943  20.661  0.00  0.00    +0.000 C 
BRANCH  25  26
ATOM     26  C   UNL     1       1.348   6.173  19.865  0.00  0.00    +0.000 C 
BRANCH  26  27
ATOM     27  C   UNL     1       2.161   7.479  20.007  0.00  0.00    +0.000 C 
ATOM     28  C   UNL     1       2.363   8.240  18.686  0.00  0.00    +0.000 C 
ATOM     29  C   UNL     1       1.067   8.840  18.155  0.00  0.00    +0.000 C 
ATOM     30  C   UNL     1       0.379   9.732  19.185  0.00  0.00    +0.000 C 
ATOM     31  C   UNL     1       0.223   9.068  20.551  0.00  0.00    +0.000 C 
ATOM     32  C   UNL     1       1.516   8.427  21.040  0.00  0.00    +0.000 C 
ENDBRANCH  26  27
ENDBRANCH  25  26
ENDBRANCH  22  25
BRANCH  23  33
ATOM     33  C   UNL     1       0.666   2.648  19.358  0.00  0.00    +0.000 C 
BRANCH  33  34
ATOM     34  O   UNL     1       0.231   1.845  18.264  0.00  0.00    +0.000 OA
ATOM     35  H   UNL     1       0.621   0.960  18.414  0.00  0.00    +0.000 HD
ENDBRANCH  33  34
ENDBRANCH  23  33
ENDBRANCH  21  22
ENDBRANCH  20  21
ENDBRANCH   8  20
TORSDOF 10
ENDMDL
MODEL 2
REMARK VINA RESULT:      -7.7      2.052      3.768
REMARK  Name = 
REMARK  10 active torsions:
REMARK  status: ('A' for Active; 'I' for Inactive)
REMARK    1  A    between atoms: C_2  and  C_4
REMARK    2  A    between atoms: C_8  and  C_9
REMARK    3  A    between atoms: N_16  and  C_17
REMARK    4  A    between atoms: C_17  and  C_18
REMARK    5  A    between atoms: C_18  and  N_19
REMARK    6  A    between atoms: N_19  and  C_20
REMARK    7  A    between atoms: C_20  and  C_21
REMARK    8  A    between atoms: C_21  and  C_22
REMARK    9  A    between atoms: C_28  and  C_30
REMARK   10  A    between atoms: C_30  and  O_31
REMARK                            x       y       z     vdW  Elec       q    Type
REMARK                         _______ _______ _______ _____ _____    ______ ____
ROOT
ATOM      1  C   UNL     1       4.852   5.245  15.602  0.00  0.00    +0.000 C 
ATOM      2  C   UNL     1       5.062   6.621  16.326  0.00  0.00    +0.000 C 
ATOM      3  C   UNL     1       6.006   6.607  17.572  0.00  0.00    +0.000 C 
ATOM      4  C   UNL     1       7.425   6.304  17.102  0.00  0.00    +0.000 C 
ATOM      5  C   UNL     1       7.445   4.773  17.025  0.00  0.00    +0.000 C 
ATOM      6  C   UNL     1       6.104   4.321  17.639  0.00  0.00    +0.000 C 
ATOM      7  C   UNL     1       4.895   4.167  16.696  0.00  0.00    +0.000 C 
ATOM      8  N   UNL     1       5.852   5.471  18.502  0.00  0.00    +0.000 NA
ENDROOT
BRANCH   1  13
ATOM      9  C   UNL     1       6.089   3.413  12.404  0.00  0.00    +0.000 A 
ATOM     10  C   UNL     1       7.319   4.044  12.185  0.00  0.00    +0.000 A 
ATOM     11  C   UNL     1       7.750   5.011  13.072  0.00  0.00    +0.000 A 
ATOM     12  C   UNL     1       6.949   5.335  14.164  0.00  0.00    +0.000 A 
ATOM     13  C   UNL     1       5.654   4.792  14.370  0.00  0.00    +0.000 A 
ATOM     14  C   UNL     1       5.236   3.815  13.460  0.00  0.00    +0.000 A 
BRANCH   9  16
ATOM     15  N   UNL     1       6.581   1.252  11.403  0.00  0.00    +0.000 N 
ATOM     16  C   UNL     1       5.678   2.272  11.543  0.00  0.00    +0.000 C 
ATOM     17  O   UNL     1       4.571   2.217  11.033  0.00  0.00    +0.000 OA
ATOM     18  H   UNL     1       6.259   0.427  10.914  0.00  0.00    +0.000 HD
ATOM     19  H   UNL     1       7.401   1.163  11.985  0.00  0.00    +0.000 HD
ENDBRANCH   9  16
ENDBRANCH   1  13
BRANCH   8  20
ATOM     20  C   UNL     1       4.663   5.404  19.351  0.00  0.00    +0.000 C 
BRANCH  20  21
ATOM     21  C   UNL     1       3.523   6.408  18.973  0.00  0.00    +0.000 C 
BRANCH  21  22
ATOM     22  N   UNL     1       2.358   6.479  19.876  0.00  0.00    +0.000 N 
ATOM     23  C   UNL     1       1.829   7.754  20.142  0.00  0.00    +0.000 C 
ATOM     24  O   UNL     1       2.274   8.794  19.645  0.00  0.00    +0.000 OA
BRANCH  22  25
ATOM     25  C   UNL     1       1.932   5.331  20.688  0.00  0.00    +0.000 C 
BRANCH  25  26
ATOM     26  C   UNL     1       0.843   4.350  20.227  0.00  0.00    +0.000 C 
BRANCH  26  27
ATOM     27  C   UNL     1       1.025   2.851  20.558  0.00  0.00    +0.000 C 
ATOM     28  C   UNL     1       0.883   1.919  19.343  0.00  0.00    +0.000 C 
ATOM     29  C   UNL     1       2.031   2.071  18.354  0.00  0.00    +0.000 C 
ATOM     30  C   UNL     1       3.393   1.881  19.017  0.00  0.00    +0.000 C 
ATOM     31  C   UNL     1       3.570   2.715  20.283  0.00  0.00    +0.000 C 
ATOM     32  C   UNL     1       2.387   2.592  21.235  0.00  0.00    +0.000 C 
ENDBRANCH  26  27
ENDBRANCH  25  26
ENDBRANCH  22  25
BRANCH  23  33
ATOM     33  C   UNL     1       0.643   7.863  21.121  0.00  0.00    +0.000 C 
BRANCH  33  34
ATOM     34  O   UNL     1       0.790   8.949  22.033  0.00  0.00    +0.000 OA
ATOM     35  H   UNL     1      -0.114   9.295  22.179  0.00  0.00    +0.000 HD
ENDBRANCH  33  34
ENDBRANCH  23  33
ENDBRANCH  21  22
ENDBRANCH  20  21
ENDBRANCH   8  20
TORSDOF 10
ENDMDL
MODEL 3
REMARK VINA RESULT:      -7.4      1.187      1.786
REMARK  Name = 
REMARK  10 active torsions:
REMARK  status: ('A' for Active; 'I' for Inactive)
REMARK    1  A    between atoms: C_2  and  C_4
REMARK    2  A    between atoms: C_8  and  C_9
REMARK    3  A    between atoms: N_16  and  C_17
REMARK    4  A    between atoms: C_17  and  C_18
REMARK    5  A    between atoms: C_18  and  N_19
REMARK    6  A    between atoms: N_19  and  C_20
REMARK    7  A    between atoms: C_20  and  C_21
REMARK    8  A    between atoms: C_21  and  C_22
REMARK    9  A    between atoms: C_28  and  C_30
REMARK   10  A    between atoms: C_30  and  O_31
REMARK                            x       y       z     vdW  Elec       q    Type
REMARK                         _______ _______ _______ _____ _____    ______ ____
ROOT
ATOM      1  C   UNL     1       4.957   4.964  15.749  0.00  0.00    +0.000 C 
ATOM      2  C   UNL     1       4.977   6.354  16.476  0.00  0.00    +0.000 C 
ATOM      3  C   UNL     1       5.994   6.501  17.654  0.00  0.00    +0.000 C 
ATOM      4  C   UNL     1       7.408   6.449  17.082  0.00  0.00    +0.000 C 
ATOM      5  C   UNL     1       7.687   4.945  16.983  0.00  0.00    +0.000 C 
ATOM      6  C   UNL     1       6.491   4.267  17.682  0.00  0.00    +0.000 C 
ATOM      7  C   UNL     1       5.263   3.908  16.822  0.00  0.00    +0.000 C 
ATOM      8  N   UNL     1       6.106   5.354  18.576  0.00  0.00    +0.000 NA
ENDROOT
BRANCH   1  13
ATOM      9  C   UNL     1       6.242   3.399  12.430  0.00  0.00    +0.000 A 
ATOM     10  C   UNL     1       7.350   4.209  12.157  0.00  0.00    +0.000 A 
ATOM     11  C   UNL     1       7.690   5.211  13.043  0.00  0.00    +0.000 A 
ATOM     12  C   UNL     1       6.923   5.391  14.191  0.00  0.00    +0.000 A 
ATOM     13  C   UNL     1       5.736   4.659  14.458  0.00  0.00    +0.000 A 
ATOM     14  C   UNL     1       5.409   3.649  13.547  0.00  0.00    +0.000 A 
BRANCH   9  16
ATOM     15  N   UNL     1       6.993   1.384  11.294  0.00  0.00    +0.000 N 
ATOM     16  C   UNL     1       5.948   2.227  11.562  0.00  0.00    +0.000 C 
ATOM     17  O   UNL     1       4.821   1.994  11.156  0.00  0.00    +0.000 OA
ATOM     18  H   UNL     1       6.769   0.529  10.802  0.00  0.00    +0.000 HD
ATOM     19  H   UNL     1       7.870   1.424  11.792  0.00  0.00    +0.000 HD
ENDBRANCH   9  16
ENDBRANCH   1  13
BRANCH   8  20
ATOM     20  C   UNL     1       5.009   5.080  19.504  0.00  0.00    +0.000 C 
BRANCH  20  21
ATOM     21  C   UNL     1       3.748   5.990  19.325  0.00  0.00    +0.000 C 
BRANCH  21  22
ATOM     22  N   UNL     1       2.507   5.567  20.004  0.00  0.00    +0.000 N 
ATOM     23  C   UNL     1       1.926   4.358  19.585  0.00  0.00    +0.000 C 
ATOM     24  O   UNL     1       2.412   3.635  18.707  0.00  0.00    +0.000 OA
BRANCH  22  25
ATOM     25  C   UNL     1       1.747   6.478  20.870  0.00  0.00    +0.000 C 
BRANCH  25  26
ATOM     26  C   UNL     1       1.609   7.979  20.574  0.00  0.00    +0.000 C 
BRANCH  26  27
ATOM     27  C   UNL     1       0.187   8.568  20.438  0.00  0.00    +0.000 C 
ATOM     28  C   UNL     1      -0.650   8.494  21.727  0.00  0.00    +0.000 C 
ATOM     29  C   UNL     1      -0.126   9.421  22.816  0.00  0.00    +0.000 C 
ATOM     30  C   UNL     1      -0.009  10.866  22.337  0.00  0.00    +0.000 C 
ATOM     31  C   UNL     1       0.738  11.005  21.013  0.00  0.00    +0.000 C 
ATOM     32  C   UNL     1       0.236  10.032  19.953  0.00  0.00    +0.000 C 
ENDBRANCH  26  27
ENDBRANCH  25  26
ENDBRANCH  22  25
BRANCH  23  33
ATOM     33  C   UNL     1       0.603   3.916  20.241  0.00  0.00    +0.000 C 
BRANCH  33  34
ATOM     34  O   UNL     1       0.774   2.799  21.109  0.00  0.00    +0.000 OA
ATOM     35  H   UNL     1       0.412   2.030  20.624  0.00  0.00    +0.000 HD
ENDBRANCH  33  34
ENDBRANCH  23  33
ENDBRANCH  21  22
ENDBRANCH  20  21
ENDBRANCH   8  20
TORSDOF 10
ENDMDL
MODEL 4
REMARK VINA RESULT:      -7.2      4.970     11.010
REMARK  Name = 
REMARK  10 active torsions:
REMARK  status: ('A' for Active; 'I' for Inactive)
REMARK    1  A    between atoms: C_2  and  C_4
REMARK    2  A    between atoms: C_8  and  C_9
REMARK    3  A    between atoms: N_16  and  C_17
REMARK    4  A    between atoms: C_17  and  C_18
REMARK    5  A    between atoms: C_18  and  N_19
REMARK    6  A    between atoms: N_19  and  C_20
REMARK    7  A    between atoms: C_20  and  C_21
REMARK    8  A    between atoms: C_21  and  C_22
REMARK    9  A    between atoms: C_28  and  C_30
REMARK   10  A    between atoms: C_30  and  O_31
REMARK                            x       y       z     vdW  Elec       q    Type
REMARK                         _______ _______ _______ _____ _____    ______ ____
ROOT
ATOM      1  C   UNL     1      -0.340  11.269  21.569  0.00  0.00    +0.000 C 
ATOM      2  C   UNL     1       0.982  11.625  20.804  0.00  0.00    +0.000 C 
ATOM      3  C   UNL     1       0.824  12.018  19.300  0.00  0.00    +0.000 C 
ATOM      4  C   UNL     1       0.076  13.346  19.223  0.00  0.00    +0.000 C 
ATOM      5  C   UNL     1      -1.395  12.920  19.302  0.00  0.00    +0.000 C 
ATOM      6  C   UNL     1      -1.372  11.379  19.225  0.00  0.00    +0.000 C 
ATOM      7  C   UNL     1      -1.266  10.593  20.546  0.00  0.00    +0.000 C 
ATOM      8  N   UNL     1      -0.116  11.208  18.502  0.00  0.00    +0.000 NA
ENDROOT
BRANCH   1  13
ATOM      9  C   UNL     1      -3.107  13.101  23.595  0.00  0.00    +0.000 A 
ATOM     10  C   UNL     1      -2.447  14.283  23.953  0.00  0.00    +0.000 A 
ATOM     11  C   UNL     1      -1.154  14.493  23.519  0.00  0.00    +0.000 A 
ATOM     12  C   UNL     1      -0.536  13.524  22.732  0.00  0.00    +0.000 A 
ATOM     13  C   UNL     1      -1.131  12.271  22.428  0.00  0.00    +0.000 A 
ATOM     14  C   UNL     1      -2.441  12.078  22.878  0.00  0.00    +0.000 A 
BRANCH   9  16
ATOM     15  N   UNL     1      -4.853  11.892  24.780  0.00  0.00    +0.000 N 
ATOM     16  C   UNL     1      -4.545  12.923  23.933  0.00  0.00    +0.000 C 
ATOM     17  O   UNL     1      -5.401  13.690  23.524  0.00  0.00    +0.000 OA
ATOM     18  H   UNL     1      -5.812  11.842  25.100  0.00  0.00    +0.000 HD
ATOM     19  H   UNL     1      -4.155  11.388  25.306  0.00  0.00    +0.000 HD
ENDBRANCH   9  16
ENDBRANCH   1  13
BRANCH   8  20
ATOM     20  C   UNL     1       0.253   9.838  18.146  0.00  0.00    +0.000 C 
BRANCH  20  21
ATOM     21  C   UNL     1       1.751   9.467  18.405  0.00  0.00    +0.000 C 
BRANCH  21  22
ATOM     22  N   UNL     1       2.071   8.040  18.602  0.00  0.00    +0.000 N 
ATOM     23  C   UNL     1       1.984   7.537  19.912  0.00  0.00    +0.000 C 
ATOM     24  O   UNL     1       1.636   8.218  20.882  0.00  0.00    +0.000 OA
BRANCH  22  25
ATOM     25  C   UNL     1       2.720   7.238  17.556  0.00  0.00    +0.000 C 
BRANCH  25  26
ATOM     26  C   UNL     1       4.246   7.131  17.423  0.00  0.00    +0.000 C 
BRANCH  26  27
ATOM     27  C   UNL     1       4.832   5.888  16.717  0.00  0.00    +0.000 C 
ATOM     28  C   UNL     1       6.247   6.095  16.150  0.00  0.00    +0.000 C 
ATOM     29  C   UNL     1       7.296   6.246  17.245  0.00  0.00    +0.000 C 
ATOM     30  C   UNL     1       7.279   5.077  18.226  0.00  0.00    +0.000 C 
ATOM     31  C   UNL     1       5.886   4.759  18.763  0.00  0.00    +0.000 C 
ATOM     32  C   UNL     1       4.840   4.666  17.658  0.00  0.00    +0.000 C 
ENDBRANCH  26  27
ENDBRANCH  25  26
ENDBRANCH  22  25
BRANCH  23  33
ATOM     33  C   UNL     1       2.360   6.062  20.155  0.00  0.00    +0.000 C 
BRANCH  33  34
ATOM     34  O   UNL     1       1.301   5.324  20.759  0.00  0.00    +0.000 OA
ATOM     35  H   UNL     1       1.730   4.568  21.209  0.00  0.00    +0.000 HD
ENDBRANCH  33  34
ENDBRANCH  23  33
ENDBRANCH  21  22
ENDBRANCH  20  21
ENDBRANCH   8  20
TORSDOF 10
ENDMDL
MODEL 5
REMARK VINA RESULT:      -7.1      4.656     10.551
REMARK  Name = 
REMARK  10 active torsions:
REMARK  status: ('A' for Active; 'I' for Inactive)
REMARK    1  A    between atoms: C_2  and  C_4
REMARK    2  A    between atoms: C_8  and  C_9
REMARK    3  A    between atoms: N_16  and  C_17
REMARK    4  A    between atoms: C_17  and  C_18
REMARK    5  A    between atoms: C_18  and  N_19
REMARK    6  A    between atoms: N_19  and  C_20
REMARK    7  A    between atoms: C_20  and  C_21
REMARK    8  A    between atoms: C_21  and  C_22
REMARK    9  A    between atoms: C_28  and  C_30
REMARK   10  A    between atoms: C_30  and  O_31
REMARK                            x       y       z     vdW  Elec       q    Type
REMARK                         _______ _______ _______ _____ _____    ______ ____
ROOT
ATOM      1  C   UNL     1       0.267  11.531  21.670  0.00  0.00    +0.000 C 
ATOM      2  C   UNL     1       1.363  11.881  20.604  0.00  0.00    +0.000 C 
ATOM      3  C   UNL     1       1.123  11.329  19.162  0.00  0.00    +0.000 C 
ATOM      4  C   UNL     1      -0.096  12.032  18.571  0.00  0.00    +0.000 C 
ATOM      5  C   UNL     1      -1.269  11.211  19.118  0.00  0.00    +0.000 C 
ATOM      6  C   UNL     1      -0.620   9.998  19.817  0.00  0.00    +0.000 C 
ATOM      7  C   UNL     1      -0.260  10.134  21.309  0.00  0.00    +0.000 C 
ATOM      8  N   UNL     1       0.627   9.943  19.061  0.00  0.00    +0.000 NA
ENDROOT
BRANCH   1  13
ATOM      9  C   UNL     1      -3.106  12.990  22.938  0.00  0.00    +0.000 A 
ATOM     10  C   UNL     1      -2.974  14.337  22.578  0.00  0.00    +0.000 A 
ATOM     11  C   UNL     1      -1.839  14.750  21.911  0.00  0.00    +0.000 A 
ATOM     12  C   UNL     1      -0.851  13.816  21.610  0.00  0.00    +0.000 A 
ATOM     13  C   UNL     1      -0.897  12.465  22.043  0.00  0.00    +0.000 A 
ATOM     14  C   UNL     1      -2.056  12.067  22.717  0.00  0.00    +0.000 A 
BRANCH   9  16
ATOM     15  N   UNL     1      -5.501  12.614  22.746  0.00  0.00    +0.000 N 
ATOM     16  C   UNL     1      -4.382  12.502  23.527  0.00  0.00    +0.000 C 
ATOM     17  O   UNL     1      -4.422  11.975  24.627  0.00  0.00    +0.000 OA
ATOM     18  H   UNL     1      -6.343  12.178  23.099  0.00  0.00    +0.000 HD
ATOM     19  H   UNL     1      -5.462  12.833  21.762  0.00  0.00    +0.000 HD
ENDBRANCH   9  16
ENDBRANCH   1  13
BRANCH   8  20
ATOM     20  C   UNL     1       1.534   8.839  19.376  0.00  0.00    +0.000 C 
BRANCH  20  21
ATOM     21  C   UNL     1       2.259   8.206  18.142  0.00  0.00    +0.000 C 
BRANCH  21  22
ATOM     22  N   UNL     1       2.883   6.882  18.331  0.00  0.00    +0.000 N 
ATOM     23  C   UNL     1       4.113   6.655  17.690  0.00  0.00    +0.000 C 
ATOM     24  O   UNL     1       4.696   7.507  17.009  0.00  0.00    +0.000 OA
BRANCH  22  25
ATOM     25  C   UNL     1       2.147   5.752  18.913  0.00  0.00    +0.000 C 
BRANCH  25  26
ATOM     26  C   UNL     1       1.675   4.553  18.076  0.00  0.00    +0.000 C 
BRANCH  26  27
ATOM     27  C   UNL     1       1.133   3.312  18.822  0.00  0.00    +0.000 C 
ATOM     28  C   UNL     1       2.035   2.071  18.714  0.00  0.00    +0.000 C 
ATOM     29  C   UNL     1       3.345   2.235  19.474  0.00  0.00    +0.000 C 
ATOM     30  C   UNL     1       3.121   2.607  20.937  0.00  0.00    +0.000 C 
ATOM     31  C   UNL     1       2.163   3.781  21.122  0.00  0.00    +0.000 C 
ATOM     32  C   UNL     1       0.882   3.624  20.312  0.00  0.00    +0.000 C 
ENDBRANCH  26  27
ENDBRANCH  25  26
ENDBRANCH  22  25
BRANCH  23  33
ATOM     33  C   UNL     1       4.764   5.264  17.828  0.00  0.00    +0.000 C 
BRANCH  33  34
ATOM     34  O   UNL     1       6.150   5.278  17.495  0.00  0.00    +0.000 OA
ATOM     35  H   UNL     1       6.597   4.776  18.207  0.00  0.00    +0.000 HD
ENDBRANCH  33  34
ENDBRANCH  23  33
ENDBRANCH  21  22
ENDBRANCH  20  21
ENDBRANCH   8  20
TORSDOF 10
ENDMDL
MODEL 6
REMARK VINA RESULT:      -7.0      4.094      9.937
REMARK  Name = 
REMARK  10 active torsions:
REMARK  status: ('A' for Active; 'I' for Inactive)
REMARK    1  A    between atoms: C_2  and  C_4
REMARK    2  A    between atoms: C_8  and  C_9
REMARK    3  A    between atoms: N_16  and  C_17
REMARK    4  A    between atoms: C_17  and  C_18
REMARK    5  A    between atoms: C_18  and  N_19
REMARK    6  A    between atoms: N_19  and  C_20
REMARK    7  A    between atoms: C_20  and  C_21
REMARK    8  A    between atoms: C_21  and  C_22
REMARK    9  A    between atoms: C_28  and  C_30
REMARK   10  A    between atoms: C_30  and  O_31
REMARK                            x       y       z     vdW  Elec       q    Type
REMARK                         _______ _______ _______ _____ _____    ______ ____
ROOT
ATOM      1  C   UNL     1       0.773  11.540  20.949  0.00  0.00    +0.000 C 
ATOM      2  C   UNL     1       1.512  11.421  19.571  0.00  0.00    +0.000 C 
ATOM      3  C   UNL     1       1.112  10.202  18.677  0.00  0.00    +0.000 C 
ATOM      4  C   UNL     1      -0.331  10.391  18.219  0.00  0.00    +0.000 C 
ATOM      5  C   UNL     1      -1.143   9.838  19.397  0.00  0.00    +0.000 C 
ATOM      6  C   UNL     1      -0.101   9.207  20.343  0.00  0.00    +0.000 C 
ATOM      7  C   UNL     1       0.520  10.104  21.432  0.00  0.00    +0.000 C 
ATOM      8  N   UNL     1       0.940   8.908  19.366  0.00  0.00    +0.000 NA
ENDROOT
BRANCH   1  13
ATOM      9  C   UNL     1      -2.659  12.929  22.136  0.00  0.00    +0.000 A 
ATOM     10  C   UNL     1      -2.730  14.130  21.420  0.00  0.00    +0.000 A 
ATOM     11  C   UNL     1      -1.710  14.461  20.550  0.00  0.00    +0.000 A 
ATOM     12  C   UNL     1      -0.634  13.589  20.405  0.00  0.00    +0.000 A 
ATOM     13  C   UNL     1      -0.473  12.412  21.182  0.00  0.00    +0.000 A 
ATOM     14  C   UNL     1      -1.517  12.096  22.058  0.00  0.00    +0.000 A 
BRANCH   9  16
ATOM     15  N   UNL     1      -5.058  12.644  22.416  0.00  0.00    +0.000 N 
ATOM     16  C   UNL     1      -3.813  12.491  22.966  0.00  0.00    +0.000 C 
ATOM     17  O   UNL     1      -3.658  11.969  24.057  0.00  0.00    +0.000 OA
ATOM     18  H   UNL     1      -5.831  12.242  22.929  0.00  0.00    +0.000 HD
ATOM     19  H   UNL     1      -5.202  12.859  21.440  0.00  0.00    +0.000 HD
ENDBRANCH   9  16
ENDBRANCH   1  13
BRANCH   8  20
ATOM     20  C   UNL     1       2.124   8.206  19.863  0.00  0.00    +0.000 C 
BRANCH  20  21
ATOM     21  C   UNL     1       1.873   6.733  20.326  0.00  0.00    +0.000 C 
BRANCH  21  22
ATOM     22  N   UNL     1       2.195   5.658  19.366  0.00  0.00    +0.000 N 
ATOM     23  C   UNL     1       1.560   4.419  19.553  0.00  0.00    +0.000 C 
ATOM     24  O   UNL     1       0.742   4.200  20.454  0.00  0.00    +0.000 OA
BRANCH  22  25
ATOM     25  C   UNL     1       3.324   5.764  18.432  0.00  0.00    +0.000 C 
BRANCH  25  26
ATOM     26  C   UNL     1       4.765   5.416  18.833  0.00  0.00    +0.000 C 
BRANCH  26  27
ATOM     27  C   UNL     1       5.794   5.162  17.709  0.00  0.00    +0.000 C 
ATOM     28  C   UNL     1       5.851   6.272  16.646  0.00  0.00    +0.000 C 
ATOM     29  C   UNL     1       6.430   7.572  17.191  0.00  0.00    +0.000 C 
ATOM     30  C   UNL     1       7.804   7.370  17.826  0.00  0.00    +0.000 C 
ATOM     31  C   UNL     1       7.841   6.221  18.832  0.00  0.00    +0.000 C 
ATOM     32  C   UNL     1       7.208   4.946  18.287  0.00  0.00    +0.000 C 
ENDBRANCH  26  27
ENDBRANCH  25  26
ENDBRANCH  22  25
BRANCH  23  33
ATOM     33  C   UNL     1       1.914   3.263  18.596  0.00  0.00    +0.000 C 
BRANCH  33  34
ATOM     34  O   UNL     1       2.856   2.356  19.165  0.00  0.00    +0.000 OA
ATOM     35  H   UNL     1       3.117   1.757  18.437  0.00  0.00    +0.000 HD
ENDBRANCH  33  34
ENDBRANCH  23  33
ENDBRANCH  21  22
ENDBRANCH  20  21
ENDBRANCH   8  20
TORSDOF 10
ENDMDL
MODEL 7
REMARK VINA RESULT:      -7.0      4.489      9.980
REMARK  Name = 
REMARK  10 active torsions:
REMARK  status: ('A' for Active; 'I' for Inactive)
REMARK    1  A    between atoms: C_2  and  C_4
REMARK    2  A    between atoms: C_8  and  C_9
REMARK    3  A    between atoms: N_16  and  C_17
REMARK    4  A    between atoms: C_17  and  C_18
REMARK    5  A    between atoms: C_18  and  N_19
REMARK    6  A    between atoms: N_19  and  C_20
REMARK    7  A    between atoms: C_20  and  C_21
REMARK    8  A    between atoms: C_21  and  C_22
REMARK    9  A    between atoms: C_28  and  C_30
REMARK   10  A    between atoms: C_30  and  O_31
REMARK                            x       y       z     vdW  Elec       q    Type
REMARK                         _______ _______ _______ _____ _____    ______ ____
ROOT
ATOM      1  C   UNL     1       0.786  11.416  20.599  0.00  0.00    +0.000 C 
ATOM      2  C   UNL     1       1.171  11.708  19.107  0.00  0.00    +0.000 C 
ATOM      3  C   UNL     1       0.855  10.575  18.078  0.00  0.00    +0.000 C 
ATOM      4  C   UNL     1      -0.660  10.432  17.966  0.00  0.00    +0.000 C 
ATOM      5  C   UNL     1      -1.009   9.510  19.141  0.00  0.00    +0.000 C 
ATOM      6  C   UNL     1       0.349   9.051  19.709  0.00  0.00    +0.000 C 
ATOM      7  C   UNL     1       0.996   9.909  20.814  0.00  0.00    +0.000 C 
ATOM      8  N   UNL     1       1.159   9.195  18.503  0.00  0.00    +0.000 NA
ENDROOT
BRANCH   1  13
ATOM      9  C   UNL     1      -2.556  13.223  21.424  0.00  0.00    +0.000 A 
ATOM     10  C   UNL     1      -2.887  12.640  22.653  0.00  0.00    +0.000 A 
ATOM     11  C   UNL     1      -2.030  11.714  23.214  0.00  0.00    +0.000 A 
ATOM     12  C   UNL     1      -0.856  11.383  22.543  0.00  0.00    +0.000 A 
ATOM     13  C   UNL     1      -0.530  11.873  21.251  0.00  0.00    +0.000 A 
ATOM     14  C   UNL     1      -1.411  12.810  20.701  0.00  0.00    +0.000 A 
BRANCH   9  16
ATOM     15  N   UNL     1      -2.754  15.506  20.609  0.00  0.00    +0.000 N 
ATOM     16  C   UNL     1      -3.393  14.325  20.877  0.00  0.00    +0.000 C 
ATOM     17  O   UNL     1      -4.576  14.168  20.624  0.00  0.00    +0.000 OA
ATOM     18  H   UNL     1      -3.296  16.215  20.132  0.00  0.00    +0.000 HD
ATOM     19  H   UNL     1      -1.749  15.594  20.595  0.00  0.00    +0.000 HD
ENDBRANCH   9  16
ENDBRANCH   1  13
BRANCH   8  20
ATOM     20  C   UNL     1       2.556   8.773  18.599  0.00  0.00    +0.000 C 
BRANCH  20  21
ATOM     21  C   UNL     1       3.030   7.793  17.475  0.00  0.00    +0.000 C 
BRANCH  21  22
ATOM     22  N   UNL     1       4.196   6.937  17.771  0.00  0.00    +0.000 N 
ATOM     23  C   UNL     1       5.028   6.592  16.692  0.00  0.00    +0.000 C 
ATOM     24  O   UNL     1       4.844   6.985  15.535  0.00  0.00    +0.000 OA
BRANCH  22  25
ATOM     25  C   UNL     1       4.341   6.239  19.055  0.00  0.00    +0.000 C 
BRANCH  25  26
ATOM     26  C   UNL     1       3.534   4.982  19.409  0.00  0.00    +0.000 C 
BRANCH  26  27
ATOM     27  C   UNL     1       2.021   4.975  19.095  0.00  0.00    +0.000 C 
ATOM     28  C   UNL     1       1.648   4.208  17.815  0.00  0.00    +0.000 C 
ATOM     29  C   UNL     1       1.855   2.705  17.954  0.00  0.00    +0.000 C 
ATOM     30  C   UNL     1       1.112   2.129  19.157  0.00  0.00    +0.000 C 
ATOM     31  C   UNL     1       1.370   2.898  20.451  0.00  0.00    +0.000 C 
ATOM     32  C   UNL     1       1.210   4.403  20.278  0.00  0.00    +0.000 C 
ENDBRANCH  26  27
ENDBRANCH  25  26
ENDBRANCH  22  25
BRANCH  23  33
ATOM     33  C   UNL     1       6.225   5.659  16.962  0.00  0.00    +0.000 C 
BRANCH  33  34
ATOM     34  O   UNL     1       7.380   6.025  16.211  0.00  0.00    +0.000 OA
ATOM     35  H   UNL     1       8.079   6.205  16.872  0.00  0.00    +0.000 HD
ENDBRANCH  33  34
ENDBRANCH  23  33
ENDBRANCH  21  22
ENDBRANCH  20  21
ENDBRANCH   8  20
TORSDOF 10
ENDMDL
MODEL 8
REMARK VINA RESULT:      -7.0      4.683     10.379
REMARK  Name = 
REMARK  10 active torsions:
REMARK  status: ('A' for Active; 'I' for Inactive)
REMARK    1  A    between atoms: C_2  and  C_4
REMARK    2  A    between atoms: C_8  and  C_9
REMARK    3  A    between atoms: N_16  and  C_17
REMARK    4  A    between atoms: C_17  and  C_18
REMARK    5  A    between atoms: C_18  and  N_19
REMARK    6  A    between atoms: N_19  and  C_20
REMARK    7  A    between atoms: C_20  and  C_21
REMARK    8  A    between atoms: C_21  and  C_22
REMARK    9  A    between atoms: C_28  and  C_30
REMARK   10  A    between atoms: C_30  and  O_31
REMARK                            x       y       z     vdW  Elec       q    Type
REMARK                         _______ _______ _______ _____ _____    ______ ____
ROOT
ATOM      1  C   UNL     1      -0.940  12.004  19.069  0.00  0.00    +0.000 C 
ATOM      2  C   UNL     1      -1.216  10.465  18.942  0.00  0.00    +0.000 C 
ATOM      3  C   UNL     1      -0.169   9.520  19.615  0.00  0.00    +0.000 C 
ATOM      4  C   UNL     1      -0.249   9.708  21.128  0.00  0.00    +0.000 C 
ATOM      5  C   UNL     1       0.645  10.930  21.372  0.00  0.00    +0.000 C 
ATOM      6  C   UNL     1       1.311  11.220  20.012  0.00  0.00    +0.000 C 
ATOM      7  C   UNL     1       0.586  12.176  19.044  0.00  0.00    +0.000 C 
ATOM      8  N   UNL     1       1.252   9.879  19.440  0.00  0.00    +0.000 NA
ENDROOT
BRANCH   1  13
ATOM      9  C   UNL     1      -3.272  13.542  21.773  0.00  0.00    +0.000 A 
ATOM     10  C   UNL     1      -2.597  14.732  22.071  0.00  0.00    +0.000 A 
ATOM     11  C   UNL     1      -1.438  15.042  21.388  0.00  0.00    +0.000 A 
ATOM     12  C   UNL     1      -0.969  14.163  20.415  0.00  0.00    +0.000 A 
ATOM     13  C   UNL     1      -1.564  12.902  20.151  0.00  0.00    +0.000 A 
ATOM     14  C   UNL     1      -2.737  12.607  20.854  0.00  0.00    +0.000 A 
BRANCH   9  16
ATOM     15  N   UNL     1      -5.660  13.977  21.917  0.00  0.00    +0.000 N 
ATOM     16  C   UNL     1      -4.594  13.263  22.396  0.00  0.00    +0.000 C 
ATOM     17  O   UNL     1      -4.734  12.403  23.248  0.00  0.00    +0.000 OA
ATOM     18  H   UNL     1      -6.574  13.707  22.258  0.00  0.00    +0.000 HD
ATOM     19  H   UNL     1      -5.617  14.524  21.070  0.00  0.00    +0.000 HD
ENDBRANCH   9  16
ENDBRANCH   1  13
BRANCH   8  20
ATOM     20  C   UNL     1       1.873   9.698  18.128  0.00  0.00    +0.000 C 
BRANCH  20  21
ATOM     21  C   UNL     1       2.015   8.211  17.662  0.00  0.00    +0.000 C 
BRANCH  21  22
ATOM     22  N   UNL     1       2.903   7.336  18.454  0.00  0.00    +0.000 N 
ATOM     23  C   UNL     1       4.068   6.866  17.824  0.00  0.00    +0.000 C 
ATOM     24  O   UNL     1       4.388   7.165  16.668  0.00  0.00    +0.000 OA
BRANCH  22  25
ATOM     25  C   UNL     1       2.475   6.745  19.729  0.00  0.00    +0.000 C 
BRANCH  25  26
ATOM     26  C   UNL     1       2.353   5.228  19.937  0.00  0.00    +0.000 C 
BRANCH  26  27
ATOM     27  C   UNL     1       1.223   4.479  19.195  0.00  0.00    +0.000 C 
ATOM     28  C   UNL     1       1.442   4.355  17.678  0.00  0.00    +0.000 C 
ATOM     29  C   UNL     1       2.596   3.423  17.330  0.00  0.00    +0.000 C 
ATOM     30  C   UNL     1       2.433   2.042  17.960  0.00  0.00    +0.000 C 
ATOM     31  C   UNL     1       2.126   2.094  19.455  0.00  0.00    +0.000 C 
ATOM     32  C   UNL     1       1.006   3.072  19.789  0.00  0.00    +0.000 C 
ENDBRANCH  26  27
ENDBRANCH  25  26
ENDBRANCH  22  25
BRANCH  23  33
ATOM     33  C   UNL     1       4.988   5.910  18.609  0.00  0.00    +0.000 C 
BRANCH  33  34
ATOM     34  O   UNL     1       5.686   5.006  17.757  0.00  0.00    +0.000 OA
ATOM     35  H   UNL     1       6.020   4.296  18.342  0.00  0.00    +0.000 HD
ENDBRANCH  33  34
ENDBRANCH  23  33
ENDBRANCH  21  22
ENDBRANCH  20  21
ENDBRANCH   8  20
TORSDOF 10
ENDMDL
MODEL 9
REMARK VINA RESULT:      -7.0      4.595     10.552
REMARK  Name = 
REMARK  10 active torsions:
REMARK  status: ('A' for Active; 'I' for Inactive)
REMARK    1  A    between atoms: C_2  and  C_4
REMARK    2  A    between atoms: C_8  and  C_9
REMARK    3  A    between atoms: N_16  and  C_17
REMARK    4  A    between atoms: C_17  and  C_18
REMARK    5  A    between atoms: C_18  and  N_19
REMARK    6  A    between atoms: N_19  and  C_20
REMARK    7  A    between atoms: C_20  and  C_21
REMARK    8  A    between atoms: C_21  and  C_22
REMARK    9  A    between atoms: C_28  and  C_30
REMARK   10  A    between atoms: C_30  and  O_31
REMARK                            x       y       z     vdW  Elec       q    Type
REMARK                         _______ _______ _______ _____ _____    ______ ____
ROOT
ATOM      1  C   UNL     1       0.308  11.100  21.766  0.00  0.00    +0.000 C 
ATOM      2  C   UNL     1       1.522  11.463  20.842  0.00  0.00    +0.000 C 
ATOM      3  C   UNL     1       1.316  11.228  19.310  0.00  0.00    +0.000 C 
ATOM      4  C   UNL     1       0.262  12.210  18.807  0.00  0.00    +0.000 C 
ATOM      5  C   UNL     1      -1.056  11.497  19.129  0.00  0.00    +0.000 C 
ATOM      6  C   UNL     1      -0.646  10.091  19.612  0.00  0.00    +0.000 C 
ATOM      7  C   UNL     1      -0.386   9.893  21.118  0.00  0.00    +0.000 C 
ATOM      8  N   UNL     1       0.634   9.979  18.921  0.00  0.00    +0.000 NA
ENDROOT
BRANCH   1  13
ATOM      9  C   UNL     1      -2.919  12.818  23.088  0.00  0.00    +0.000 A 
ATOM     10  C   UNL     1      -2.547  14.167  23.047  0.00  0.00    +0.000 A 
ATOM     11  C   UNL     1      -1.298  14.510  22.570  0.00  0.00    +0.000 A 
ATOM     12  C   UNL     1      -0.437  13.504  22.139  0.00  0.00    +0.000 A 
ATOM     13  C   UNL     1      -0.734  12.121  22.255  0.00  0.00    +0.000 A 
ATOM     14  C   UNL     1      -2.004  11.795  22.741  0.00  0.00    +0.000 A 
BRANCH   9  16
ATOM     15  N   UNL     1      -4.507  12.037  24.756  0.00  0.00    +0.000 N 
ATOM     16  C   UNL     1      -4.309  12.443  23.463  0.00  0.00    +0.000 C 
ATOM     17  O   UNL     1      -5.237  12.546  22.678  0.00  0.00    +0.000 OA
ATOM     18  H   UNL     1      -5.467  11.893  25.042  0.00  0.00    +0.000 HD
ATOM     19  H   UNL     1      -3.814  12.155  25.480  0.00  0.00    +0.000 HD
ENDBRANCH   9  16
ENDBRANCH   1  13
BRANCH   8  20
ATOM     20  C   UNL     1       1.345   8.708  19.061  0.00  0.00    +0.000 C 
BRANCH  20  21
ATOM     21  C   UNL     1       2.475   8.462  18.006  0.00  0.00    +0.000 C 
BRANCH  21  22
ATOM     22  N   UNL     1       3.216   7.189  18.093  0.00  0.00    +0.000 N 
ATOM     23  C   UNL     1       4.122   6.902  17.057  0.00  0.00    +0.000 C 
ATOM     24  O   UNL     1       4.338   7.664  16.108  0.00  0.00    +0.000 OA
BRANCH  22  25
ATOM     25  C   UNL     1       2.841   6.135  19.044  0.00  0.00    +0.000 C 
BRANCH  25  26
ATOM     26  C   UNL     1       1.855   5.012  18.688  0.00  0.00    +0.000 C 
BRANCH  26  27
ATOM     27  C   UNL     1       1.744   3.807  19.649  0.00  0.00    +0.000 C 
ATOM     28  C   UNL     1       1.176   2.534  18.998  0.00  0.00    +0.000 C 
ATOM     29  C   UNL     1       2.133   1.923  17.982  0.00  0.00    +0.000 C 
ATOM     30  C   UNL     1       3.511   1.648  18.578  0.00  0.00    +0.000 C 
ATOM     31  C   UNL     1       4.099   2.848  19.317  0.00  0.00    +0.000 C 
ATOM     32  C   UNL     1       3.109   3.479  20.289  0.00  0.00    +0.000 C 
ENDBRANCH  26  27
ENDBRANCH  25  26
ENDBRANCH  22  25
BRANCH  23  33
ATOM     33  C   UNL     1       4.874   5.556  17.096  0.00  0.00    +0.000 C 
BRANCH  33  34
ATOM     34  O   UNL     1       5.764   5.400  15.994  0.00  0.00    +0.000 OA
ATOM     35  H   UNL     1       6.045   6.306  15.751  0.00  0.00    +0.000 HD
ENDBRANCH  33  34
ENDBRANCH  23  33
ENDBRANCH  21  22
ENDBRANCH  20  21
ENDBRANCH   8  20
TORSDOF 10
ENDMDL
