MODEL 1
REMARK VINA RESULT:      -8.7      0.000      0.000
REMARK  Name = 
REMARK  12 active torsions:
REMARK  status: ('A' for Active; 'I' for Inactive)
REMARK    1  A    between atoms: C_1  and  C_2
REMARK    2  A    between atoms: C_2  and  O_3
REMARK    3  A    between atoms: O_3  and  C_4
REMARK    4  A    between atoms: C_7  and  S_8
REMARK    5  A    between atoms: S_8  and  N_11
REMARK    6  A    between atoms: N_11  and  C_12
REMARK    7  A    between atoms: N_11  and  C_19
REMARK    8  A    between atoms: C_12  and  C_13
REMARK    9  A    between atoms: C_19  and  C_20
REMARK   10  A    between atoms: C_23  and  C_24
REMARK   11  A    between atoms: N_26  and  C_27
REMARK   12  A    between atoms: C_27  and  C_28
REMARK                            x       y       z     vdW  Elec       q    Type
REMARK                         _______ _______ _______ _____ _____    ______ ____
ROOT
ATOM      1  N   UNL     1       3.909   4.616  17.175  0.00  0.00    +0.000 NA
ENDROOT
BRANCH   1   2
ATOM      2  S   UNL     1       5.286   4.368  16.138  0.00  0.00    +0.000 S 
ATOM      3  O   UNL     1       4.972   4.962  14.852  0.00  0.00    +0.000 OA
ATOM      4  O   UNL     1       5.781   3.011  16.187  0.00  0.00    +0.000 OA
BRANCH   2   8
ATOM      5  C   UNL     1       8.094   7.184  18.373  0.00  0.00    +0.000 A 
ATOM      6  C   UNL     1       7.584   7.557  17.128  0.00  0.00    +0.000 A 
ATOM      7  C   UNL     1       6.821   6.654  16.376  0.00  0.00    +0.000 A 
ATOM      8  C   UNL     1       6.600   5.357  16.862  0.00  0.00    +0.000 A 
ATOM      9  C   UNL     1       7.162   4.965  18.078  0.00  0.00    +0.000 A 
ATOM     10  C   UNL     1       7.919   5.876  18.824  0.00  0.00    +0.000 A 
BRANCH   5  11
ATOM     11  O   UNL     1       8.712   8.184  19.075  0.00  0.00    +0.000 OA
BRANCH  11  13
ATOM     12  C   UNL     1       9.420  10.460  19.362  0.00  0.00    +0.000 C 
ATOM     13  C   UNL     1       8.577   9.505  18.534  0.00  0.00    +0.000 C 
ENDBRANCH  11  13
ENDBRANCH   5  11
ENDBRANCH   2   8
ENDBRANCH   1   2
BRANCH   1  14
ATOM     14  C   UNL     1       3.221   3.312  17.483  0.00  0.00    +0.000 C 
BRANCH  14  15
ATOM     15  C   UNL     1       2.606   3.166  18.866  0.00  0.00    +0.000 A 
ATOM     16  C   UNL     1       3.370   2.748  19.961  0.00  0.00    +0.000 A 
ATOM     17  C   UNL     1       2.801   2.680  21.242  0.00  0.00    +0.000 A 
ATOM     18  C   UNL     1       1.463   3.023  21.435  0.00  0.00    +0.000 A 
ATOM     19  C   UNL     1       0.687   3.426  20.357  0.00  0.00    +0.000 A 
ATOM     20  C   UNL     1       1.257   3.500  19.077  0.00  0.00    +0.000 A 
ENDBRANCH  14  15
ENDBRANCH   1  14
BRANCH   1  21
ATOM     21  C   UNL     1       4.245   5.347  18.442  0.00  0.00    +0.000 C 
BRANCH  21  22
ATOM     22  C   UNL     1       3.437   6.602  18.654  0.00  0.00    +0.000 A 
ATOM     23  C   UNL     1       2.676   6.784  19.819  0.00  0.00    +0.000 A 
ATOM     24  C   UNL     1       1.760   7.837  19.893  0.00  0.00    +0.000 A 
ATOM     25  C   UNL     1       1.589   8.723  18.820  0.00  0.00    +0.000 A 
ATOM     26  C   UNL     1       2.383   8.561  17.677  0.00  0.00    +0.000 A 
ATOM     27  C   UNL     1       3.318   7.531  17.609  0.00  0.00    +0.000 A 
BRANCH  25  28
ATOM     28  C   UNL     1       0.525   9.771  18.928  0.00  0.00    +0.000 C 
ATOM     29  O   UNL     1       0.348  10.362  19.989  0.00  0.00    +0.000 OA
ATOM     30  N   UNL     1      -0.228  10.033  17.803  0.00  0.00    +0.000 N 
ATOM     31  H   UNL     1      -0.051   9.560  16.934  0.00  0.00    +0.000 HD
BRANCH  30  32
ATOM     32  C   UNL     1      -1.294  11.004  17.820  0.00  0.00    +0.000 C 
BRANCH  32  33
ATOM     33  C   UNL     1      -2.589  10.315  17.521  0.00  0.00    +0.000 C 
ATOM     34  C   UNL     1      -3.732  11.079  16.896  0.00  0.00    +0.000 C 
ATOM     35  C   UNL     1      -3.010  10.028  16.101  0.00  0.00    +0.000 C 
ENDBRANCH  32  33
ENDBRANCH  30  32
ENDBRANCH  25  28
ENDBRANCH  21  22
ENDBRANCH   1  21
TORSDOF 11
ENDMDL
MODEL 2
REMARK VINA RESULT:      -8.5      2.315      3.971
REMARK  Name = 
REMARK  12 active torsions:
REMARK  status: ('A' for Active; 'I' for Inactive)
REMARK    1  A    between atoms: C_1  and  C_2
REMARK    2  A    between atoms: C_2  and  O_3
REMARK    3  A    between atoms: O_3  and  C_4
REMARK    4  A    between atoms: C_7  and  S_8
REMARK    5  A    between atoms: S_8  and  N_11
REMARK    6  A    between atoms: N_11  and  C_12
REMARK    7  A    between atoms: N_11  and  C_19
REMARK    8  A    between atoms: C_12  and  C_13
REMARK    9  A    between atoms: C_19  and  C_20
REMARK   10  A    between atoms: C_23  and  C_24
REMARK   11  A    between atoms: N_26  and  C_27
REMARK   12  A    between atoms: C_27  and  C_28
REMARK                            x       y       z     vdW  Elec       q    Type
REMARK                         _______ _______ _______ _____ _____    ______ ____
ROOT
ATOM      1  N   UNL     1       4.562   5.070  18.123  0.00  0.00    +0.000 NA
ENDROOT
BRANCH   1   2
ATOM      2  S   UNL     1       6.205   5.306  17.596  0.00  0.00    +0.000 S 
ATOM      3  O   UNL     1       7.000   4.230  18.158  0.00  0.00    +0.000 OA
ATOM      4  O   UNL     1       6.650   6.672  17.762  0.00  0.00    +0.000 OA
BRANCH   2   8
ATOM      5  C   UNL     1       6.340   3.990  13.231  0.00  0.00    +0.000 A 
ATOM      6  C   UNL     1       7.434   4.655  13.789  0.00  0.00    +0.000 A 
ATOM      7  C   UNL     1       7.359   5.173  15.089  0.00  0.00    +0.000 A 
ATOM      8  C   UNL     1       6.167   5.054  15.819  0.00  0.00    +0.000 A 
ATOM      9  C   UNL     1       5.054   4.443  15.237  0.00  0.00    +0.000 A 
ATOM     10  C   UNL     1       5.139   3.926  13.939  0.00  0.00    +0.000 A 
BRANCH   5  11
ATOM     11  O   UNL     1       6.567   3.415  12.010  0.00  0.00    +0.000 OA
BRANCH  11  13
ATOM     12  C   UNL     1       6.486   1.199  11.090  0.00  0.00    +0.000 C 
ATOM     13  C   UNL     1       5.672   2.359  11.639  0.00  0.00    +0.000 C 
ENDBRANCH  11  13
ENDBRANCH   5  11
ENDBRANCH   2   8
ENDBRANCH   1   2
BRANCH   1  14
ATOM     14  C   UNL     1       4.278   3.612  18.376  0.00  0.00    +0.000 C 
BRANCH  14  15
ATOM     15  C   UNL     1       3.169   3.287  19.363  0.00  0.00    +0.000 A 
ATOM     16  C   UNL     1       3.455   2.838  20.657  0.00  0.00    +0.000 A 
ATOM     17  C   UNL     1       2.420   2.603  21.575  0.00  0.00    +0.000 A 
ATOM     18  C   UNL     1       1.092   2.809  21.203  0.00  0.00    +0.000 A 
ATOM     19  C   UNL     1       0.789   3.240  19.919  0.00  0.00    +0.000 A 
ATOM     20  C   UNL     1       1.823   3.481  19.002  0.00  0.00    +0.000 A 
ENDBRANCH  14  15
ENDBRANCH   1  14
BRANCH   1  21
ATOM     21  C   UNL     1       4.200   5.894  19.323  0.00  0.00    +0.000 C 
BRANCH  21  22
ATOM     22  C   UNL     1       3.090   6.882  19.073  0.00  0.00    +0.000 A 
ATOM     23  C   UNL     1       3.015   7.596  17.867  0.00  0.00    +0.000 A 
ATOM     24  C   UNL     1       2.124   8.666  17.747  0.00  0.00    +0.000 A 
ATOM     25  C   UNL     1       1.296   9.040  18.814  0.00  0.00    +0.000 A 
ATOM     26  C   UNL     1       1.345   8.297  20.001  0.00  0.00    +0.000 A 
ATOM     27  C   UNL     1       2.210   7.212  20.116  0.00  0.00    +0.000 A 
BRANCH  25  28
ATOM     28  C   UNL     1       0.434  10.254  18.651  0.00  0.00    +0.000 C 
ATOM     29  O   UNL     1       0.651  11.259  19.324  0.00  0.00    +0.000 OA
ATOM     30  N   UNL     1      -0.589  10.190  17.730  0.00  0.00    +0.000 N 
ATOM     31  H   UNL     1      -0.735   9.370  17.167  0.00  0.00    +0.000 HD
BRANCH  30  32
ATOM     32  C   UNL     1      -1.488  11.299  17.525  0.00  0.00    +0.000 C 
BRANCH  32  33
ATOM     33  C   UNL     1      -2.738  10.801  16.867  0.00  0.00    +0.000 C 
ATOM     34  C   UNL     1      -3.807  10.115  17.684  0.00  0.00    +0.000 C 
ATOM     35  C   UNL     1      -4.065  11.477  17.104  0.00  0.00    +0.000 C 
ENDBRANCH  32  33
ENDBRANCH  30  32
ENDBRANCH  25  28
ENDBRANCH  21  22
ENDBRANCH   1  21
TORSDOF 11
ENDMDL
MODEL 3
REMARK VINA RESULT:      -8.4      0.501      1.037
REMARK  Name = 
REMARK  12 active torsions:
REMARK  status: ('A' for Active; 'I' for Inactive)
REMARK    1  A    between atoms: C_1  and  C_2
REMARK    2  A    between atoms: C_2  and  O_3
REMARK    3  A    between atoms: O_3  and  C_4
REMARK    4  A    between atoms: C_7  and  S_8
REMARK    5  A    between atoms: S_8  and  N_11
REMARK    6  A    between atoms: N_11  and  C_12
REMARK    7  A    between atoms: N_11  and  C_19
REMARK    8  A    between atoms: C_12  and  C_13
REMARK    9  A    between atoms: C_19  and  C_20
REMARK   10  A    between atoms: C_23  and  C_24
REMARK   11  A    between atoms: N_26  and  C_27
REMARK   12  A    between atoms: C_27  and  C_28
REMARK                            x       y       z     vdW  Elec       q    Type
REMARK                         _______ _______ _______ _____ _____    ______ ____
ROOT
ATOM      1  N   UNL     1       4.199   4.605  17.382  0.00  0.00    +0.000 NA
ENDROOT
BRANCH   1   2
ATOM      2  S   UNL     1       5.473   4.655  16.195  0.00  0.00    +0.000 S 
ATOM      3  O   UNL     1       4.970   5.392  15.050  0.00  0.00    +0.000 OA
ATOM      4  O   UNL     1       6.088   3.364  15.988  0.00  0.00    +0.000 OA
BRANCH   2   8
ATOM      5  C   UNL     1       8.214   7.500  18.475  0.00  0.00    +0.000 A 
ATOM      6  C   UNL     1       7.707   7.875  17.229  0.00  0.00    +0.000 A 
ATOM      7  C   UNL     1       6.966   6.964  16.463  0.00  0.00    +0.000 A 
ATOM      8  C   UNL     1       6.763   5.660  16.937  0.00  0.00    +0.000 A 
ATOM      9  C   UNL     1       7.323   5.268  18.154  0.00  0.00    +0.000 A 
ATOM     10  C   UNL     1       8.059   6.185  18.913  0.00  0.00    +0.000 A 
BRANCH   5  11
ATOM     11  O   UNL     1       8.810   8.505  19.189  0.00  0.00    +0.000 OA
BRANCH  11  13
ATOM     12  C   UNL     1       9.787  10.697  19.175  0.00  0.00    +0.000 C 
ATOM     13  C   UNL     1       8.652   9.828  18.660  0.00  0.00    +0.000 C 
ENDBRANCH  11  13
ENDBRANCH   5  11
ENDBRANCH   2   8
ENDBRANCH   1   2
BRANCH   1  14
ATOM     14  C   UNL     1       4.031   3.216  17.938  0.00  0.00    +0.000 C 
BRANCH  14  15
ATOM     15  C   UNL     1       3.045   3.046  19.084  0.00  0.00    +0.000 A 
ATOM     16  C   UNL     1       3.478   2.728  20.375  0.00  0.00    +0.000 A 
ATOM     17  C   UNL     1       2.561   2.638  21.433  0.00  0.00    +0.000 A 
ATOM     18  C   UNL     1       1.203   2.860  21.205  0.00  0.00    +0.000 A 
ATOM     19  C   UNL     1       0.754   3.162  19.927  0.00  0.00    +0.000 A 
ATOM     20  C   UNL     1       1.671   3.259  18.870  0.00  0.00    +0.000 A 
ENDBRANCH  14  15
ENDBRANCH   1  14
BRANCH   1  21
ATOM     21  C   UNL     1       4.382   5.599  18.490  0.00  0.00    +0.000 C 
BRANCH  21  22
ATOM     22  C   UNL     1       3.298   6.644  18.559  0.00  0.00    +0.000 A 
ATOM     23  C   UNL     1       3.120   7.571  17.520  0.00  0.00    +0.000 A 
ATOM     24  C   UNL     1       2.272   8.666  17.705  0.00  0.00    +0.000 A 
ATOM     25  C   UNL     1       1.588   8.856  18.914  0.00  0.00    +0.000 A 
ATOM     26  C   UNL     1       1.737   7.903  19.931  0.00  0.00    +0.000 A 
ATOM     27  C   UNL     1       2.558   6.795  19.742  0.00  0.00    +0.000 A 
BRANCH  25  28
ATOM     28  C   UNL     1       0.771  10.099  19.079  0.00  0.00    +0.000 C 
ATOM     29  O   UNL     1       0.979  10.853  20.026  0.00  0.00    +0.000 OA
ATOM     30  N   UNL     1      -0.204  10.351  18.137  0.00  0.00    +0.000 N 
ATOM     31  H   UNL     1      -0.342   9.739  17.352  0.00  0.00    +0.000 HD
BRANCH  30  32
ATOM     32  C   UNL     1      -1.059  11.508  18.230  0.00  0.00    +0.000 C 
BRANCH  32  33
ATOM     33  C   UNL     1      -2.239  11.319  17.328  0.00  0.00    +0.000 C 
ATOM     34  C   UNL     1      -2.675   9.930  16.923  0.00  0.00    +0.000 C 
ATOM     35  C   UNL     1      -3.534  10.746  17.848  0.00  0.00    +0.000 C 
ENDBRANCH  32  33
ENDBRANCH  30  32
ENDBRANCH  25  28
ENDBRANCH  21  22
ENDBRANCH   1  21
TORSDOF 11
ENDMDL
MODEL 4
REMARK VINA RESULT:      -8.4      1.524      2.221
REMARK  Name = 
REMARK  12 active torsions:
REMARK  status: ('A' for Active; 'I' for Inactive)
REMARK    1  A    between atoms: C_1  and  C_2
REMARK    2  A    between atoms: C_2  and  O_3
REMARK    3  A    between atoms: O_3  and  C_4
REMARK    4  A    between atoms: C_7  and  S_8
REMARK    5  A    between atoms: S_8  and  N_11
REMARK    6  A    between atoms: N_11  and  C_12
REMARK    7  A    between atoms: N_11  and  C_19
REMARK    8  A    between atoms: C_12  and  C_13
REMARK    9  A    between atoms: C_19  and  C_20
REMARK   10  A    between atoms: C_23  and  C_24
REMARK   11  A    between atoms: N_26  and  C_27
REMARK   12  A    between atoms: C_27  and  C_28
REMARK                            x       y       z     vdW  Elec       q    Type
REMARK                         _______ _______ _______ _____ _____    ______ ____
ROOT
ATOM      1  N   UNL     1       4.031   4.439  17.126  0.00  0.00    +0.000 NA
ENDROOT
BRANCH   1   2
ATOM      2  S   UNL     1       5.374   4.354  16.021  0.00  0.00    +0.000 S 
ATOM      3  O   UNL     1       4.956   4.985  14.782  0.00  0.00    +0.000 OA
ATOM      4  O   UNL     1       5.974   3.040  15.976  0.00  0.00    +0.000 OA
BRANCH   2   8
ATOM      5  C   UNL     1       8.057   7.257  18.295  0.00  0.00    +0.000 A 
ATOM      6  C   UNL     1       7.444   7.664  17.109  0.00  0.00    +0.000 A 
ATOM      7  C   UNL     1       6.718   6.748  16.337  0.00  0.00    +0.000 A 
ATOM      8  C   UNL     1       6.638   5.406  16.741  0.00  0.00    +0.000 A 
ATOM      9  C   UNL     1       7.304   4.987  17.894  0.00  0.00    +0.000 A 
ATOM     10  C   UNL     1       8.023   5.911  18.661  0.00  0.00    +0.000 A 
BRANCH   5  11
ATOM     11  O   UNL     1       8.629   8.260  19.032  0.00  0.00    +0.000 OA
BRANCH  11  13
ATOM     12  C   UNL     1       9.438  10.504  19.300  0.00  0.00    +0.000 C 
ATOM     13  C   UNL     1       8.634   9.558  18.424  0.00  0.00    +0.000 C 
ENDBRANCH  11  13
ENDBRANCH   5  11
ENDBRANCH   2   8
ENDBRANCH   1   2
BRANCH   1  14
ATOM     14  C   UNL     1       3.607   3.063  17.570  0.00  0.00    +0.000 C 
BRANCH  14  15
ATOM     15  C   UNL     1       2.802   2.971  18.857  0.00  0.00    +0.000 A 
ATOM     16  C   UNL     1       3.419   2.695  20.082  0.00  0.00    +0.000 A 
ATOM     17  C   UNL     1       2.670   2.677  21.269  0.00  0.00    +0.000 A 
ATOM     18  C   UNL     1       1.298   2.928  21.237  0.00  0.00    +0.000 A 
ATOM     19  C   UNL     1       0.668   3.189  20.028  0.00  0.00    +0.000 A 
ATOM     20  C   UNL     1       1.417   3.213  18.842  0.00  0.00    +0.000 A 
ENDBRANCH  14  15
ENDBRANCH   1  14
BRANCH   1  21
ATOM     21  C   UNL     1       4.294   5.318  18.312  0.00  0.00    +0.000 C 
BRANCH  21  22
ATOM     22  C   UNL     1       3.293   6.434  18.478  0.00  0.00    +0.000 A 
ATOM     23  C   UNL     1       3.149   7.428  17.499  0.00  0.00    +0.000 A 
ATOM     24  C   UNL     1       2.391   8.570  17.775  0.00  0.00    +0.000 A 
ATOM     25  C   UNL     1       1.766   8.740  19.018  0.00  0.00    +0.000 A 
ATOM     26  C   UNL     1       1.879   7.723  19.976  0.00  0.00    +0.000 A 
ATOM     27  C   UNL     1       2.608   6.570  19.696  0.00  0.00    +0.000 A 
BRANCH  25  28
ATOM     28  C   UNL     1       1.050  10.028  19.281  0.00  0.00    +0.000 C 
ATOM     29  O   UNL     1       0.223  10.099  20.187  0.00  0.00    +0.000 OA
ATOM     30  N   UNL     1       1.358  11.104  18.477  0.00  0.00    +0.000 N 
ATOM     31  H   UNL     1       2.058  11.037  17.759  0.00  0.00    +0.000 HD
BRANCH  30  32
ATOM     32  C   UNL     1       0.698  12.377  18.637  0.00  0.00    +0.000 C 
BRANCH  32  33
ATOM     33  C   UNL     1       1.679  13.475  18.366  0.00  0.00    +0.000 C 
ATOM     34  C   UNL     1       1.404  14.879  18.850  0.00  0.00    +0.000 C 
ATOM     35  C   UNL     1       2.506  14.073  19.477  0.00  0.00    +0.000 C 
ENDBRANCH  32  33
ENDBRANCH  30  32
ENDBRANCH  25  28
ENDBRANCH  21  22
ENDBRANCH   1  21
TORSDOF 11
ENDMDL
MODEL 5
REMARK VINA RESULT:      -8.3      0.613      1.316
REMARK  Name = 
REMARK  12 active torsions:
REMARK  status: ('A' for Active; 'I' for Inactive)
REMARK    1  A    between atoms: C_1  and  C_2
REMARK    2  A    between atoms: C_2  and  O_3
REMARK    3  A    between atoms: O_3  and  C_4
REMARK    4  A    between atoms: C_7  and  S_8
REMARK    5  A    between atoms: S_8  and  N_11
REMARK    6  A    between atoms: N_11  and  C_12
REMARK    7  A    between atoms: N_11  and  C_19
REMARK    8  A    between atoms: C_12  and  C_13
REMARK    9  A    between atoms: C_19  and  C_20
REMARK   10  A    between atoms: C_23  and  C_24
REMARK   11  A    between atoms: N_26  and  C_27
REMARK   12  A    between atoms: C_27  and  C_28
REMARK                            x       y       z     vdW  Elec       q    Type
REMARK                         _______ _______ _______ _____ _____    ______ ____
ROOT
ATOM      1  N   UNL     1       4.302   4.740  17.455  0.00  0.00    +0.000 NA
ENDROOT
BRANCH   1   2
ATOM      2  S   UNL     1       5.587   4.773  16.281  0.00  0.00    +0.000 S 
ATOM      3  O   UNL     1       5.064   5.406  15.084  0.00  0.00    +0.000 OA
ATOM      4  O   UNL     1       6.268   3.503  16.167  0.00  0.00    +0.000 OA
BRANCH   2   8
ATOM      5  C   UNL     1       8.192   7.792  18.495  0.00  0.00    +0.000 A 
ATOM      6  C   UNL     1       7.496   8.185  17.350  0.00  0.00    +0.000 A 
ATOM      7  C   UNL     1       6.792   7.240  16.591  0.00  0.00    +0.000 A 
ATOM      8  C   UNL     1       6.817   5.888  16.964  0.00  0.00    +0.000 A 
ATOM      9  C   UNL     1       7.564   5.488  18.073  0.00  0.00    +0.000 A 
ATOM     10  C   UNL     1       8.262   6.439  18.827  0.00  0.00    +0.000 A 
BRANCH   5  11
ATOM     11  O   UNL     1       8.735   8.814  19.227  0.00  0.00    +0.000 OA
BRANCH  11  13
ATOM     12  C   UNL     1       9.788  10.960  19.440  0.00  0.00    +0.000 C 
ATOM     13  C   UNL     1       9.162   9.961  18.482  0.00  0.00    +0.000 C 
ENDBRANCH  11  13
ENDBRANCH   5  11
ENDBRANCH   2   8
ENDBRANCH   1   2
BRANCH   1  14
ATOM     14  C   UNL     1       4.206   3.390  18.116  0.00  0.00    +0.000 C 
BRANCH  14  15
ATOM     15  C   UNL     1       3.132   3.217  19.179  0.00  0.00    +0.000 A 
ATOM     16  C   UNL     1       1.774   3.342  18.867  0.00  0.00    +0.000 A 
ATOM     17  C   UNL     1       0.794   3.117  19.847  0.00  0.00    +0.000 A 
ATOM     18  C   UNL     1       1.167   2.772  21.146  0.00  0.00    +0.000 A 
ATOM     19  C   UNL     1       2.511   2.658  21.475  0.00  0.00    +0.000 A 
ATOM     20  C   UNL     1       3.490   2.877  20.495  0.00  0.00    +0.000 A 
ENDBRANCH  14  15
ENDBRANCH   1  14
BRANCH   1  21
ATOM     21  C   UNL     1       4.412   5.825  18.485  0.00  0.00    +0.000 C 
BRANCH  21  22
ATOM     22  C   UNL     1       3.271   6.809  18.460  0.00  0.00    +0.000 A 
ATOM     23  C   UNL     1       3.117   7.712  17.397  0.00  0.00    +0.000 A 
ATOM     24  C   UNL     1       2.199   8.761  17.504  0.00  0.00    +0.000 A 
ATOM     25  C   UNL     1       1.422   8.927  18.659  0.00  0.00    +0.000 A 
ATOM     26  C   UNL     1       1.550   7.997  19.699  0.00  0.00    +0.000 A 
ATOM     27  C   UNL     1       2.442   6.933  19.587  0.00  0.00    +0.000 A 
BRANCH  25  28
ATOM     28  C   UNL     1       0.528  10.125  18.745  0.00  0.00    +0.000 C 
ATOM     29  O   UNL     1       0.805  11.046  19.508  0.00  0.00    +0.000 OA
ATOM     30  N   UNL     1      -0.593  10.143  17.944  0.00  0.00    +0.000 N 
ATOM     31  H   UNL     1      -0.791   9.393  17.304  0.00  0.00    +0.000 HD
BRANCH  30  32
ATOM     32  C   UNL     1      -1.528  11.241  17.981  0.00  0.00    +0.000 C 
BRANCH  32  33
ATOM     33  C   UNL     1      -2.905  10.721  17.709  0.00  0.00    +0.000 C 
ATOM     34  C   UNL     1      -4.100  11.640  17.808  0.00  0.00    +0.000 C 
ATOM     35  C   UNL     1      -3.660  11.126  16.467  0.00  0.00    +0.000 C 
ENDBRANCH  32  33
ENDBRANCH  30  32
ENDBRANCH  25  28
ENDBRANCH  21  22
ENDBRANCH   1  21
TORSDOF 11
ENDMDL
MODEL 6
REMARK VINA RESULT:      -8.2      2.261      3.983
REMARK  Name = 
REMARK  12 active torsions:
REMARK  status: ('A' for Active; 'I' for Inactive)
REMARK    1  A    between atoms: C_1  and  C_2
REMARK    2  A    between atoms: C_2  and  O_3
REMARK    3  A    between atoms: O_3  and  C_4
REMARK    4  A    between atoms: C_7  and  S_8
REMARK    5  A    between atoms: S_8  and  N_11
REMARK    6  A    between atoms: N_11  and  C_12
REMARK    7  A    between atoms: N_11  and  C_19
REMARK    8  A    between atoms: C_12  and  C_13
REMARK    9  A    between atoms: C_19  and  C_20
REMARK   10  A    between atoms: C_23  and  C_24
REMARK   11  A    between atoms: N_26  and  C_27
REMARK   12  A    between atoms: C_27  and  C_28
REMARK                            x       y       z     vdW  Elec       q    Type
REMARK                         _______ _______ _______ _____ _____    ______ ____
ROOT
ATOM      1  N   UNL     1       4.727   5.145  18.326  0.00  0.00    +0.000 NA
ENDROOT
BRANCH   1   2
ATOM      2  S   UNL     1       6.334   5.343  17.686  0.00  0.00    +0.000 S 
ATOM      3  O   UNL     1       7.148   4.266  18.218  0.00  0.00    +0.000 OA
ATOM      4  O   UNL     1       6.809   6.704  17.791  0.00  0.00    +0.000 OA
BRANCH   2   8
ATOM      5  C   UNL     1       6.252   3.969  13.338  0.00  0.00    +0.000 A 
ATOM      6  C   UNL     1       7.298   4.775  13.791  0.00  0.00    +0.000 A 
ATOM      7  C   UNL     1       7.273   5.305  15.088  0.00  0.00    +0.000 A 
ATOM      8  C   UNL     1       6.173   5.053  15.921  0.00  0.00    +0.000 A 
ATOM      9  C   UNL     1       5.099   4.299  15.446  0.00  0.00    +0.000 A 
ATOM     10  C   UNL     1       5.135   3.770  14.150  0.00  0.00    +0.000 A 
BRANCH   5  11
ATOM     11  O   UNL     1       6.442   3.402  12.106  0.00  0.00    +0.000 OA
BRANCH  11  13
ATOM     12  C   UNL     1       4.255   3.327  11.120  0.00  0.00    +0.000 C 
ATOM     13  C   UNL     1       5.414   2.507  11.663  0.00  0.00    +0.000 C 
ENDBRANCH  11  13
ENDBRANCH   5  11
ENDBRANCH   2   8
ENDBRANCH   1   2
BRANCH   1  14
ATOM     14  C   UNL     1       4.507   3.736  18.813  0.00  0.00    +0.000 C 
BRANCH  14  15
ATOM     15  C   UNL     1       3.095   3.366  19.238  0.00  0.00    +0.000 A 
ATOM     16  C   UNL     1       2.071   3.205  18.299  0.00  0.00    +0.000 A 
ATOM     17  C   UNL     1       0.789   2.802  18.703  0.00  0.00    +0.000 A 
ATOM     18  C   UNL     1       0.521   2.562  20.051  0.00  0.00    +0.000 A 
ATOM     19  C   UNL     1       1.522   2.732  20.998  0.00  0.00    +0.000 A 
ATOM     20  C   UNL     1       2.805   3.129  20.594  0.00  0.00    +0.000 A 
ENDBRANCH  14  15
ENDBRANCH   1  14
BRANCH   1  21
ATOM     21  C   UNL     1       4.391   6.133  19.404  0.00  0.00    +0.000 C 
BRANCH  21  22
ATOM     22  C   UNL     1       3.223   7.025  19.071  0.00  0.00    +0.000 A 
ATOM     23  C   UNL     1       3.166   7.721  17.854  0.00  0.00    +0.000 A 
ATOM     24  C   UNL     1       2.200   8.713  17.664  0.00  0.00    +0.000 A 
ATOM     25  C   UNL     1       1.278   9.026  18.673  0.00  0.00    +0.000 A 
ATOM     26  C   UNL     1       1.313   8.299  19.870  0.00  0.00    +0.000 A 
ATOM     27  C   UNL     1       2.255   7.289  20.054  0.00  0.00    +0.000 A 
BRANCH  25  28
ATOM     28  C   UNL     1       0.333  10.164  18.441  0.00  0.00    +0.000 C 
ATOM     29  O   UNL     1       0.541  11.255  18.964  0.00  0.00    +0.000 OA
ATOM     30  N   UNL     1      -0.756   9.931  17.629  0.00  0.00    +0.000 N 
ATOM     31  H   UNL     1      -0.897   9.040  17.185  0.00  0.00    +0.000 HD
BRANCH  30  32
ATOM     32  C   UNL     1      -1.736  10.957  17.371  0.00  0.00    +0.000 C 
BRANCH  32  33
ATOM     33  C   UNL     1      -3.042  10.312  17.023  0.00  0.00    +0.000 C 
ATOM     34  C   UNL     1      -4.307  10.714  17.744  0.00  0.00    +0.000 C 
ATOM     35  C   UNL     1      -4.121  11.077  16.297  0.00  0.00    +0.000 C 
ENDBRANCH  32  33
ENDBRANCH  30  32
ENDBRANCH  25  28
ENDBRANCH  21  22
ENDBRANCH   1  21
TORSDOF 11
ENDMDL
MODEL 7
REMARK VINA RESULT:      -8.1      2.200      3.894
REMARK  Name = 
REMARK  12 active torsions:
REMARK  status: ('A' for Active; 'I' for Inactive)
REMARK    1  A    between atoms: C_1  and  C_2
REMARK    2  A    between atoms: C_2  and  O_3
REMARK    3  A    between atoms: O_3  and  C_4
REMARK    4  A    between atoms: C_7  and  S_8
REMARK    5  A    between atoms: S_8  and  N_11
REMARK    6  A    between atoms: N_11  and  C_12
REMARK    7  A    between atoms: N_11  and  C_19
REMARK    8  A    between atoms: C_12  and  C_13
REMARK    9  A    between atoms: C_19  and  C_20
REMARK   10  A    between atoms: C_23  and  C_24
REMARK   11  A    between atoms: N_26  and  C_27
REMARK   12  A    between atoms: C_27  and  C_28
REMARK                            x       y       z     vdW  Elec       q    Type
REMARK                         _______ _______ _______ _____ _____    ______ ____
ROOT
ATOM      1  N   UNL     1       4.523   5.380  18.081  0.00  0.00    +0.000 NA
ENDROOT
BRANCH   1   2
ATOM      2  S   UNL     1       6.245   5.430  17.825  0.00  0.00    +0.000 S 
ATOM      3  O   UNL     1       6.853   4.526  18.784  0.00  0.00    +0.000 OA
ATOM      4  O   UNL     1       6.750   6.780  17.709  0.00  0.00    +0.000 OA
BRANCH   2   8
ATOM      5  C   UNL     1       6.385   4.085  13.469  0.00  0.00    +0.000 A 
ATOM      6  C   UNL     1       5.555   3.420  14.373  0.00  0.00    +0.000 A 
ATOM      7  C   UNL     1       5.593   3.741  15.737  0.00  0.00    +0.000 A 
ATOM      8  C   UNL     1       6.496   4.711  16.199  0.00  0.00    +0.000 A 
ATOM      9  C   UNL     1       7.369   5.330  15.302  0.00  0.00    +0.000 A 
ATOM     10  C   UNL     1       7.321   5.006  13.942  0.00  0.00    +0.000 A 
BRANCH   5  11
ATOM     11  O   UNL     1       6.173   3.783  12.150  0.00  0.00    +0.000 OA
BRANCH  11  13
ATOM     12  C   UNL     1       4.067   3.332  11.092  0.00  0.00    +0.000 C 
ATOM     13  C   UNL     1       5.218   2.746  11.891  0.00  0.00    +0.000 C 
ENDBRANCH  11  13
ENDBRANCH   5  11
ENDBRANCH   2   8
ENDBRANCH   1   2
BRANCH   1  14
ATOM     14  C   UNL     1       4.012   3.963  18.052  0.00  0.00    +0.000 C 
BRANCH  14  15
ATOM     15  C   UNL     1       3.044   3.557  19.151  0.00  0.00    +0.000 A 
ATOM     16  C   UNL     1       3.502   3.072  20.381  0.00  0.00    +0.000 A 
ATOM     17  C   UNL     1       2.596   2.762  21.407  0.00  0.00    +0.000 A 
ATOM     18  C   UNL     1       1.225   2.928  21.207  0.00  0.00    +0.000 A 
ATOM     19  C   UNL     1       0.753   3.394  19.988  0.00  0.00    +0.000 A 
ATOM     20  C   UNL     1       1.658   3.710  18.964  0.00  0.00    +0.000 A 
ENDBRANCH  14  15
ENDBRANCH   1  14
BRANCH   1  21
ATOM     21  C   UNL     1       4.091   6.071  19.341  0.00  0.00    +0.000 C 
BRANCH  21  22
ATOM     22  C   UNL     1       2.920   7.001  19.156  0.00  0.00    +0.000 A 
ATOM     23  C   UNL     1       2.745   7.716  17.961  0.00  0.00    +0.000 A 
ATOM     24  C   UNL     1       1.794   8.738  17.896  0.00  0.00    +0.000 A 
ATOM     25  C   UNL     1       1.003   9.062  19.007  0.00  0.00    +0.000 A 
ATOM     26  C   UNL     1       1.153   8.316  20.184  0.00  0.00    +0.000 A 
ATOM     27  C   UNL     1       2.079   7.277  20.246  0.00  0.00    +0.000 A 
BRANCH  25  28
ATOM     28  C   UNL     1       0.072  10.229  18.899  0.00  0.00    +0.000 C 
ATOM     29  O   UNL     1      -0.000  11.047  19.812  0.00  0.00    +0.000 OA
ATOM     30  N   UNL     1      -0.682  10.338  17.750  0.00  0.00    +0.000 N 
ATOM     31  H   UNL     1      -0.590   9.675  17.000  0.00  0.00    +0.000 HD
BRANCH  30  32
ATOM     32  C   UNL     1      -1.627  11.412  17.569  0.00  0.00    +0.000 C 
BRANCH  32  33
ATOM     33  C   UNL     1      -3.010  10.895  17.818  0.00  0.00    +0.000 C 
ATOM     34  C   UNL     1      -4.057  11.787  18.443  0.00  0.00    +0.000 C 
ATOM     35  C   UNL     1      -4.183  11.379  17.002  0.00  0.00    +0.000 C 
ENDBRANCH  32  33
ENDBRANCH  30  32
ENDBRANCH  25  28
ENDBRANCH  21  22
ENDBRANCH   1  21
TORSDOF 11
ENDMDL
MODEL 8
REMARK VINA RESULT:      -8.0      1.161      1.595
REMARK  Name = 
REMARK  12 active torsions:
REMARK  status: ('A' for Active; 'I' for Inactive)
REMARK    1  A    between atoms: C_1  and  C_2
REMARK    2  A    between atoms: C_2  and  O_3
REMARK    3  A    between atoms: O_3  and  C_4
REMARK    4  A    between atoms: C_7  and  S_8
REMARK    5  A    between atoms: S_8  and  N_11
REMARK    6  A    between atoms: N_11  and  C_12
REMARK    7  A    between atoms: N_11  and  C_19
REMARK    8  A    between atoms: C_12  and  C_13
REMARK    9  A    between atoms: C_19  and  C_20
REMARK   10  A    between atoms: C_23  and  C_24
REMARK   11  A    between atoms: N_26  and  C_27
REMARK   12  A    between atoms: C_27  and  C_28
REMARK                            x       y       z     vdW  Elec       q    Type
REMARK                         _______ _______ _______ _____ _____    ______ ____
ROOT
ATOM      1  N   UNL     1       3.711   4.948  17.104  0.00  0.00    +0.000 NA
ENDROOT
BRANCH   1   2
ATOM      2  S   UNL     1       5.175   4.295  16.423  0.00  0.00    +0.000 S 
ATOM      3  O   UNL     1       5.094   4.458  14.983  0.00  0.00    +0.000 OA
ATOM      4  O   UNL     1       5.511   3.000  16.969  0.00  0.00    +0.000 OA
BRANCH   2   8
ATOM      5  C   UNL     1       7.991   7.338  18.325  0.00  0.00    +0.000 A 
ATOM      6  C   UNL     1       7.337   7.650  17.131  0.00  0.00    +0.000 A 
ATOM      7  C   UNL     1       6.567   6.682  16.472  0.00  0.00    +0.000 A 
ATOM      8  C   UNL     1       6.483   5.384  16.997  0.00  0.00    +0.000 A 
ATOM      9  C   UNL     1       7.187   5.056  18.157  0.00  0.00    +0.000 A 
ATOM     10  C   UNL     1       7.951   6.031  18.810  0.00  0.00    +0.000 A 
BRANCH   5  11
ATOM     11  O   UNL     1       8.606   8.392  18.946  0.00  0.00    +0.000 OA
BRANCH  11  13
ATOM     12  C   UNL     1       9.573  10.584  18.808  0.00  0.00    +0.000 C 
ATOM     13  C   UNL     1       8.477   9.663  18.298  0.00  0.00    +0.000 C 
ENDBRANCH  11  13
ENDBRANCH   5  11
ENDBRANCH   2   8
ENDBRANCH   1   2
BRANCH   1  14
ATOM     14  C   UNL     1       2.695   3.863  17.345  0.00  0.00    +0.000 C 
BRANCH  14  15
ATOM     15  C   UNL     1       2.459   3.447  18.788  0.00  0.00    +0.000 A 
ATOM     16  C   UNL     1       3.477   2.871  19.555  0.00  0.00    +0.000 A 
ATOM     17  C   UNL     1       3.260   2.552  20.904  0.00  0.00    +0.000 A 
ATOM     18  C   UNL     1       2.020   2.801  21.494  0.00  0.00    +0.000 A 
ATOM     19  C   UNL     1       0.995   3.359  20.744  0.00  0.00    +0.000 A 
ATOM     20  C   UNL     1       1.213   3.684  19.397  0.00  0.00    +0.000 A 
ENDBRANCH  14  15
ENDBRANCH   1  14
BRANCH   1  21
ATOM     21  C   UNL     1       3.942   5.742  18.356  0.00  0.00    +0.000 C 
BRANCH  21  22
ATOM     22  C   UNL     1       2.964   6.873  18.550  0.00  0.00    +0.000 A 
ATOM     23  C   UNL     1       2.827   7.885  17.588  0.00  0.00    +0.000 A 
ATOM     24  C   UNL     1       2.093   9.035  17.890  0.00  0.00    +0.000 A 
ATOM     25  C   UNL     1       1.485   9.197  19.142  0.00  0.00    +0.000 A 
ATOM     26  C   UNL     1       1.590   8.164  20.083  0.00  0.00    +0.000 A 
ATOM     27  C   UNL     1       2.295   7.003  19.778  0.00  0.00    +0.000 A 
BRANCH  25  28
ATOM     28  C   UNL     1       0.795  10.494  19.433  0.00  0.00    +0.000 C 
ATOM     29  O   UNL     1       1.068  11.122  20.453  0.00  0.00    +0.000 OA
ATOM     30  N   UNL     1      -0.138  10.938  18.521  0.00  0.00    +0.000 N 
ATOM     31  H   UNL     1      -0.329  10.426  17.677  0.00  0.00    +0.000 HD
BRANCH  30  32
ATOM     32  C   UNL     1      -0.874  12.160  18.731  0.00  0.00    +0.000 C 
BRANCH  32  33
ATOM     33  C   UNL     1      -2.051  11.878  19.613  0.00  0.00    +0.000 C 
ATOM     34  C   UNL     1      -2.136  12.494  20.990  0.00  0.00    +0.000 C 
ATOM     35  C   UNL     1      -3.077  12.944  19.908  0.00  0.00    +0.000 C 
ENDBRANCH  32  33
ENDBRANCH  30  32
ENDBRANCH  25  28
ENDBRANCH  21  22
ENDBRANCH   1  21
TORSDOF 11
ENDMDL
MODEL 9
REMARK VINA RESULT:      -8.0      1.191      1.880
REMARK  Name = 
REMARK  12 active torsions:
REMARK  status: ('A' for Active; 'I' for Inactive)
REMARK    1  A    between atoms: C_1  and  C_2
REMARK    2  A    between atoms: C_2  and  O_3
REMARK    3  A    between atoms: O_3  and  C_4
REMARK    4  A    between atoms: C_7  and  S_8
REMARK    5  A    between atoms: S_8  and  N_11
REMARK    6  A    between atoms: N_11  and  C_12
REMARK    7  A    between atoms: N_11  and  C_19
REMARK    8  A    between atoms: C_12  and  C_13
REMARK    9  A    between atoms: C_19  and  C_20
REMARK   10  A    between atoms: C_23  and  C_24
REMARK   11  A    between atoms: N_26  and  C_27
REMARK   12  A    between atoms: C_27  and  C_28
REMARK                            x       y       z     vdW  Elec       q    Type
REMARK                         _______ _______ _______ _____ _____    ______ ____
ROOT
ATOM      1  N   UNL     1       3.910   4.776  17.237  0.00  0.00    +0.000 NA
ENDROOT
BRANCH   1   2
ATOM      2  S   UNL     1       5.268   4.571  16.167  0.00  0.00    +0.000 S 
ATOM      3  O   UNL     1       4.920   5.190  14.901  0.00  0.00    +0.000 OA
ATOM      4  O   UNL     1       5.780   3.219  16.173  0.00  0.00    +0.000 OA
BRANCH   2   8
ATOM      5  C   UNL     1       8.089   7.359  18.419  0.00  0.00    +0.000 A 
ATOM      6  C   UNL     1       7.533   7.767  17.206  0.00  0.00    +0.000 A 
ATOM      7  C   UNL     1       6.764   6.877  16.443  0.00  0.00    +0.000 A 
ATOM      8  C   UNL     1       6.584   5.558  16.886  0.00  0.00    +0.000 A 
ATOM      9  C   UNL     1       7.192   5.133  18.068  0.00  0.00    +0.000 A 
ATOM     10  C   UNL     1       7.955   6.030  18.824  0.00  0.00    +0.000 A 
BRANCH   5  11
ATOM     11  O   UNL     1       8.710   8.344  19.139  0.00  0.00    +0.000 OA
BRANCH  11  13
ATOM     12  C   UNL     1       9.690  10.529  19.301  0.00  0.00    +0.000 C 
ATOM     13  C   UNL     1       8.711   9.648  18.544  0.00  0.00    +0.000 C 
ENDBRANCH  11  13
ENDBRANCH   5  11
ENDBRANCH   2   8
ENDBRANCH   1   2
BRANCH   1  14
ATOM     14  C   UNL     1       3.263   3.453  17.552  0.00  0.00    +0.000 C 
BRANCH  14  15
ATOM     15  C   UNL     1       2.658   3.294  18.938  0.00  0.00    +0.000 A 
ATOM     16  C   UNL     1       1.330   3.652  19.197  0.00  0.00    +0.000 A 
ATOM     17  C   UNL     1       0.769   3.439  20.466  0.00  0.00    +0.000 A 
ATOM     18  C   UNL     1       1.535   2.872  21.486  0.00  0.00    +0.000 A 
ATOM     19  C   UNL     1       2.858   2.526  21.249  0.00  0.00    +0.000 A 
ATOM     20  C   UNL     1       3.417   2.732  19.980  0.00  0.00    +0.000 A 
ENDBRANCH  14  15
ENDBRANCH   1  14
BRANCH   1  21
ATOM     21  C   UNL     1       4.257   5.508  18.501  0.00  0.00    +0.000 C 
BRANCH  21  22
ATOM     22  C   UNL     1       3.430   6.746  18.735  0.00  0.00    +0.000 A 
ATOM     23  C   UNL     1       2.666   6.896  19.903  0.00  0.00    +0.000 A 
ATOM     24  C   UNL     1       1.735   7.933  19.996  0.00  0.00    +0.000 A 
ATOM     25  C   UNL     1       1.549   8.835  18.938  0.00  0.00    +0.000 A 
ATOM     26  C   UNL     1       2.345   8.705  17.792  0.00  0.00    +0.000 A 
ATOM     27  C   UNL     1       3.295   7.692  17.706  0.00  0.00    +0.000 A 
BRANCH  25  28
ATOM     28  C   UNL     1       0.469   9.864  19.065  0.00  0.00    +0.000 C 
ATOM     29  O   UNL     1      -0.532   9.627  19.737  0.00  0.00    +0.000 OA
ATOM     30  N   UNL     1       0.649  11.062  18.407  0.00  0.00    +0.000 N 
ATOM     31  H   UNL     1       1.487  11.250  17.885  0.00  0.00    +0.000 HD
BRANCH  30  32
ATOM     32  C   UNL     1      -0.351  12.101  18.448  0.00  0.00    +0.000 C 
BRANCH  32  33
ATOM     33  C   UNL     1       0.125  13.204  19.342  0.00  0.00    +0.000 C 
ATOM     34  C   UNL     1       0.625  14.501  18.752  0.00  0.00    +0.000 C 
ATOM     35  C   UNL     1      -0.674  14.473  19.507  0.00  0.00    +0.000 C 
ENDBRANCH  32  33
ENDBRANCH  30  32
ENDBRANCH  25  28
ENDBRANCH  21  22
ENDBRANCH   1  21
TORSDOF 11
ENDMDL
