MODEL 1
REMARK VINA RESULT:      -7.8      0.000      0.000
REMARK  Name = 
REMARK  6 active torsions:
REMARK  status: ('A' for Active; 'I' for Inactive)
REMARK    1  A    between atoms: N_10  and  C_11
REMARK    2  A    between atoms: C_11  and  C_12
REMARK    3  A    between atoms: C_12  and  C_13
REMARK    4  A    between atoms: C_13  and  C_14
REMARK    5  A    between atoms: C_14  and  N_15
REMARK    6  A    between atoms: C_18  and  C_19
REMARK                            x       y       z     vdW  Elec       q    Type
REMARK                         _______ _______ _______ _____ _____    ______ ____
ROOT
ATOM      1  C   UNL     1       1.874   2.222  19.460  0.00  0.00    +0.000 C 
ENDROOT
BRANCH   1   2
ATOM      2  C   UNL     1       3.280   1.764  19.061  0.00  0.00    +0.000 C 
BRANCH   2   3
ATOM      3  C   UNL     1       3.694   2.259  17.684  0.00  0.00    +0.000 C 
BRANCH   3  13
ATOM      4  O   UNL     1       4.817   3.956  15.521  0.00  0.00    +0.000 OA
ATOM      5  C   UNL     1       5.098   4.084  16.694  0.00  0.00    +0.000 C 
ATOM      6  C   UNL     1       6.080   5.043  17.226  0.00  0.00    +0.000 A 
ATOM      7  C   UNL     1       6.813   6.001  16.554  0.00  0.00    +0.000 A 
ATOM      8  C   UNL     1       7.673   6.797  17.313  0.00  0.00    +0.000 A 
ATOM      9  C   UNL     1       7.780   6.611  18.705  0.00  0.00    +0.000 A 
ATOM     10  C   UNL     1       7.030   5.628  19.361  0.00  0.00    +0.000 A 
ATOM     11  C   UNL     1       6.176   4.846  18.604  0.00  0.00    +0.000 A 
ATOM     12  C   UNL     1       5.270   3.739  19.027  0.00  0.00    +0.000 C 
ATOM     13  N   UNL     1       4.604   3.387  17.784  0.00  0.00    +0.000 N 
ENDBRANCH   3  13
ENDBRANCH   2   3
ENDBRANCH   1   2
BRANCH   1  14
ATOM     14  C   UNL     1       2.016   3.308  20.532  0.00  0.00    +0.000 C 
BRANCH  14  15
ATOM     15  N   UNL     1       1.285   4.560  20.287  0.00  0.00    +0.000 NA
ATOM     16  C   UNL     1       1.200   4.781  18.829  0.00  0.00    +0.000 C 
ATOM     17  C   UNL     1       2.408   5.628  18.472  0.00  0.00    +0.000 C 
ATOM     18  C   UNL     1       2.575   6.553  19.674  0.00  0.00    +0.000 C 
ATOM     19  C   UNL     1       1.957   5.760  20.841  0.00  0.00    +0.000 C 
BRANCH  18  20
ATOM     20  C   UNL     1       1.949   7.923  19.457  0.00  0.00    +0.000 A 
ATOM     21  C   UNL     1       1.240   8.586  20.469  0.00  0.00    +0.000 A 
ATOM     22  C   UNL     1       0.642   9.825  20.238  0.00  0.00    +0.000 A 
ATOM     23  C   UNL     1       0.764  10.434  18.995  0.00  0.00    +0.000 A 
ATOM     24  C   UNL     1       1.481   9.801  17.983  0.00  0.00    +0.000 A 
ATOM     25  C   UNL     1       2.066   8.551  18.208  0.00  0.00    +0.000 A 
ENDBRANCH  18  20
ENDBRANCH  14  15
ENDBRANCH   1  14
TORSDOF 6
ENDMDL
MODEL 2
REMARK VINA RESULT:      -7.8      5.670      8.215
REMARK  Name = 
REMARK  6 active torsions:
REMARK  status: ('A' for Active; 'I' for Inactive)
REMARK    1  A    between atoms: N_10  and  C_11
REMARK    2  A    between atoms: C_11  and  C_12
REMARK    3  A    between atoms: C_12  and  C_13
REMARK    4  A    between atoms: C_13  and  C_14
REMARK    5  A    between atoms: C_14  and  N_15
REMARK    6  A    between atoms: C_18  and  C_19
REMARK                            x       y       z     vdW  Elec       q    Type
REMARK                         _______ _______ _______ _____ _____    ______ ____
ROOT
ATOM      1  C   UNL     1       8.467   8.212  18.400  0.00  0.00    +0.000 C 
ENDROOT
BRANCH   1   2
ATOM      2  C   UNL     1       8.466   9.704  18.054  0.00  0.00    +0.000 C 
BRANCH   2   3
ATOM      3  C   UNL     1       9.268  10.539  19.040  0.00  0.00    +0.000 C 
BRANCH   3  13
ATOM      4  O   UNL     1      11.786  11.569  17.850  0.00  0.00    +0.000 OA
ATOM      5  C   UNL     1      10.788  12.241  18.005  0.00  0.00    +0.000 C 
ATOM      6  C   UNL     1      10.682  13.676  17.696  0.00  0.00    +0.000 A 
ATOM      7  C   UNL     1      11.622  14.518  17.133  0.00  0.00    +0.000 A 
ATOM      8  C   UNL     1      11.251  15.849  16.934  0.00  0.00    +0.000 A 
ATOM      9  C   UNL     1       9.969  16.298  17.303  0.00  0.00    +0.000 A 
ATOM     10  C   UNL     1       9.037  15.427  17.878  0.00  0.00    +0.000 A 
ATOM     11  C   UNL     1       9.409  14.108  18.068  0.00  0.00    +0.000 A 
ATOM     12  C   UNL     1       8.635  12.973  18.650  0.00  0.00    +0.000 C 
ATOM     13  N   UNL     1       9.554  11.857  18.500  0.00  0.00    +0.000 N 
ENDBRANCH   3  13
ENDBRANCH   2   3
ENDBRANCH   1   2
BRANCH   1  14
ATOM     14  C   UNL     1       7.511   7.501  17.437  0.00  0.00    +0.000 C 
BRANCH  14  15
ATOM     15  N   UNL     1       6.330   6.870  18.044  0.00  0.00    +0.000 NA
ATOM     16  C   UNL     1       6.740   5.590  18.657  0.00  0.00    +0.000 C 
ATOM     17  C   UNL     1       6.526   4.537  17.584  0.00  0.00    +0.000 C 
ATOM     18  C   UNL     1       5.271   5.006  16.854  0.00  0.00    +0.000 C 
ATOM     19  C   UNL     1       5.267   6.531  17.068  0.00  0.00    +0.000 C 
BRANCH  18  20
ATOM     20  C   UNL     1       4.009   4.309  17.340  0.00  0.00    +0.000 A 
ATOM     21  C   UNL     1       3.892   2.913  17.369  0.00  0.00    +0.000 A 
ATOM     22  C   UNL     1       2.712   2.295  17.782  0.00  0.00    +0.000 A 
ATOM     23  C   UNL     1       1.633   3.066  18.197  0.00  0.00    +0.000 A 
ATOM     24  C   UNL     1       1.735   4.455  18.195  0.00  0.00    +0.000 A 
ATOM     25  C   UNL     1       2.912   5.075  17.764  0.00  0.00    +0.000 A 
ENDBRANCH  18  20
ENDBRANCH  14  15
ENDBRANCH   1  14
TORSDOF 6
ENDMDL
MODEL 3
REMARK VINA RESULT:      -7.8      4.982      7.517
REMARK  Name = 
REMARK  6 active torsions:
REMARK  status: ('A' for Active; 'I' for Inactive)
REMARK    1  A    between atoms: N_10  and  C_11
REMARK    2  A    between atoms: C_11  and  C_12
REMARK    3  A    between atoms: C_12  and  C_13
REMARK    4  A    between atoms: C_13  and  C_14
REMARK    5  A    between atoms: C_14  and  N_15
REMARK    6  A    between atoms: C_18  and  C_19
REMARK                            x       y       z     vdW  Elec       q    Type
REMARK                         _______ _______ _______ _____ _____    ______ ____
ROOT
ATOM      1  C   UNL     1       7.771   7.652  17.229  0.00  0.00    +0.000 C 
ENDROOT
BRANCH   1   2
ATOM      2  C   UNL     1       7.887   9.052  17.840  0.00  0.00    +0.000 C 
BRANCH   2   3
ATOM      3  C   UNL     1       8.866   9.109  19.002  0.00  0.00    +0.000 C 
BRANCH   3  13
ATOM      4  O   UNL     1       9.155  10.866  21.379  0.00  0.00    +0.000 OA
ATOM      5  C   UNL     1       9.525  11.171  20.265  0.00  0.00    +0.000 C 
ATOM      6  C   UNL     1      10.109  12.471  19.897  0.00  0.00    +0.000 A 
ATOM      7  C   UNL     1      10.408  13.551  20.704  0.00  0.00    +0.000 A 
ATOM      8  C   UNL     1      10.976  14.670  20.092  0.00  0.00    +0.000 A 
ATOM      9  C   UNL     1      11.221  14.681  18.706  0.00  0.00    +0.000 A 
ATOM     10  C   UNL     1      10.903  13.576  17.908  0.00  0.00    +0.000 A 
ATOM     11  C   UNL     1      10.345  12.468  18.522  0.00  0.00    +0.000 A 
ATOM     12  C   UNL     1       9.910  11.169  17.932  0.00  0.00    +0.000 C 
ATOM     13  N   UNL     1       9.485  10.419  19.103  0.00  0.00    +0.000 N 
ENDBRANCH   3  13
ENDBRANCH   2   3
ENDBRANCH   1   2
BRANCH   1  14
ATOM     14  C   UNL     1       7.521   6.658  18.367  0.00  0.00    +0.000 C 
BRANCH  14  15
ATOM     15  N   UNL     1       6.622   5.536  18.063  0.00  0.00    +0.000 NA
ATOM     16  C   UNL     1       5.660   5.968  17.028  0.00  0.00    +0.000 C 
ATOM     17  C   UNL     1       4.453   6.493  17.786  0.00  0.00    +0.000 C 
ATOM     18  C   UNL     1       4.357   5.578  19.002  0.00  0.00    +0.000 C 
ATOM     19  C   UNL     1       5.804   5.097  19.219  0.00  0.00    +0.000 C 
BRANCH  18  20
ATOM     20  C   UNL     1       3.351   4.452  18.818  0.00  0.00    +0.000 A 
ATOM     21  C   UNL     1       3.636   3.319  18.043  0.00  0.00    +0.000 A 
ATOM     22  C   UNL     1       2.685   2.315  17.856  0.00  0.00    +0.000 A 
ATOM     23  C   UNL     1       1.440   2.417  18.461  0.00  0.00    +0.000 A 
ATOM     24  C   UNL     1       1.144   3.524  19.252  0.00  0.00    +0.000 A 
ATOM     25  C   UNL     1       2.090   4.539  19.425  0.00  0.00    +0.000 A 
ENDBRANCH  18  20
ENDBRANCH  14  15
ENDBRANCH   1  14
TORSDOF 6
ENDMDL
MODEL 4
REMARK VINA RESULT:      -7.7      5.541      8.250
REMARK  Name = 
REMARK  6 active torsions:
REMARK  status: ('A' for Active; 'I' for Inactive)
REMARK    1  A    between atoms: N_10  and  C_11
REMARK    2  A    between atoms: C_11  and  C_12
REMARK    3  A    between atoms: C_12  and  C_13
REMARK    4  A    between atoms: C_13  and  C_14
REMARK    5  A    between atoms: C_14  and  N_15
REMARK    6  A    between atoms: C_18  and  C_19
REMARK                            x       y       z     vdW  Elec       q    Type
REMARK                         _______ _______ _______ _____ _____    ______ ____
ROOT
ATOM      1  C   UNL     1       8.140   8.049  18.509  0.00  0.00    +0.000 C 
ENDROOT
BRANCH   1   2
ATOM      2  C   UNL     1       8.545   9.495  18.205  0.00  0.00    +0.000 C 
BRANCH   2   3
ATOM      3  C   UNL     1       9.446  10.093  19.275  0.00  0.00    +0.000 C 
BRANCH   3  13
ATOM      4  O   UNL     1       8.866  12.722  20.527  0.00  0.00    +0.000 OA
ATOM      5  C   UNL     1       9.540  12.584  19.528  0.00  0.00    +0.000 C 
ATOM      6  C   UNL     1      10.118  13.686  18.742  0.00  0.00    +0.000 A 
ATOM      7  C   UNL     1      10.078  15.045  18.987  0.00  0.00    +0.000 A 
ATOM      8  C   UNL     1      10.728  15.879  18.076  0.00  0.00    +0.000 A 
ATOM      9  C   UNL     1      11.388  15.339  16.955  0.00  0.00    +0.000 A 
ATOM     10  C   UNL     1      11.408  13.959  16.726  0.00  0.00    +0.000 A 
ATOM     11  C   UNL     1      10.766  13.137  17.636  0.00  0.00    +0.000 A 
ATOM     12  C   UNL     1      10.625  11.652  17.645  0.00  0.00    +0.000 C 
ATOM     13  N   UNL     1       9.912  11.413  18.889  0.00  0.00    +0.000 N 
ENDBRANCH   3  13
ENDBRANCH   2   3
ENDBRANCH   1   2
BRANCH   1  14
ATOM     14  C   UNL     1       7.594   7.429  17.219  0.00  0.00    +0.000 C 
BRANCH  14  15
ATOM     15  N   UNL     1       7.095   6.050  17.323  0.00  0.00    +0.000 NA
ATOM     16  C   UNL     1       6.300   5.742  16.117  0.00  0.00    +0.000 C 
ATOM     17  C   UNL     1       4.866   6.095  16.471  0.00  0.00    +0.000 C 
ATOM     18  C   UNL     1       4.747   5.711  17.943  0.00  0.00    +0.000 C 
ATOM     19  C   UNL     1       6.188   5.830  18.474  0.00  0.00    +0.000 C 
BRANCH  18  20
ATOM     20  C   UNL     1       4.123   4.338  18.148  0.00  0.00    +0.000 A 
ATOM     21  C   UNL     1       2.999   3.916  17.424  0.00  0.00    +0.000 A 
ATOM     22  C   UNL     1       2.420   2.668  17.655  0.00  0.00    +0.000 A 
ATOM     23  C   UNL     1       2.971   1.810  18.598  0.00  0.00    +0.000 A 
ATOM     24  C   UNL     1       4.100   2.202  19.313  0.00  0.00    +0.000 A 
ATOM     25  C   UNL     1       4.670   3.460  19.095  0.00  0.00    +0.000 A 
ENDBRANCH  18  20
ENDBRANCH  14  15
ENDBRANCH   1  14
TORSDOF 6
ENDMDL
MODEL 5
REMARK VINA RESULT:      -7.7      2.727      7.505
REMARK  Name = 
REMARK  6 active torsions:
REMARK  status: ('A' for Active; 'I' for Inactive)
REMARK    1  A    between atoms: N_10  and  C_11
REMARK    2  A    between atoms: C_11  and  C_12
REMARK    3  A    between atoms: C_12  and  C_13
REMARK    4  A    between atoms: C_13  and  C_14
REMARK    5  A    between atoms: C_14  and  N_15
REMARK    6  A    between atoms: C_18  and  C_19
REMARK                            x       y       z     vdW  Elec       q    Type
REMARK                         _______ _______ _______ _____ _____    ______ ____
ROOT
ATOM      1  C   UNL     1       3.434   4.831  18.857  0.00  0.00    +0.000 C 
ENDROOT
BRANCH   1   2
ATOM      2  C   UNL     1       3.078   6.067  19.688  0.00  0.00    +0.000 C 
BRANCH   2   3
ATOM      3  C   UNL     1       2.502   7.197  18.849  0.00  0.00    +0.000 C 
BRANCH   3  13
ATOM      4  O   UNL     1       1.451   9.897  18.196  0.00  0.00    +0.000 OA
ATOM      5  C   UNL     1       1.268   9.339  19.258  0.00  0.00    +0.000 C 
ATOM      6  C   UNL     1       0.562   9.927  20.408  0.00  0.00    +0.000 A 
ATOM      7  C   UNL     1      -0.069  11.152  20.509  0.00  0.00    +0.000 A 
ATOM      8  C   UNL     1      -0.680  11.458  21.727  0.00  0.00    +0.000 A 
ATOM      9  C   UNL     1      -0.638  10.546  22.799  0.00  0.00    +0.000 A 
ATOM     10  C   UNL     1       0.014   9.314  22.673  0.00  0.00    +0.000 A 
ATOM     11  C   UNL     1       0.612   9.014  21.462  0.00  0.00    +0.000 A 
ATOM     12  C   UNL     1       1.367   7.796  21.047  0.00  0.00    +0.000 C 
ATOM     13  N   UNL     1       1.666   8.073  19.652  0.00  0.00    +0.000 N 
ENDBRANCH   3  13
ENDBRANCH   2   3
ENDBRANCH   1   2
BRANCH   1  14
ATOM     14  C   UNL     1       4.918   4.521  19.080  0.00  0.00    +0.000 C 
BRANCH  14  15
ATOM     15  N   UNL     1       5.670   4.067  17.901  0.00  0.00    +0.000 NA
ATOM     16  C   UNL     1       6.736   5.047  17.613  0.00  0.00    +0.000 C 
ATOM     17  C   UNL     1       6.133   6.029  16.624  0.00  0.00    +0.000 C 
ATOM     18  C   UNL     1       5.230   5.163  15.752  0.00  0.00    +0.000 C 
ATOM     19  C   UNL     1       4.851   3.984  16.668  0.00  0.00    +0.000 C 
BRANCH  18  20
ATOM     20  C   UNL     1       5.890   4.746  14.447  0.00  0.00    +0.000 A 
ATOM     21  C   UNL     1       5.311   3.802  13.587  0.00  0.00    +0.000 A 
ATOM     22  C   UNL     1       5.952   3.406  12.413  0.00  0.00    +0.000 A 
ATOM     23  C   UNL     1       7.175   3.965  12.067  0.00  0.00    +0.000 A 
ATOM     24  C   UNL     1       7.759   4.919  12.897  0.00  0.00    +0.000 A 
ATOM     25  C   UNL     1       7.125   5.304  14.083  0.00  0.00    +0.000 A 
ENDBRANCH  18  20
ENDBRANCH  14  15
ENDBRANCH   1  14
TORSDOF 6
ENDMDL
MODEL 6
REMARK VINA RESULT:      -7.7      4.993      7.658
REMARK  Name = 
REMARK  6 active torsions:
REMARK  status: ('A' for Active; 'I' for Inactive)
REMARK    1  A    between atoms: N_10  and  C_11
REMARK    2  A    between atoms: C_11  and  C_12
REMARK    3  A    between atoms: C_12  and  C_13
REMARK    4  A    between atoms: C_13  and  C_14
REMARK    5  A    between atoms: C_14  and  N_15
REMARK    6  A    between atoms: C_18  and  C_19
REMARK                            x       y       z     vdW  Elec       q    Type
REMARK                         _______ _______ _______ _____ _____    ______ ____
ROOT
ATOM      1  C   UNL     1       7.894   7.379  17.495  0.00  0.00    +0.000 C 
ENDROOT
BRANCH   1   2
ATOM      2  C   UNL     1       8.278   8.854  17.648  0.00  0.00    +0.000 C 
BRANCH   2   3
ATOM      3  C   UNL     1       8.800   9.187  19.038  0.00  0.00    +0.000 C 
BRANCH   3  13
ATOM      4  O   UNL     1       9.334  11.014  21.317  0.00  0.00    +0.000 OA
ATOM      5  C   UNL     1       9.650  11.254  20.170  0.00  0.00    +0.000 C 
ATOM      6  C   UNL     1      10.282  12.503  19.713  0.00  0.00    +0.000 A 
ATOM      7  C   UNL     1      10.690  13.594  20.455  0.00  0.00    +0.000 A 
ATOM      8  C   UNL     1      11.280  14.653  19.763  0.00  0.00    +0.000 A 
ATOM      9  C   UNL     1      11.439  14.596  18.365  0.00  0.00    +0.000 A 
ATOM     10  C   UNL     1      11.010  13.481  17.635  0.00  0.00    +0.000 A 
ATOM     11  C   UNL     1      10.431  12.432  18.328  0.00  0.00    +0.000 A 
ATOM     12  C   UNL     1       9.889  11.138  17.820  0.00  0.00    +0.000 C 
ATOM     13  N   UNL     1       9.496  10.461  19.045  0.00  0.00    +0.000 N 
ENDBRANCH   3  13
ENDBRANCH   2   3
ENDBRANCH   1   2
BRANCH   1  14
ATOM     14  C   UNL     1       6.413   7.313  17.107  0.00  0.00    +0.000 C 
BRANCH  14  15
ATOM     15  N   UNL     1       5.571   6.420  17.917  0.00  0.00    +0.000 NA
ATOM     16  C   UNL     1       6.232   5.102  18.010  0.00  0.00    +0.000 C 
ATOM     17  C   UNL     1       5.677   4.284  16.858  0.00  0.00    +0.000 C 
ATOM     18  C   UNL     1       4.223   4.732  16.757  0.00  0.00    +0.000 C 
ATOM     19  C   UNL     1       4.236   6.163  17.326  0.00  0.00    +0.000 C 
BRANCH  18  20
ATOM     20  C   UNL     1       3.262   3.791  17.469  0.00  0.00    +0.000 A 
ATOM     21  C   UNL     1       1.929   4.142  17.726  0.00  0.00    +0.000 A 
ATOM     22  C   UNL     1       1.076   3.279  18.414  0.00  0.00    +0.000 A 
ATOM     23  C   UNL     1       1.536   2.039  18.838  0.00  0.00    +0.000 A 
ATOM     24  C   UNL     1       2.851   1.663  18.575  0.00  0.00    +0.000 A 
ATOM     25  C   UNL     1       3.712   2.534  17.900  0.00  0.00    +0.000 A 
ENDBRANCH  18  20
ENDBRANCH  14  15
ENDBRANCH   1  14
TORSDOF 6
ENDMDL
MODEL 7
REMARK VINA RESULT:      -7.7      2.962      7.785
REMARK  Name = 
REMARK  6 active torsions:
REMARK  status: ('A' for Active; 'I' for Inactive)
REMARK    1  A    between atoms: N_10  and  C_11
REMARK    2  A    between atoms: C_11  and  C_12
REMARK    3  A    between atoms: C_12  and  C_13
REMARK    4  A    between atoms: C_13  and  C_14
REMARK    5  A    between atoms: C_14  and  N_15
REMARK    6  A    between atoms: C_18  and  C_19
REMARK                            x       y       z     vdW  Elec       q    Type
REMARK                         _______ _______ _______ _____ _____    ______ ____
ROOT
ATOM      1  C   UNL     1       3.554   5.199  19.499  0.00  0.00    +0.000 C 
ENDROOT
BRANCH   1   2
ATOM      2  C   UNL     1       2.303   6.018  19.831  0.00  0.00    +0.000 C 
BRANCH   2   3
ATOM      3  C   UNL     1       2.404   7.463  19.368  0.00  0.00    +0.000 C 
BRANCH   3  13
ATOM      4  O   UNL     1       1.031   9.943  18.481  0.00  0.00    +0.000 OA
ATOM      5  C   UNL     1       0.934   9.480  19.598  0.00  0.00    +0.000 C 
ATOM      6  C   UNL     1       0.185  10.098  20.704  0.00  0.00    +0.000 A 
ATOM      7  C   UNL     1      -0.584  11.245  20.701  0.00  0.00    +0.000 A 
ATOM      8  C   UNL     1      -1.205  11.603  21.900  0.00  0.00    +0.000 A 
ATOM      9  C   UNL     1      -1.037  10.816  23.056  0.00  0.00    +0.000 A 
ATOM     10  C   UNL     1      -0.247   9.661  23.034  0.00  0.00    +0.000 A 
ATOM     11  C   UNL     1       0.361   9.309  21.841  0.00  0.00    +0.000 A 
ATOM     12  C   UNL     1       1.246   8.150  21.528  0.00  0.00    +0.000 C 
ATOM     13  N   UNL     1       1.485   8.315  20.104  0.00  0.00    +0.000 N 
ENDBRANCH   3  13
ENDBRANCH   2   3
ENDBRANCH   1   2
BRANCH   1  14
ATOM     14  C   UNL     1       4.343   5.953  18.424  0.00  0.00    +0.000 C 
BRANCH  14  15
ATOM     15  N   UNL     1       4.349   5.353  17.083  0.00  0.00    +0.000 NA
ATOM     16  C   UNL     1       4.993   4.026  17.161  0.00  0.00    +0.000 C 
ATOM     17  C   UNL     1       6.462   4.266  16.862  0.00  0.00    +0.000 C 
ATOM     18  C   UNL     1       6.446   5.373  15.812  0.00  0.00    +0.000 C 
ATOM     19  C   UNL     1       5.130   6.125  16.087  0.00  0.00    +0.000 C 
BRANCH  18  20
ATOM     20  C   UNL     1       6.571   4.844  14.391  0.00  0.00    +0.000 A 
ATOM     21  C   UNL     1       5.683   3.893  13.870  0.00  0.00    +0.000 A 
ATOM     22  C   UNL     1       5.838   3.393  12.577  0.00  0.00    +0.000 A 
ATOM     23  C   UNL     1       6.873   3.854  11.774  0.00  0.00    +0.000 A 
ATOM     24  C   UNL     1       7.755   4.813  12.265  0.00  0.00    +0.000 A 
ATOM     25  C   UNL     1       7.610   5.302  13.567  0.00  0.00    +0.000 A 
ENDBRANCH  18  20
ENDBRANCH  14  15
ENDBRANCH   1  14
TORSDOF 6
ENDMDL
MODEL 8
REMARK VINA RESULT:      -7.6      4.771      7.200
REMARK  Name = 
REMARK  6 active torsions:
REMARK  status: ('A' for Active; 'I' for Inactive)
REMARK    1  A    between atoms: N_10  and  C_11
REMARK    2  A    between atoms: C_11  and  C_12
REMARK    3  A    between atoms: C_12  and  C_13
REMARK    4  A    between atoms: C_13  and  C_14
REMARK    5  A    between atoms: C_14  and  N_15
REMARK    6  A    between atoms: C_18  and  C_19
REMARK                            x       y       z     vdW  Elec       q    Type
REMARK                         _______ _______ _______ _____ _____    ______ ____
ROOT
ATOM      1  C   UNL     1       6.813   7.726  17.496  0.00  0.00    +0.000 C 
ENDROOT
BRANCH   1   2
ATOM      2  C   UNL     1       8.025   8.663  17.516  0.00  0.00    +0.000 C 
BRANCH   2   3
ATOM      3  C   UNL     1       8.553   8.915  18.920  0.00  0.00    +0.000 C 
BRANCH   3  13
ATOM      4  O   UNL     1       9.116  10.668  21.250  0.00  0.00    +0.000 OA
ATOM      5  C   UNL     1       9.489  10.906  20.120  0.00  0.00    +0.000 C 
ATOM      6  C   UNL     1      10.214  12.119  19.710  0.00  0.00    +0.000 A 
ATOM      7  C   UNL     1      10.662  13.170  20.486  0.00  0.00    +0.000 A 
ATOM      8  C   UNL     1      11.343  14.201  19.836  0.00  0.00    +0.000 A 
ATOM      9  C   UNL     1      11.549  14.156  18.443  0.00  0.00    +0.000 A 
ATOM     10  C   UNL     1      11.079  13.083  17.678  0.00  0.00    +0.000 A 
ATOM     11  C   UNL     1      10.410  12.062  18.330  0.00  0.00    +0.000 A 
ATOM     12  C   UNL     1       9.807  10.814  17.779  0.00  0.00    +0.000 C 
ATOM     13  N   UNL     1       9.327  10.143  18.976  0.00  0.00    +0.000 N 
ENDBRANCH   3  13
ENDBRANCH   2   3
ENDBRANCH   1   2
BRANCH   1  14
ATOM     14  C   UNL     1       7.306   6.307  17.796  0.00  0.00    +0.000 C 
BRANCH  14  15
ATOM     15  N   UNL     1       6.373   5.439  18.529  0.00  0.00    +0.000 NA
ATOM     16  C   UNL     1       6.103   4.238  17.712  0.00  0.00    +0.000 C 
ATOM     17  C   UNL     1       4.866   4.569  16.896  0.00  0.00    +0.000 C 
ATOM     18  C   UNL     1       4.020   5.419  17.839  0.00  0.00    +0.000 C 
ATOM     19  C   UNL     1       5.053   6.062  18.784  0.00  0.00    +0.000 C 
BRANCH  18  20
ATOM     20  C   UNL     1       2.943   4.617  18.554  0.00  0.00    +0.000 A 
ATOM     21  C   UNL     1       2.093   3.736  17.870  0.00  0.00    +0.000 A 
ATOM     22  C   UNL     1       1.088   3.038  18.539  0.00  0.00    +0.000 A 
ATOM     23  C   UNL     1       0.930   3.192  19.910  0.00  0.00    +0.000 A 
ATOM     24  C   UNL     1       1.777   4.046  20.612  0.00  0.00    +0.000 A 
ATOM     25  C   UNL     1       2.774   4.759  19.939  0.00  0.00    +0.000 A 
ENDBRANCH  18  20
ENDBRANCH  14  15
ENDBRANCH   1  14
TORSDOF 6
ENDMDL
MODEL 9
REMARK VINA RESULT:      -7.5      5.115      7.886
REMARK  Name = 
REMARK  6 active torsions:
REMARK  status: ('A' for Active; 'I' for Inactive)
REMARK    1  A    between atoms: N_10  and  C_11
REMARK    2  A    between atoms: C_11  and  C_12
REMARK    3  A    between atoms: C_12  and  C_13
REMARK    4  A    between atoms: C_13  and  C_14
REMARK    5  A    between atoms: C_14  and  N_15
REMARK    6  A    between atoms: C_18  and  C_19
REMARK                            x       y       z     vdW  Elec       q    Type
REMARK                         _______ _______ _______ _____ _____    ______ ____
ROOT
ATOM      1  C   UNL     1       7.446   8.019  17.539  0.00  0.00    +0.000 C 
ENDROOT
BRANCH   1   2
ATOM      2  C   UNL     1       8.041   9.399  17.838  0.00  0.00    +0.000 C 
BRANCH   2   3
ATOM      3  C   UNL     1       9.068   9.368  18.959  0.00  0.00    +0.000 C 
BRANCH   3  13
ATOM      4  O   UNL     1      10.728  11.433  17.618  0.00  0.00    +0.000 OA
ATOM      5  C   UNL     1      10.222  11.579  18.711  0.00  0.00    +0.000 C 
ATOM      6  C   UNL     1      10.400  12.759  19.572  0.00  0.00    +0.000 A 
ATOM      7  C   UNL     1      11.092  13.927  19.317  0.00  0.00    +0.000 A 
ATOM      8  C   UNL     1      11.088  14.904  20.314  0.00  0.00    +0.000 A 
ATOM      9  C   UNL     1      10.406  14.687  21.527  0.00  0.00    +0.000 A 
ATOM     10  C   UNL     1       9.718  13.492  21.764  0.00  0.00    +0.000 A 
ATOM     11  C   UNL     1       9.721  12.530  20.769  0.00  0.00    +0.000 A 
ATOM     12  C   UNL     1       9.083  11.181  20.745  0.00  0.00    +0.000 C 
ATOM     13  N   UNL     1       9.397  10.710  19.406  0.00  0.00    +0.000 N 
ENDBRANCH   3  13
ENDBRANCH   2   3
ENDBRANCH   1   2
BRANCH   1  14
ATOM     14  C   UNL     1       8.165   6.992  18.418  0.00  0.00    +0.000 C 
BRANCH  14  15
ATOM     15  N   UNL     1       7.352   5.864  18.895  0.00  0.00    +0.000 NA
ATOM     16  C   UNL     1       7.734   4.653  18.141  0.00  0.00    +0.000 C 
ATOM     17  C   UNL     1       6.790   4.596  16.954  0.00  0.00    +0.000 C 
ATOM     18  C   UNL     1       5.470   5.124  17.508  0.00  0.00    +0.000 C 
ATOM     19  C   UNL     1       5.898   6.041  18.670  0.00  0.00    +0.000 C 
BRANCH  18  20
ATOM     20  C   UNL     1       4.514   4.013  17.917  0.00  0.00    +0.000 A 
ATOM     21  C   UNL     1       3.463   3.593  17.088  0.00  0.00    +0.000 A 
ATOM     22  C   UNL     1       2.574   2.599  17.498  0.00  0.00    +0.000 A 
ATOM     23  C   UNL     1       2.736   1.991  18.736  0.00  0.00    +0.000 A 
ATOM     24  C   UNL     1       3.785   2.379  19.566  0.00  0.00    +0.000 A 
ATOM     25  C   UNL     1       4.665   3.388  19.163  0.00  0.00    +0.000 A 
ENDBRANCH  18  20
ENDBRANCH  14  15
ENDBRANCH   1  14
TORSDOF 6
ENDMDL
