MODEL 1
REMARK VINA RESULT:      -7.1      0.000      0.000
REMARK  Name = 
REMARK  7 active torsions:
REMARK  status: ('A' for Active; 'I' for Inactive)
REMARK    1  A    between atoms: C_1  and  C_2
REMARK    2  A    between atoms: C_2  and  O_3
REMARK    3  A    between atoms: O_3  and  C_4
REMARK    4  A    between atoms: C_7  and  C_8
REMARK    5  A    between atoms: N_10  and  O_11
REMARK    6  A    between atoms: O_11  and  C_12
REMARK    7  A    between atoms: C_12  and  C_13
REMARK                            x       y       z     vdW  Elec       q    Type
REMARK                         _______ _______ _______ _____ _____    ______ ____
ROOT
ATOM      1  C   UNL     1       4.908   4.505  16.602  0.00  0.00    +0.000 C 
ATOM      2  O   UNL     1       5.074   4.082  15.462  0.00  0.00    +0.000 OA
ATOM      3  N   UNL     1       3.812   4.223  17.381  0.00  0.00    +0.000 N 
ATOM      4  H   UNL     1       3.667   4.538  18.327  0.00  0.00    +0.000 HD
ENDROOT
BRANCH   1   8
ATOM      5  C   UNL     1       7.855   7.156  18.310  0.00  0.00    +0.000 A 
ATOM      6  C   UNL     1       7.052   7.558  17.244  0.00  0.00    +0.000 A 
ATOM      7  C   UNL     1       6.102   6.686  16.706  0.00  0.00    +0.000 A 
ATOM      8  C   UNL     1       5.951   5.390  17.219  0.00  0.00    +0.000 A 
ATOM      9  C   UNL     1       6.781   4.985  18.275  0.00  0.00    +0.000 A 
ATOM     10  C   UNL     1       7.735   5.860  18.808  0.00  0.00    +0.000 A 
BRANCH   5  11
ATOM     11  O   UNL     1       8.725   8.098  18.778  0.00  0.00    +0.000 OA
BRANCH  11  13
ATOM     12  C   UNL     1       9.308  10.366  19.213  0.00  0.00    +0.000 C 
ATOM     13  C   UNL     1       8.504   9.435  18.325  0.00  0.00    +0.000 C 
ENDBRANCH  11  13
ENDBRANCH   5  11
ENDBRANCH   1   8
BRANCH   3  14
ATOM     14  O   UNL     1       2.830   3.385  16.803  0.00  0.00    +0.000 OA
BRANCH  14  15
ATOM     15  C   UNL     1       2.693   2.193  17.583  0.00  0.00    +0.000 C 
BRANCH  15  16
ATOM     16  C   UNL     1       2.351   2.516  19.014  0.00  0.00    +0.000 A 
ATOM     17  C   UNL     1       3.273   2.304  20.051  0.00  0.00    +0.000 A 
ATOM     18  C   UNL     1       2.941   2.615  21.369  0.00  0.00    +0.000 A 
ATOM     19  C   UNL     1       1.692   3.156  21.666  0.00  0.00    +0.000 A 
ATOM     20  C   UNL     1       0.778   3.400  20.644  0.00  0.00    +0.000 A 
ATOM     21  C   UNL     1       1.109   3.088  19.324  0.00  0.00    +0.000 A 
ENDBRANCH  15  16
ENDBRANCH  14  15
ENDBRANCH   3  14
TORSDOF 6
ENDMDL
MODEL 2
REMARK VINA RESULT:      -7.0      1.980      8.429
REMARK  Name = 
REMARK  7 active torsions:
REMARK  status: ('A' for Active; 'I' for Inactive)
REMARK    1  A    between atoms: C_1  and  C_2
REMARK    2  A    between atoms: C_2  and  O_3
REMARK    3  A    between atoms: O_3  and  C_4
REMARK    4  A    between atoms: C_7  and  C_8
REMARK    5  A    between atoms: N_10  and  O_11
REMARK    6  A    between atoms: O_11  and  C_12
REMARK    7  A    between atoms: C_12  and  C_13
REMARK                            x       y       z     vdW  Elec       q    Type
REMARK                         _______ _______ _______ _____ _____    ______ ____
ROOT
ATOM      1  C   UNL     1       7.255   6.594  18.001  0.00  0.00    +0.000 C 
ATOM      2  O   UNL     1       8.027   6.283  18.903  0.00  0.00    +0.000 OA
ATOM      3  N   UNL     1       7.389   7.717  17.221  0.00  0.00    +0.000 N 
ATOM      4  H   UNL     1       6.782   7.977  16.459  0.00  0.00    +0.000 HD
ENDROOT
BRANCH   1   8
ATOM      5  C   UNL     1       3.791   4.143  17.211  0.00  0.00    +0.000 A 
ATOM      6  C   UNL     1       3.757   5.157  18.167  0.00  0.00    +0.000 A 
ATOM      7  C   UNL     1       4.888   5.941  18.406  0.00  0.00    +0.000 A 
ATOM      8  C   UNL     1       6.079   5.712  17.703  0.00  0.00    +0.000 A 
ATOM      9  C   UNL     1       6.112   4.673  16.760  0.00  0.00    +0.000 A 
ATOM     10  C   UNL     1       4.978   3.886  16.527  0.00  0.00    +0.000 A 
BRANCH   5  11
ATOM     11  O   UNL     1       2.621   3.462  17.034  0.00  0.00    +0.000 OA
BRANCH  11  13
ATOM     12  C   UNL     1       1.174   2.441  18.626  0.00  0.00    +0.000 C 
ATOM     13  C   UNL     1       2.455   2.287  17.829  0.00  0.00    +0.000 C 
ENDBRANCH  11  13
ENDBRANCH   5  11
ENDBRANCH   1   8
BRANCH   3  14
ATOM     14  O   UNL     1       8.500   8.546  17.497  0.00  0.00    +0.000 OA
BRANCH  14  15
ATOM     15  C   UNL     1       8.051   9.782  18.063  0.00  0.00    +0.000 C 
BRANCH  15  16
ATOM     16  C   UNL     1       9.201  10.561  18.647  0.00  0.00    +0.000 A 
ATOM     17  C   UNL     1       9.309  10.777  20.029  0.00  0.00    +0.000 A 
ATOM     18  C   UNL     1      10.383  11.496  20.552  0.00  0.00    +0.000 A 
ATOM     19  C   UNL     1      11.371  11.993  19.704  0.00  0.00    +0.000 A 
ATOM     20  C   UNL     1      11.292  11.760  18.333  0.00  0.00    +0.000 A 
ATOM     21  C   UNL     1      10.216  11.042  17.807  0.00  0.00    +0.000 A 
ENDBRANCH  15  16
ENDBRANCH  14  15
ENDBRANCH   3  14
TORSDOF 6
ENDMDL
MODEL 3
REMARK VINA RESULT:      -7.0      1.957      8.504
REMARK  Name = 
REMARK  7 active torsions:
REMARK  status: ('A' for Active; 'I' for Inactive)
REMARK    1  A    between atoms: C_1  and  C_2
REMARK    2  A    between atoms: C_2  and  O_3
REMARK    3  A    between atoms: O_3  and  C_4
REMARK    4  A    between atoms: C_7  and  C_8
REMARK    5  A    between atoms: N_10  and  O_11
REMARK    6  A    between atoms: O_11  and  C_12
REMARK    7  A    between atoms: C_12  and  C_13
REMARK                            x       y       z     vdW  Elec       q    Type
REMARK                         _______ _______ _______ _____ _____    ______ ____
ROOT
ATOM      1  C   UNL     1       7.360   6.624  18.082  0.00  0.00    +0.000 C 
ATOM      2  O   UNL     1       8.134   6.279  18.970  0.00  0.00    +0.000 OA
ATOM      3  N   UNL     1       7.499   7.770  17.337  0.00  0.00    +0.000 N 
ATOM      4  H   UNL     1       6.891   8.058  16.586  0.00  0.00    +0.000 HD
ENDROOT
BRANCH   1   8
ATOM      5  C   UNL     1       3.907   4.162  17.281  0.00  0.00    +0.000 A 
ATOM      6  C   UNL     1       4.220   4.570  18.576  0.00  0.00    +0.000 A 
ATOM      7  C   UNL     1       5.340   5.369  18.815  0.00  0.00    +0.000 A 
ATOM      8  C   UNL     1       6.177   5.759  17.760  0.00  0.00    +0.000 A 
ATOM      9  C   UNL     1       5.870   5.323  16.463  0.00  0.00    +0.000 A 
ATOM     10  C   UNL     1       4.748   4.518  16.228  0.00  0.00    +0.000 A 
BRANCH   5  11
ATOM     11  O   UNL     1       2.772   3.413  17.158  0.00  0.00    +0.000 OA
BRANCH  11  13
ATOM     12  C   UNL     1       1.307   2.303  18.672  0.00  0.00    +0.000 C 
ATOM     13  C   UNL     1       2.676   2.276  18.019  0.00  0.00    +0.000 C 
ENDBRANCH  11  13
ENDBRANCH   5  11
ENDBRANCH   1   8
BRANCH   3  14
ATOM     14  O   UNL     1       8.616   8.583  17.635  0.00  0.00    +0.000 OA
BRANCH  14  15
ATOM     15  C   UNL     1       8.174   9.834  18.171  0.00  0.00    +0.000 C 
BRANCH  15  16
ATOM     16  C   UNL     1       9.329  10.625  18.728  0.00  0.00    +0.000 A 
ATOM     17  C   UNL     1      10.359  11.094  17.898  0.00  0.00    +0.000 A 
ATOM     18  C   UNL     1      11.417  11.830  18.430  0.00  0.00    +0.000 A 
ATOM     19  C   UNL     1      11.451  12.123  19.792  0.00  0.00    +0.000 A 
ATOM     20  C   UNL     1      10.419  11.690  20.622  0.00  0.00    +0.000 A 
ATOM     21  C   UNL     1       9.360  10.951  20.091  0.00  0.00    +0.000 A 
ENDBRANCH  15  16
ENDBRANCH  14  15
ENDBRANCH   3  14
TORSDOF 6
ENDMDL
MODEL 4
REMARK VINA RESULT:      -7.0      2.898      4.736
REMARK  Name = 
REMARK  7 active torsions:
REMARK  status: ('A' for Active; 'I' for Inactive)
REMARK    1  A    between atoms: C_1  and  C_2
REMARK    2  A    between atoms: C_2  and  O_3
REMARK    3  A    between atoms: O_3  and  C_4
REMARK    4  A    between atoms: C_7  and  C_8
REMARK    5  A    between atoms: N_10  and  O_11
REMARK    6  A    between atoms: O_11  and  C_12
REMARK    7  A    between atoms: C_12  and  C_13
REMARK                            x       y       z     vdW  Elec       q    Type
REMARK                         _______ _______ _______ _____ _____    ______ ____
ROOT
ATOM      1  C   UNL     1       5.332   4.847  18.080  0.00  0.00    +0.000 C 
ATOM      2  O   UNL     1       5.676   4.042  18.941  0.00  0.00    +0.000 OA
ATOM      3  N   UNL     1       4.527   5.935  18.315  0.00  0.00    +0.000 N 
ATOM      4  H   UNL     1       4.254   6.622  17.630  0.00  0.00    +0.000 HD
ENDROOT
BRANCH   1   8
ATOM      5  C   UNL     1       6.572   4.279  13.985  0.00  0.00    +0.000 A 
ATOM      6  C   UNL     1       5.355   3.781  14.448  0.00  0.00    +0.000 A 
ATOM      7  C   UNL     1       4.971   3.978  15.777  0.00  0.00    +0.000 A 
ATOM      8  C   UNL     1       5.807   4.663  16.669  0.00  0.00    +0.000 A 
ATOM      9  C   UNL     1       7.042   5.138  16.202  0.00  0.00    +0.000 A 
ATOM     10  C   UNL     1       7.426   4.935  14.871  0.00  0.00    +0.000 A 
BRANCH   5  11
ATOM     11  O   UNL     1       6.833   4.059  12.663  0.00  0.00    +0.000 OA
BRANCH  11  13
ATOM     12  C   UNL     1       6.950   2.112  11.298  0.00  0.00    +0.000 C 
ATOM     13  C   UNL     1       6.024   3.072  12.022  0.00  0.00    +0.000 C 
ENDBRANCH  11  13
ENDBRANCH   5  11
ENDBRANCH   1   8
BRANCH   3  14
ATOM     14  O   UNL     1       4.083   6.113  19.646  0.00  0.00    +0.000 OA
BRANCH  14  15
ATOM     15  C   UNL     1       2.654   6.177  19.674  0.00  0.00    +0.000 C 
BRANCH  15  16
ATOM     16  C   UNL     1       2.048   4.798  19.715  0.00  0.00    +0.000 A 
ATOM     17  C   UNL     1       1.812   4.141  20.931  0.00  0.00    +0.000 A 
ATOM     18  C   UNL     1       1.245   2.867  20.950  0.00  0.00    +0.000 A 
ATOM     19  C   UNL     1       0.892   2.241  19.756  0.00  0.00    +0.000 A 
ATOM     20  C   UNL     1       1.093   2.894  18.543  0.00  0.00    +0.000 A 
ATOM     21  C   UNL     1       1.662   4.169  18.522  0.00  0.00    +0.000 A 
ENDBRANCH  15  16
ENDBRANCH  14  15
ENDBRANCH   3  14
TORSDOF 6
ENDMDL
MODEL 5
REMARK VINA RESULT:      -6.9      0.353      1.135
REMARK  Name = 
REMARK  7 active torsions:
REMARK  status: ('A' for Active; 'I' for Inactive)
REMARK    1  A    between atoms: C_1  and  C_2
REMARK    2  A    between atoms: C_2  and  O_3
REMARK    3  A    between atoms: O_3  and  C_4
REMARK    4  A    between atoms: C_7  and  C_8
REMARK    5  A    between atoms: N_10  and  O_11
REMARK    6  A    between atoms: O_11  and  C_12
REMARK    7  A    between atoms: C_12  and  C_13
REMARK                            x       y       z     vdW  Elec       q    Type
REMARK                         _______ _______ _______ _____ _____    ______ ____
ROOT
ATOM      1  C   UNL     1       4.861   4.140  16.736  0.00  0.00    +0.000 C 
ATOM      2  O   UNL     1       5.221   3.276  15.941  0.00  0.00    +0.000 OA
ATOM      3  N   UNL     1       3.569   4.297  17.176  0.00  0.00    +0.000 N 
ATOM      4  H   UNL     1       3.257   4.982  17.846  0.00  0.00    +0.000 HD
ENDROOT
BRANCH   1   8
ATOM      5  C   UNL     1       7.693   7.014  18.269  0.00  0.00    +0.000 A 
ATOM      6  C   UNL     1       6.686   7.393  17.383  0.00  0.00    +0.000 A 
ATOM      7  C   UNL     1       5.777   6.448  16.900  0.00  0.00    +0.000 A 
ATOM      8  C   UNL     1       5.873   5.103  17.284  0.00  0.00    +0.000 A 
ATOM      9  C   UNL     1       6.905   4.726  18.156  0.00  0.00    +0.000 A 
ATOM     10  C   UNL     1       7.817   5.675  18.634  0.00  0.00    +0.000 A 
BRANCH   5  11
ATOM     11  O   UNL     1       8.504   8.023  18.704  0.00  0.00    +0.000 OA
BRANCH  11  13
ATOM     12  C   UNL     1       9.186  10.304  18.765  0.00  0.00    +0.000 C 
ATOM     13  C   UNL     1       8.399   9.259  17.996  0.00  0.00    +0.000 C 
ENDBRANCH  11  13
ENDBRANCH   5  11
ENDBRANCH   1   8
BRANCH   3  14
ATOM     14  O   UNL     1       2.616   3.387  16.664  0.00  0.00    +0.000 OA
BRANCH  14  15
ATOM     15  C   UNL     1       2.551   2.232  17.506  0.00  0.00    +0.000 C 
BRANCH  15  16
ATOM     16  C   UNL     1       2.268   2.616  18.935  0.00  0.00    +0.000 A 
ATOM     17  C   UNL     1       1.030   3.157  19.314  0.00  0.00    +0.000 A 
ATOM     18  C   UNL     1       0.785   3.502  20.643  0.00  0.00    +0.000 A 
ATOM     19  C   UNL     1       1.764   3.294  21.611  0.00  0.00    +0.000 A 
ATOM     20  C   UNL     1       2.987   2.729  21.255  0.00  0.00    +0.000 A 
ATOM     21  C   UNL     1       3.235   2.386  19.924  0.00  0.00    +0.000 A 
ENDBRANCH  15  16
ENDBRANCH  14  15
ENDBRANCH   3  14
TORSDOF 6
ENDMDL
MODEL 6
REMARK VINA RESULT:      -6.9      3.773      7.179
REMARK  Name = 
REMARK  7 active torsions:
REMARK  status: ('A' for Active; 'I' for Inactive)
REMARK    1  A    between atoms: C_1  and  C_2
REMARK    2  A    between atoms: C_2  and  O_3
REMARK    3  A    between atoms: O_3  and  C_4
REMARK    4  A    between atoms: C_7  and  C_8
REMARK    5  A    between atoms: N_10  and  O_11
REMARK    6  A    between atoms: O_11  and  C_12
REMARK    7  A    between atoms: C_12  and  C_13
REMARK                            x       y       z     vdW  Elec       q    Type
REMARK                         _______ _______ _______ _____ _____    ______ ____
ROOT
ATOM      1  C   UNL     1       6.758   4.860  15.877  0.00  0.00    +0.000 C 
ATOM      2  O   UNL     1       7.783   4.469  16.428  0.00  0.00    +0.000 OA
ATOM      3  N   UNL     1       6.694   5.284  14.572  0.00  0.00    +0.000 N 
ATOM      4  H   UNL     1       5.860   5.584  14.093  0.00  0.00    +0.000 HD
ENDROOT
BRANCH   1   8
ATOM      5  C   UNL     1       3.068   5.075  18.107  0.00  0.00    +0.000 A 
ATOM      6  C   UNL     1       3.936   6.164  18.037  0.00  0.00    +0.000 A 
ATOM      7  C   UNL     1       5.124   6.076  17.307  0.00  0.00    +0.000 A 
ATOM      8  C   UNL     1       5.472   4.888  16.650  0.00  0.00    +0.000 A 
ATOM      9  C   UNL     1       4.606   3.788  16.747  0.00  0.00    +0.000 A 
ATOM     10  C   UNL     1       3.418   3.880  17.483  0.00  0.00    +0.000 A 
BRANCH   5  11
ATOM     11  O   UNL     1       1.921   5.282  18.818  0.00  0.00    +0.000 OA
BRANCH  11  13
ATOM     12  C   UNL     1       2.207   4.468  21.037  0.00  0.00    +0.000 C 
ATOM     13  C   UNL     1       1.532   4.228  19.700  0.00  0.00    +0.000 C 
ENDBRANCH  11  13
ENDBRANCH   5  11
ENDBRANCH   1   8
BRANCH   3  14
ATOM     14  O   UNL     1       7.904   5.253  13.841  0.00  0.00    +0.000 OA
BRANCH  14  15
ATOM     15  C   UNL     1       7.621   5.236  12.439  0.00  0.00    +0.000 C 
BRANCH  15  16
ATOM     16  C   UNL     1       6.969   3.941  12.031  0.00  0.00    +0.000 A 
ATOM     17  C   UNL     1       5.577   3.776  12.086  0.00  0.00    +0.000 A 
ATOM     18  C   UNL     1       4.990   2.571  11.700  0.00  0.00    +0.000 A 
ATOM     19  C   UNL     1       5.784   1.524  11.237  0.00  0.00    +0.000 A 
ATOM     20  C   UNL     1       7.165   1.684  11.149  0.00  0.00    +0.000 A 
ATOM     21  C   UNL     1       7.754   2.889  11.537  0.00  0.00    +0.000 A 
ENDBRANCH  15  16
ENDBRANCH  14  15
ENDBRANCH   3  14
TORSDOF 6
ENDMDL
MODEL 7
REMARK VINA RESULT:      -6.9      3.791      7.191
REMARK  Name = 
REMARK  7 active torsions:
REMARK  status: ('A' for Active; 'I' for Inactive)
REMARK    1  A    between atoms: C_1  and  C_2
REMARK    2  A    between atoms: C_2  and  O_3
REMARK    3  A    between atoms: O_3  and  C_4
REMARK    4  A    between atoms: C_7  and  C_8
REMARK    5  A    between atoms: N_10  and  O_11
REMARK    6  A    between atoms: O_11  and  C_12
REMARK    7  A    between atoms: C_12  and  C_13
REMARK                            x       y       z     vdW  Elec       q    Type
REMARK                         _______ _______ _______ _____ _____    ______ ____
ROOT
ATOM      1  C   UNL     1       6.700   5.055  15.915  0.00  0.00    +0.000 C 
ATOM      2  O   UNL     1       7.711   4.670  16.495  0.00  0.00    +0.000 OA
ATOM      3  N   UNL     1       6.643   5.354  14.576  0.00  0.00    +0.000 N 
ATOM      4  H   UNL     1       5.818   5.645  14.074  0.00  0.00    +0.000 HD
ENDROOT
BRANCH   1   8
ATOM      5  C   UNL     1       3.025   5.385  18.156  0.00  0.00    +0.000 A 
ATOM      6  C   UNL     1       3.463   4.158  17.660  0.00  0.00    +0.000 A 
ATOM      7  C   UNL     1       4.656   4.071  16.939  0.00  0.00    +0.000 A 
ATOM      8  C   UNL     1       5.424   5.217  16.689  0.00  0.00    +0.000 A 
ATOM      9  C   UNL     1       4.964   6.452  17.169  0.00  0.00    +0.000 A 
ATOM     10  C   UNL     1       3.765   6.535  17.887  0.00  0.00    +0.000 A 
BRANCH   5  11
ATOM     11  O   UNL     1       1.865   5.350  18.873  0.00  0.00    +0.000 OA
BRANCH  11  13
ATOM     12  C   UNL     1       1.009   3.702  20.365  0.00  0.00    +0.000 C 
ATOM     13  C   UNL     1       1.972   4.864  20.213  0.00  0.00    +0.000 C 
ENDBRANCH  11  13
ENDBRANCH   5  11
ENDBRANCH   1   8
BRANCH   3  14
ATOM     14  O   UNL     1       7.842   5.197  13.844  0.00  0.00    +0.000 OA
BRANCH  14  15
ATOM     15  C   UNL     1       7.558   5.210  12.442  0.00  0.00    +0.000 C 
BRANCH  15  16
ATOM     16  C   UNL     1       6.942   3.908  12.000  0.00  0.00    +0.000 A 
ATOM     17  C   UNL     1       7.734   2.839  11.556  0.00  0.00    +0.000 A 
ATOM     18  C   UNL     1       7.146   1.639  11.156  0.00  0.00    +0.000 A 
ATOM     19  C   UNL     1       5.763   1.487  11.211  0.00  0.00    +0.000 A 
ATOM     20  C   UNL     1       4.966   2.529  11.678  0.00  0.00    +0.000 A 
ATOM     21  C   UNL     1       5.553   3.731  12.077  0.00  0.00    +0.000 A 
ENDBRANCH  15  16
ENDBRANCH  14  15
ENDBRANCH   3  14
TORSDOF 6
ENDMDL
MODEL 8
REMARK VINA RESULT:      -6.9      1.440      1.790
REMARK  Name = 
REMARK  7 active torsions:
REMARK  status: ('A' for Active; 'I' for Inactive)
REMARK    1  A    between atoms: C_1  and  C_2
REMARK    2  A    between atoms: C_2  and  O_3
REMARK    3  A    between atoms: O_3  and  C_4
REMARK    4  A    between atoms: C_7  and  C_8
REMARK    5  A    between atoms: N_10  and  O_11
REMARK    6  A    between atoms: O_11  and  C_12
REMARK    7  A    between atoms: C_12  and  C_13
REMARK                            x       y       z     vdW  Elec       q    Type
REMARK                         _______ _______ _______ _____ _____    ______ ____
ROOT
ATOM      1  C   UNL     1       5.296   3.744  18.471  0.00  0.00    +0.000 C 
ATOM      2  O   UNL     1       5.251   3.290  19.611  0.00  0.00    +0.000 OA
ATOM      3  N   UNL     1       4.689   3.166  17.383  0.00  0.00    +0.000 N 
ATOM      4  H   UNL     1       4.691   3.536  16.445  0.00  0.00    +0.000 HD
ENDROOT
BRANCH   1   8
ATOM      5  C   UNL     1       7.364   7.447  17.668  0.00  0.00    +0.000 A 
ATOM      6  C   UNL     1       6.188   7.114  16.996  0.00  0.00    +0.000 A 
ATOM      7  C   UNL     1       5.532   5.912  17.273  0.00  0.00    +0.000 A 
ATOM      8  C   UNL     1       6.053   5.014  18.215  0.00  0.00    +0.000 A 
ATOM      9  C   UNL     1       7.250   5.345  18.867  0.00  0.00    +0.000 A 
ATOM     10  C   UNL     1       7.907   6.548  18.584  0.00  0.00    +0.000 A 
BRANCH   5  11
ATOM     11  O   UNL     1       7.903   8.659  17.345  0.00  0.00    +0.000 OA
BRANCH  11  13
ATOM     12  C   UNL     1       8.782  10.778  17.982  0.00  0.00    +0.000 C 
ATOM     13  C   UNL     1       8.612   9.327  18.390  0.00  0.00    +0.000 C 
ENDBRANCH  11  13
ENDBRANCH   5  11
ENDBRANCH   1   8
BRANCH   3  14
ATOM     14  O   UNL     1       3.971   1.972  17.623  0.00  0.00    +0.000 OA
BRANCH  14  15
ATOM     15  C   UNL     1       2.567   2.217  17.489  0.00  0.00    +0.000 C 
BRANCH  15  16
ATOM     16  C   UNL     1       2.043   3.026  18.646  0.00  0.00    +0.000 A 
ATOM     17  C   UNL     1       1.840   4.410  18.537  0.00  0.00    +0.000 A 
ATOM     18  C   UNL     1       1.348   5.142  19.617  0.00  0.00    +0.000 A 
ATOM     19  C   UNL     1       1.037   4.499  20.813  0.00  0.00    +0.000 A 
ATOM     20  C   UNL     1       1.205   3.121  20.926  0.00  0.00    +0.000 A 
ATOM     21  C   UNL     1       1.699   2.387  19.846  0.00  0.00    +0.000 A 
ENDBRANCH  15  16
ENDBRANCH  14  15
ENDBRANCH   3  14
TORSDOF 6
ENDMDL
MODEL 9
REMARK VINA RESULT:      -6.9      1.877      8.302
REMARK  Name = 
REMARK  7 active torsions:
REMARK  status: ('A' for Active; 'I' for Inactive)
REMARK    1  A    between atoms: C_1  and  C_2
REMARK    2  A    between atoms: C_2  and  O_3
REMARK    3  A    between atoms: O_3  and  C_4
REMARK    4  A    between atoms: C_7  and  C_8
REMARK    5  A    between atoms: N_10  and  O_11
REMARK    6  A    between atoms: O_11  and  C_12
REMARK    7  A    between atoms: C_12  and  C_13
REMARK                            x       y       z     vdW  Elec       q    Type
REMARK                         _______ _______ _______ _____ _____    ______ ____
ROOT
ATOM      1  C   UNL     1       6.872   6.562  17.208  0.00  0.00    +0.000 C 
ATOM      2  O   UNL     1       7.541   6.480  16.183  0.00  0.00    +0.000 OA
ATOM      3  N   UNL     1       7.230   7.301  18.309  0.00  0.00    +0.000 N 
ATOM      4  H   UNL     1       6.685   7.403  19.151  0.00  0.00    +0.000 HD
ENDROOT
BRANCH   1   8
ATOM      5  C   UNL     1       3.198   4.311  17.464  0.00  0.00    +0.000 A 
ATOM      6  C   UNL     1       4.393   3.704  17.082  0.00  0.00    +0.000 A 
ATOM      7  C   UNL     1       5.573   4.449  17.008  0.00  0.00    +0.000 A 
ATOM      8  C   UNL     1       5.571   5.820  17.300  0.00  0.00    +0.000 A 
ATOM      9  C   UNL     1       4.359   6.429  17.658  0.00  0.00    +0.000 A 
ATOM     10  C   UNL     1       3.178   5.680  17.727  0.00  0.00    +0.000 A 
BRANCH   5  11
ATOM     11  O   UNL     1       2.115   3.483  17.536  0.00  0.00    +0.000 OA
BRANCH  11  13
ATOM     12  C   UNL     1       1.129   3.070  19.664  0.00  0.00    +0.000 C 
ATOM     13  C   UNL     1       2.106   2.557  18.623  0.00  0.00    +0.000 C 
ENDBRANCH  11  13
ENDBRANCH   5  11
ENDBRANCH   1   8
BRANCH   3  14
ATOM     14  O   UNL     1       8.454   8.005  18.223  0.00  0.00    +0.000 OA
BRANCH  14  15
ATOM     15  C   UNL     1       8.199   9.384  17.936  0.00  0.00    +0.000 C 
BRANCH  15  16
ATOM     16  C   UNL     1       9.228  10.273  18.584  0.00  0.00    +0.000 A 
ATOM     17  C   UNL     1      10.209  10.928  17.824  0.00  0.00    +0.000 A 
ATOM     18  C   UNL     1      11.150  11.751  18.440  0.00  0.00    +0.000 A 
ATOM     19  C   UNL     1      11.112  11.946  19.819  0.00  0.00    +0.000 A 
ATOM     20  C   UNL     1      10.125  11.327  20.582  0.00  0.00    +0.000 A 
ATOM     21  C   UNL     1       9.183  10.500  19.967  0.00  0.00    +0.000 A 
ENDBRANCH  15  16
ENDBRANCH  14  15
ENDBRANCH   3  14
TORSDOF 6
ENDMDL
