MODEL 1
REMARK VINA RESULT:      -8.6      0.000      0.000
REMARK  Name = 
REMARK  6 active torsions:
REMARK  status: ('A' for Active; 'I' for Inactive)
REMARK    1  A    between atoms: C_1  and  O_2
REMARK    2  A    between atoms: O_2  and  C_3
REMARK    3  A    between atoms: C_6  and  S_7
REMARK    4  A    between atoms: S_7  and  N_10
REMARK    5  A    between atoms: C_14  and  C_16
REMARK    6  A    between atoms: C_19  and  N_20
REMARK                            x       y       z     vdW  Elec       q    Type
REMARK                         _______ _______ _______ _____ _____    ______ ____
ROOT
ATOM      1  N   UNL     1       2.676   1.846  19.486  0.00  0.00    +0.000 NA
ATOM      2  C   UNL     1       3.298   1.758  18.139  0.00  0.00    +0.000 C 
ATOM      3  C   UNL     1       4.023   3.045  17.750  0.00  0.00    +0.000 C 
ATOM      4  N   UNL     1       4.919   3.610  18.769  0.00  0.00    +0.000 N 
ATOM      5  C   UNL     1       5.814   4.669  18.477  0.00  0.00    +0.000 C 
ATOM      6  O   UNL     1       6.593   5.095  19.334  0.00  0.00    +0.000 OA
ATOM      7  C   UNL     1       4.505   3.470  20.171  0.00  0.00    +0.000 C 
ATOM      8  C   UNL     1       3.741   2.171  20.495  0.00  0.00    +0.000 C 
ENDROOT
BRANCH   5   9
ATOM      9  C   UNL     1       5.787   5.245  17.130  0.00  0.00    +0.000 A 
ATOM     10  C   UNL     1       5.109   6.329  16.583  0.00  0.00    +0.000 A 
ATOM     11  C   UNL     1       5.469   6.405  15.204  0.00  0.00    +0.000 A 
ATOM     12  C   UNL     1       6.315   5.346  14.995  0.00  0.00    +0.000 A 
ATOM     13  O   UNL     1       6.485   4.626  16.123  0.00  0.00    +0.000 OA
BRANCH  12  14
ATOM     14  N   UNL     1       7.048   4.887  13.857  0.00  0.00    +0.000 N 
ATOM     15  O   UNL     1       6.582   3.909  13.260  0.00  0.00    +0.000 OA
ATOM     16  O   UNL     1       8.065   5.516  13.538  0.00  0.00    +0.000 OA
ENDBRANCH  12  14
ENDBRANCH   5   9
BRANCH   1  17
ATOM     17  S   UNL     1       1.235   2.754  19.655  0.00  0.00    +0.000 S 
ATOM     18  O   UNL     1       0.831   2.675  21.046  0.00  0.00    +0.000 OA
ATOM     19  O   UNL     1       0.336   2.338  18.602  0.00  0.00    +0.000 OA
BRANCH  17  23
ATOM     20  C   UNL     1       2.361   7.122  18.804  0.00  0.00    +0.000 A 
ATOM     21  C   UNL     1       2.056   6.249  17.751  0.00  0.00    +0.000 A 
ATOM     22  C   UNL     1       1.710   4.913  17.999  0.00  0.00    +0.000 A 
ATOM     23  C   UNL     1       1.697   4.442  19.313  0.00  0.00    +0.000 A 
ATOM     24  C   UNL     1       1.994   5.307  20.371  0.00  0.00    +0.000 A 
ATOM     25  C   UNL     1       2.325   6.645  20.115  0.00  0.00    +0.000 A 
BRANCH  20  27
ATOM     26  C   UNL     1       1.699   9.167  17.787  0.00  0.00    +0.000 C 
ATOM     27  O   UNL     1       2.708   8.391  18.428  0.00  0.00    +0.000 OA
ENDBRANCH  20  27
ENDBRANCH  17  23
ENDBRANCH   1  17
TORSDOF 5
ENDMDL
MODEL 2
REMARK VINA RESULT:      -8.3      0.112      1.111
REMARK  Name = 
REMARK  6 active torsions:
REMARK  status: ('A' for Active; 'I' for Inactive)
REMARK    1  A    between atoms: C_1  and  O_2
REMARK    2  A    between atoms: O_2  and  C_3
REMARK    3  A    between atoms: C_6  and  S_7
REMARK    4  A    between atoms: S_7  and  N_10
REMARK    5  A    between atoms: C_14  and  C_16
REMARK    6  A    between atoms: C_19  and  N_20
REMARK                            x       y       z     vdW  Elec       q    Type
REMARK                         _______ _______ _______ _____ _____    ______ ____
ROOT
ATOM      1  N   UNL     1       2.719   1.811  19.578  0.00  0.00    +0.000 NA
ATOM      2  C   UNL     1       3.333   1.723  18.227  0.00  0.00    +0.000 C 
ATOM      3  C   UNL     1       4.034   3.019  17.824  0.00  0.00    +0.000 C 
ATOM      4  N   UNL     1       4.927   3.607  18.832  0.00  0.00    +0.000 N 
ATOM      5  C   UNL     1       5.802   4.678  18.527  0.00  0.00    +0.000 C 
ATOM      6  O   UNL     1       6.580   5.123  19.375  0.00  0.00    +0.000 OA
ATOM      7  C   UNL     1       4.525   3.470  20.238  0.00  0.00    +0.000 C 
ATOM      8  C   UNL     1       3.785   2.161  20.577  0.00  0.00    +0.000 C 
ENDROOT
BRANCH   5   9
ATOM      9  C   UNL     1       5.757   5.244  17.175  0.00  0.00    +0.000 A 
ATOM     10  C   UNL     1       5.068   6.321  16.630  0.00  0.00    +0.000 A 
ATOM     11  C   UNL     1       5.410   6.389  15.245  0.00  0.00    +0.000 A 
ATOM     12  C   UNL     1       6.257   5.331  15.034  0.00  0.00    +0.000 A 
ATOM     13  O   UNL     1       6.444   4.620  16.165  0.00  0.00    +0.000 OA
BRANCH  12  14
ATOM     14  N   UNL     1       6.978   4.866  13.891  0.00  0.00    +0.000 N 
ATOM     15  O   UNL     1       8.024   5.467  13.617  0.00  0.00    +0.000 OA
ATOM     16  O   UNL     1       6.524   3.886  13.286  0.00  0.00    +0.000 OA
ENDBRANCH  12  14
ENDBRANCH   5   9
BRANCH   1  17
ATOM     17  S   UNL     1       1.264   2.695  19.749  0.00  0.00    +0.000 S 
ATOM     18  O   UNL     1       0.902   2.669  21.155  0.00  0.00    +0.000 OA
ATOM     19  O   UNL     1       0.344   2.217  18.743  0.00  0.00    +0.000 OA
BRANCH  17  23
ATOM     20  C   UNL     1       2.394   7.000  18.622  0.00  0.00    +0.000 A 
ATOM     21  C   UNL     1       2.415   6.587  19.960  0.00  0.00    +0.000 A 
ATOM     22  C   UNL     1       2.073   5.275  20.317  0.00  0.00    +0.000 A 
ATOM     23  C   UNL     1       1.679   4.376  19.323  0.00  0.00    +0.000 A 
ATOM     24  C   UNL     1       1.660   4.777  17.983  0.00  0.00    +0.000 A 
ATOM     25  C   UNL     1       2.017   6.087  17.635  0.00  0.00    +0.000 A 
BRANCH  20  27
ATOM     26  C   UNL     1       1.696   9.152  17.891  0.00  0.00    +0.000 C 
ATOM     27  O   UNL     1       2.722   8.311  18.410  0.00  0.00    +0.000 OA
ENDBRANCH  20  27
ENDBRANCH  17  23
ENDBRANCH   1  17
TORSDOF 5
ENDMDL
MODEL 3
REMARK VINA RESULT:      -7.6      2.706      3.833
REMARK  Name = 
REMARK  6 active torsions:
REMARK  status: ('A' for Active; 'I' for Inactive)
REMARK    1  A    between atoms: C_1  and  O_2
REMARK    2  A    between atoms: O_2  and  C_3
REMARK    3  A    between atoms: C_6  and  S_7
REMARK    4  A    between atoms: S_7  and  N_10
REMARK    5  A    between atoms: C_14  and  C_16
REMARK    6  A    between atoms: C_19  and  N_20
REMARK                            x       y       z     vdW  Elec       q    Type
REMARK                         _______ _______ _______ _____ _____    ______ ____
ROOT
ATOM      1  N   UNL     1       2.483   5.986  18.842  0.00  0.00    +0.000 NA
ATOM      2  C   UNL     1       2.500   4.930  17.796  0.00  0.00    +0.000 C 
ATOM      3  C   UNL     1       3.829   4.879  17.045  0.00  0.00    +0.000 C 
ATOM      4  N   UNL     1       5.039   4.890  17.880  0.00  0.00    +0.000 N 
ATOM      5  C   UNL     1       6.324   4.633  17.343  0.00  0.00    +0.000 C 
ATOM      6  O   UNL     1       7.320   4.597  18.071  0.00  0.00    +0.000 OA
ATOM      7  C   UNL     1       4.991   5.692  19.110  0.00  0.00    +0.000 C 
ATOM      8  C   UNL     1       3.614   5.741  19.800  0.00  0.00    +0.000 C 
ENDROOT
BRANCH   5   9
ATOM      9  C   UNL     1       6.438   4.411  15.899  0.00  0.00    +0.000 A 
ATOM     10  C   UNL     1       5.841   3.497  15.038  0.00  0.00    +0.000 A 
ATOM     11  C   UNL     1       6.348   3.752  13.728  0.00  0.00    +0.000 A 
ATOM     12  C   UNL     1       7.241   4.781  13.883  0.00  0.00    +0.000 A 
ATOM     13  O   UNL     1       7.331   5.159  15.175  0.00  0.00    +0.000 OA
BRANCH  12  14
ATOM     14  N   UNL     1       8.049   5.524  12.968  0.00  0.00    +0.000 N 
ATOM     15  O   UNL     1       7.638   5.596  11.803  0.00  0.00    +0.000 OA
ATOM     16  O   UNL     1       9.072   6.062  13.411  0.00  0.00    +0.000 OA
ENDBRANCH  12  14
ENDBRANCH   5   9
BRANCH   1  17
ATOM     17  S   UNL     1       2.308   7.614  18.347  0.00  0.00    +0.000 S 
ATOM     18  O   UNL     1       1.317   7.644  17.287  0.00  0.00    +0.000 OA
ATOM     19  O   UNL     1       3.635   8.145  18.130  0.00  0.00    +0.000 OA
BRANCH  17  23
ATOM     20  C   UNL     1       0.614   9.850  21.981  0.00  0.00    +0.000 A 
ATOM     21  C   UNL     1       1.012   8.511  22.093  0.00  0.00    +0.000 A 
ATOM     22  C   UNL     1       1.532   7.818  20.990  0.00  0.00    +0.000 A 
ATOM     23  C   UNL     1       1.627   8.467  19.757  0.00  0.00    +0.000 A 
ATOM     24  C   UNL     1       1.237   9.804  19.637  0.00  0.00    +0.000 A 
ATOM     25  C   UNL     1       0.732  10.493  20.748  0.00  0.00    +0.000 A 
BRANCH  20  27
ATOM     26  C   UNL     1      -1.241  10.883  23.052  0.00  0.00    +0.000 C 
ATOM     27  O   UNL     1       0.099  10.403  23.121  0.00  0.00    +0.000 OA
ENDBRANCH  20  27
ENDBRANCH  17  23
ENDBRANCH   1  17
TORSDOF 5
ENDMDL
MODEL 4
REMARK VINA RESULT:      -7.5      0.959      1.188
REMARK  Name = 
REMARK  6 active torsions:
REMARK  status: ('A' for Active; 'I' for Inactive)
REMARK    1  A    between atoms: C_1  and  O_2
REMARK    2  A    between atoms: O_2  and  C_3
REMARK    3  A    between atoms: C_6  and  S_7
REMARK    4  A    between atoms: S_7  and  N_10
REMARK    5  A    between atoms: C_14  and  C_16
REMARK    6  A    between atoms: C_19  and  N_20
REMARK                            x       y       z     vdW  Elec       q    Type
REMARK                         _______ _______ _______ _____ _____    ______ ____
ROOT
ATOM      1  N   UNL     1       3.059   2.272  19.759  0.00  0.00    +0.000 NA
ATOM      2  C   UNL     1       3.705   1.654  18.572  0.00  0.00    +0.000 C 
ATOM      3  C   UNL     1       4.333   2.695  17.647  0.00  0.00    +0.000 C 
ATOM      4  N   UNL     1       5.167   3.715  18.299  0.00  0.00    +0.000 N 
ATOM      5  C   UNL     1       5.979   4.606  17.557  0.00  0.00    +0.000 C 
ATOM      6  O   UNL     1       6.711   5.421  18.126  0.00  0.00    +0.000 OA
ATOM      7  C   UNL     1       4.745   4.167  19.631  0.00  0.00    +0.000 C 
ATOM      8  C   UNL     1       4.081   3.085  20.504  0.00  0.00    +0.000 C 
ENDROOT
BRANCH   5   9
ATOM      9  C   UNL     1       5.927   4.534  16.094  0.00  0.00    +0.000 A 
ATOM     10  C   UNL     1       4.951   4.092  15.208  0.00  0.00    +0.000 A 
ATOM     11  C   UNL     1       5.469   4.252  13.888  0.00  0.00    +0.000 A 
ATOM     12  C   UNL     1       6.735   4.751  14.058  0.00  0.00    +0.000 A 
ATOM     13  O   UNL     1       7.034   4.890  15.366  0.00  0.00    +0.000 OA
BRANCH  12  14
ATOM     14  N   UNL     1       7.756   5.164  13.147  0.00  0.00    +0.000 N 
ATOM     15  O   UNL     1       8.691   5.817  13.627  0.00  0.00    +0.000 OA
ATOM     16  O   UNL     1       7.648   4.811  11.965  0.00  0.00    +0.000 OA
ENDBRANCH  12  14
ENDBRANCH   5   9
BRANCH   1  17
ATOM     17  S   UNL     1       1.549   3.048  19.547  0.00  0.00    +0.000 S 
ATOM     18  O   UNL     1       0.864   3.027  20.827  0.00  0.00    +0.000 OA
ATOM     19  O   UNL     1       0.930   2.479  18.371  0.00  0.00    +0.000 OA
BRANCH  17  23
ATOM     20  C   UNL     1       2.485   7.435  18.572  0.00  0.00    +0.000 A 
ATOM     21  C   UNL     1       2.484   6.467  17.560  0.00  0.00    +0.000 A 
ATOM     22  C   UNL     1       2.199   5.124  17.845  0.00  0.00    +0.000 A 
ATOM     23  C   UNL     1       1.939   4.745  19.164  0.00  0.00    +0.000 A 
ATOM     24  C   UNL     1       1.933   5.705  20.181  0.00  0.00    +0.000 A 
ATOM     25  C   UNL     1       2.205   7.048  19.883  0.00  0.00    +0.000 A 
BRANCH  20  27
ATOM     26  C   UNL     1       1.790   9.694  18.309  0.00  0.00    +0.000 C 
ATOM     27  O   UNL     1       2.805   8.702  18.168  0.00  0.00    +0.000 OA
ENDBRANCH  20  27
ENDBRANCH  17  23
ENDBRANCH   1  17
TORSDOF 5
ENDMDL
MODEL 5
REMARK VINA RESULT:      -7.5      2.703      3.817
REMARK  Name = 
REMARK  6 active torsions:
REMARK  status: ('A' for Active; 'I' for Inactive)
REMARK    1  A    between atoms: C_1  and  O_2
REMARK    2  A    between atoms: O_2  and  C_3
REMARK    3  A    between atoms: C_6  and  S_7
REMARK    4  A    between atoms: S_7  and  N_10
REMARK    5  A    between atoms: C_14  and  C_16
REMARK    6  A    between atoms: C_19  and  N_20
REMARK                            x       y       z     vdW  Elec       q    Type
REMARK                         _______ _______ _______ _____ _____    ______ ____
ROOT
ATOM      1  N   UNL     1       2.453   6.036  18.896  0.00  0.00    +0.000 NA
ATOM      2  C   UNL     1       2.457   4.974  17.857  0.00  0.00    +0.000 C 
ATOM      3  C   UNL     1       3.784   4.906  17.102  0.00  0.00    +0.000 C 
ATOM      4  N   UNL     1       4.996   4.912  17.933  0.00  0.00    +0.000 N 
ATOM      5  C   UNL     1       6.277   4.640  17.393  0.00  0.00    +0.000 C 
ATOM      6  O   UNL     1       7.275   4.601  18.117  0.00  0.00    +0.000 OA
ATOM      7  C   UNL     1       4.960   5.723  19.156  0.00  0.00    +0.000 C 
ATOM      8  C   UNL     1       3.586   5.789  19.852  0.00  0.00    +0.000 C 
ENDROOT
BRANCH   5   9
ATOM      9  C   UNL     1       6.383   4.407  15.949  0.00  0.00    +0.000 A 
ATOM     10  C   UNL     1       5.766   3.500  15.096  0.00  0.00    +0.000 A 
ATOM     11  C   UNL     1       6.276   3.735  13.783  0.00  0.00    +0.000 A 
ATOM     12  C   UNL     1       7.191   4.746  13.930  0.00  0.00    +0.000 A 
ATOM     13  O   UNL     1       7.291   5.131  15.220  0.00  0.00    +0.000 OA
BRANCH  12  14
ATOM     14  N   UNL     1       8.012   5.466  13.009  0.00  0.00    +0.000 N 
ATOM     15  O   UNL     1       8.970   6.084  13.491  0.00  0.00    +0.000 OA
ATOM     16  O   UNL     1       7.728   5.392  11.806  0.00  0.00    +0.000 OA
ENDBRANCH  12  14
ENDBRANCH   5   9
BRANCH   1  17
ATOM     17  S   UNL     1       2.291   7.662  18.390  0.00  0.00    +0.000 S 
ATOM     18  O   UNL     1       1.320   7.688  17.311  0.00  0.00    +0.000 OA
ATOM     19  O   UNL     1       3.622   8.191  18.195  0.00  0.00    +0.000 OA
BRANCH  17  23
ATOM     20  C   UNL     1       0.415   9.836  21.972  0.00  0.00    +0.000 A 
ATOM     21  C   UNL     1       0.516  10.473  20.728  0.00  0.00    +0.000 A 
ATOM     22  C   UNL     1       1.086   9.818  19.626  0.00  0.00    +0.000 A 
ATOM     23  C   UNL     1       1.585   8.523  19.782  0.00  0.00    +0.000 A 
ATOM     24  C   UNL     1       1.484   7.878  21.019  0.00  0.00    +0.000 A 
ATOM     25  C   UNL     1       0.899   8.534  22.110  0.00  0.00    +0.000 A 
BRANCH  20  27
ATOM     26  C   UNL     1      -0.808  11.783  22.574  0.00  0.00    +0.000 C 
ATOM     27  O   UNL     1      -0.136  10.591  22.971  0.00  0.00    +0.000 OA
ENDBRANCH  20  27
ENDBRANCH  17  23
ENDBRANCH   1  17
TORSDOF 5
ENDMDL
MODEL 6
REMARK VINA RESULT:      -7.2      1.427      1.854
REMARK  Name = 
REMARK  6 active torsions:
REMARK  status: ('A' for Active; 'I' for Inactive)
REMARK    1  A    between atoms: C_1  and  O_2
REMARK    2  A    between atoms: O_2  and  C_3
REMARK    3  A    between atoms: C_6  and  S_7
REMARK    4  A    between atoms: S_7  and  N_10
REMARK    5  A    between atoms: C_14  and  C_16
REMARK    6  A    between atoms: C_19  and  N_20
REMARK                            x       y       z     vdW  Elec       q    Type
REMARK                         _______ _______ _______ _____ _____    ______ ____
ROOT
ATOM      1  N   UNL     1       3.176   2.741  19.154  0.00  0.00    +0.000 NA
ATOM      2  C   UNL     1       3.994   2.030  18.137  0.00  0.00    +0.000 C 
ATOM      3  C   UNL     1       4.733   2.993  17.210  0.00  0.00    +0.000 C 
ATOM      4  N   UNL     1       5.451   4.094  17.868  0.00  0.00    +0.000 N 
ATOM      5  C   UNL     1       6.348   4.932  17.162  0.00  0.00    +0.000 C 
ATOM      6  O   UNL     1       6.979   5.819  17.744  0.00  0.00    +0.000 OA
ATOM      7  C   UNL     1       4.836   4.662  19.075  0.00  0.00    +0.000 C 
ATOM      8  C   UNL     1       4.070   3.651  19.950  0.00  0.00    +0.000 C 
ENDROOT
BRANCH   5   9
ATOM      9  C   UNL     1       6.506   4.717  15.720  0.00  0.00    +0.000 A 
ATOM     10  C   UNL     1       5.915   3.826  14.832  0.00  0.00    +0.000 A 
ATOM     11  C   UNL     1       6.474   4.075  13.542  0.00  0.00    +0.000 A 
ATOM     12  C   UNL     1       7.390   5.078  13.737  0.00  0.00    +0.000 A 
ATOM     13  O   UNL     1       7.446   5.444  15.034  0.00  0.00    +0.000 OA
BRANCH  12  14
ATOM     14  N   UNL     1       8.250   5.804  12.856  0.00  0.00    +0.000 N 
ATOM     15  O   UNL     1       9.370   6.094  13.295  0.00  0.00    +0.000 OA
ATOM     16  O   UNL     1       7.828   6.056  11.720  0.00  0.00    +0.000 OA
ENDBRANCH  12  14
ENDBRANCH   5   9
BRANCH   1  17
ATOM     17  S   UNL     1       1.702   3.451  18.655  0.00  0.00    +0.000 S 
ATOM     18  O   UNL     1       0.631   2.777  19.367  0.00  0.00    +0.000 OA
ATOM     19  O   UNL     1       1.710   3.497  17.210  0.00  0.00    +0.000 OA
BRANCH  17  23
ATOM     20  C   UNL     1       1.799   7.791  20.146  0.00  0.00    +0.000 A 
ATOM     21  C   UNL     1       2.166   7.484  18.829  0.00  0.00    +0.000 A 
ATOM     22  C   UNL     1       2.139   6.162  18.362  0.00  0.00    +0.000 A 
ATOM     23  C   UNL     1       1.767   5.136  19.233  0.00  0.00    +0.000 A 
ATOM     24  C   UNL     1       1.394   5.434  20.548  0.00  0.00    +0.000 A 
ATOM     25  C   UNL     1       1.410   6.760  21.001  0.00  0.00    +0.000 A 
BRANCH  20  27
ATOM     26  C   UNL     1       0.842   9.965  20.038  0.00  0.00    +0.000 C 
ATOM     27  O   UNL     1       1.894   9.113  20.484  0.00  0.00    +0.000 OA
ENDBRANCH  20  27
ENDBRANCH  17  23
ENDBRANCH   1  17
TORSDOF 5
ENDMDL
MODEL 7
REMARK VINA RESULT:      -7.2      1.488      2.006
REMARK  Name = 
REMARK  6 active torsions:
REMARK  status: ('A' for Active; 'I' for Inactive)
REMARK    1  A    between atoms: C_1  and  O_2
REMARK    2  A    between atoms: O_2  and  C_3
REMARK    3  A    between atoms: C_6  and  S_7
REMARK    4  A    between atoms: S_7  and  N_10
REMARK    5  A    between atoms: C_14  and  C_16
REMARK    6  A    between atoms: C_19  and  N_20
REMARK                            x       y       z     vdW  Elec       q    Type
REMARK                         _______ _______ _______ _____ _____    ______ ____
ROOT
ATOM      1  N   UNL     1       3.091   2.849  19.322  0.00  0.00    +0.000 NA
ATOM      2  C   UNL     1       3.914   2.096  18.340  0.00  0.00    +0.000 C 
ATOM      3  C   UNL     1       4.642   3.019  17.365  0.00  0.00    +0.000 C 
ATOM      4  N   UNL     1       5.350   4.159  17.966  0.00  0.00    +0.000 N 
ATOM      5  C   UNL     1       6.239   4.969  17.218  0.00  0.00    +0.000 C 
ATOM      6  O   UNL     1       6.862   5.890  17.754  0.00  0.00    +0.000 OA
ATOM      7  C   UNL     1       4.732   4.779  19.145  0.00  0.00    +0.000 C 
ATOM      8  C   UNL     1       3.977   3.805  20.070  0.00  0.00    +0.000 C 
ENDROOT
BRANCH   5   9
ATOM      9  C   UNL     1       6.397   4.685  15.789  0.00  0.00    +0.000 A 
ATOM     10  C   UNL     1       5.789   3.767  14.940  0.00  0.00    +0.000 A 
ATOM     11  C   UNL     1       6.358   3.944  13.642  0.00  0.00    +0.000 A 
ATOM     12  C   UNL     1       7.295   4.934  13.795  0.00  0.00    +0.000 A 
ATOM     13  O   UNL     1       7.354   5.359  15.074  0.00  0.00    +0.000 OA
BRANCH  12  14
ATOM     14  N   UNL     1       8.174   5.600  12.885  0.00  0.00    +0.000 N 
ATOM     15  O   UNL     1       7.801   5.666  11.707  0.00  0.00    +0.000 OA
ATOM     16  O   UNL     1       9.217   6.084  13.346  0.00  0.00    +0.000 OA
ENDBRANCH  12  14
ENDBRANCH   5   9
BRANCH   1  17
ATOM     17  S   UNL     1       1.609   3.518  18.791  0.00  0.00    +0.000 S 
ATOM     18  O   UNL     1       0.548   2.888  19.555  0.00  0.00    +0.000 OA
ATOM     19  O   UNL     1       1.604   3.471  17.346  0.00  0.00    +0.000 OA
BRANCH  17  23
ATOM     20  C   UNL     1       1.841   7.943  19.989  0.00  0.00    +0.000 A 
ATOM     21  C   UNL     1       1.471   6.972  20.928  0.00  0.00    +0.000 A 
ATOM     22  C   UNL     1       1.397   5.617  20.574  0.00  0.00    +0.000 A 
ATOM     23  C   UNL     1       1.671   5.237  19.258  0.00  0.00    +0.000 A 
ATOM     24  C   UNL     1       2.047   6.200  18.315  0.00  0.00    +0.000 A 
ATOM     25  C   UNL     1       2.132   7.550  18.682  0.00  0.00    +0.000 A 
BRANCH  20  27
ATOM     26  C   UNL     1       0.808   9.590  21.357  0.00  0.00    +0.000 C 
ATOM     27  O   UNL     1       1.849   9.230  20.454  0.00  0.00    +0.000 OA
ENDBRANCH  20  27
ENDBRANCH  17  23
ENDBRANCH   1  17
TORSDOF 5
ENDMDL
MODEL 8
REMARK VINA RESULT:      -7.2      7.361     11.429
REMARK  Name = 
REMARK  6 active torsions:
REMARK  status: ('A' for Active; 'I' for Inactive)
REMARK    1  A    between atoms: C_1  and  O_2
REMARK    2  A    between atoms: O_2  and  C_3
REMARK    3  A    between atoms: C_6  and  S_7
REMARK    4  A    between atoms: S_7  and  N_10
REMARK    5  A    between atoms: C_14  and  C_16
REMARK    6  A    between atoms: C_19  and  N_20
REMARK                            x       y       z     vdW  Elec       q    Type
REMARK                         _______ _______ _______ _____ _____    ______ ____
ROOT
ATOM      1  N   UNL     1      -0.107  11.401  19.206  0.00  0.00    +0.000 NA
ATOM      2  C   UNL     1      -1.547  11.428  18.842  0.00  0.00    +0.000 C 
ATOM      3  C   UNL     1      -2.379  12.248  19.827  0.00  0.00    +0.000 C 
ATOM      4  N   UNL     1      -1.841  13.572  20.174  0.00  0.00    +0.000 N 
ATOM      5  C   UNL     1      -2.600  14.523  20.899  0.00  0.00    +0.000 C 
ATOM      6  O   UNL     1      -2.149  15.647  21.136  0.00  0.00    +0.000 OA
ATOM      7  C   UNL     1      -0.381  13.694  20.263  0.00  0.00    +0.000 C 
ATOM      8  C   UNL     1       0.406  12.812  19.274  0.00  0.00    +0.000 C 
ENDROOT
BRANCH   5   9
ATOM      9  C   UNL     1      -3.937  14.135  21.359  0.00  0.00    +0.000 A 
ATOM     10  C   UNL     1      -5.210  14.370  20.854  0.00  0.00    +0.000 A 
ATOM     11  C   UNL     1      -6.142  13.752  21.741  0.00  0.00    +0.000 A 
ATOM     12  C   UNL     1      -5.378  13.210  22.743  0.00  0.00    +0.000 A 
ATOM     13  O   UNL     1      -4.066  13.462  22.547  0.00  0.00    +0.000 OA
BRANCH  12  14
ATOM     14  N   UNL     1      -5.688  12.433  23.902  0.00  0.00    +0.000 N 
ATOM     15  O   UNL     1      -6.878  12.138  24.064  0.00  0.00    +0.000 OA
ATOM     16  O   UNL     1      -4.748  12.089  24.630  0.00  0.00    +0.000 OA
ENDBRANCH  12  14
ENDBRANCH   5   9
BRANCH   1  17
ATOM     17  S   UNL     1       0.381  10.403  20.507  0.00  0.00    +0.000 S 
ATOM     18  O   UNL     1      -0.819   9.844  21.102  0.00  0.00    +0.000 OA
ATOM     19  O   UNL     1       1.315  11.161  21.308  0.00  0.00    +0.000 OA
BRANCH  17  23
ATOM     20  C   UNL     1       2.676   6.943  18.549  0.00  0.00    +0.000 A 
ATOM     21  C   UNL     1       2.321   6.883  19.903  0.00  0.00    +0.000 A 
ATOM     22  C   UNL     1       1.619   7.934  20.512  0.00  0.00    +0.000 A 
ATOM     23  C   UNL     1       1.295   9.066  19.761  0.00  0.00    +0.000 A 
ATOM     24  C   UNL     1       1.641   9.132  18.407  0.00  0.00    +0.000 A 
ATOM     25  C   UNL     1       2.330   8.071  17.804  0.00  0.00    +0.000 A 
BRANCH  20  27
ATOM     26  C   UNL     1       2.628   4.700  17.761  0.00  0.00    +0.000 C 
ATOM     27  O   UNL     1       3.381   5.867  18.083  0.00  0.00    +0.000 OA
ENDBRANCH  20  27
ENDBRANCH  17  23
ENDBRANCH   1  17
TORSDOF 5
ENDMDL
MODEL 9
REMARK VINA RESULT:      -7.1      2.048      2.844
REMARK  Name = 
REMARK  6 active torsions:
REMARK  status: ('A' for Active; 'I' for Inactive)
REMARK    1  A    between atoms: C_1  and  O_2
REMARK    2  A    between atoms: O_2  and  C_3
REMARK    3  A    between atoms: C_6  and  S_7
REMARK    4  A    between atoms: S_7  and  N_10
REMARK    5  A    between atoms: C_14  and  C_16
REMARK    6  A    between atoms: C_19  and  N_20
REMARK                            x       y       z     vdW  Elec       q    Type
REMARK                         _______ _______ _______ _____ _____    ______ ____
ROOT
ATOM      1  N   UNL     1       4.030   3.078  18.340  0.00  0.00    +0.000 NA
ATOM      2  C   UNL     1       4.797   2.284  17.345  0.00  0.00    +0.000 C 
ATOM      3  C   UNL     1       5.367   3.153  16.225  0.00  0.00    +0.000 C 
ATOM      4  N   UNL     1       6.060   4.378  16.653  0.00  0.00    +0.000 N 
ATOM      5  C   UNL     1       6.819   5.164  15.751  0.00  0.00    +0.000 C 
ATOM      6  O   UNL     1       7.434   6.159  16.141  0.00  0.00    +0.000 OA
ATOM      7  C   UNL     1       5.524   5.068  17.833  0.00  0.00    +0.000 C 
ATOM      8  C   UNL     1       4.925   4.143  18.910  0.00  0.00    +0.000 C 
ENDROOT
BRANCH   5   9
ATOM      9  C   UNL     1       6.853   4.761  14.342  0.00  0.00    +0.000 A 
ATOM     10  C   UNL     1       7.723   5.057  13.300  0.00  0.00    +0.000 A 
ATOM     11  C   UNL     1       7.242   4.383  12.137  0.00  0.00    +0.000 A 
ATOM     12  C   UNL     1       6.095   3.748  12.540  0.00  0.00    +0.000 A 
ATOM     13  O   UNL     1       5.832   3.994  13.841  0.00  0.00    +0.000 OA
BRANCH  12  14
ATOM     14  N   UNL     1       5.169   2.884  11.879  0.00  0.00    +0.000 N 
ATOM     15  O   UNL     1       4.031   3.333  11.696  0.00  0.00    +0.000 OA
ATOM     16  O   UNL     1       5.580   1.775  11.512  0.00  0.00    +0.000 OA
ENDBRANCH  12  14
ENDBRANCH   5   9
BRANCH   1  17
ATOM     17  S   UNL     1       2.464   3.618  17.911  0.00  0.00    +0.000 S 
ATOM     18  O   UNL     1       1.512   2.659  18.441  0.00  0.00    +0.000 OA
ATOM     19  O   UNL     1       2.485   3.933  16.501  0.00  0.00    +0.000 OA
BRANCH  17  23
ATOM     20  C   UNL     1       1.809   7.562  20.168  0.00  0.00    +0.000 A 
ATOM     21  C   UNL     1       2.199   7.570  18.822  0.00  0.00    +0.000 A 
ATOM     22  C   UNL     1       2.400   6.371  18.122  0.00  0.00    +0.000 A 
ATOM     23  C   UNL     1       2.237   5.154  18.787  0.00  0.00    +0.000 A 
ATOM     24  C   UNL     1       1.844   5.136  20.129  0.00  0.00    +0.000 A 
ATOM     25  C   UNL     1       1.630   6.339  20.817  0.00  0.00    +0.000 A 
BRANCH  20  27
ATOM     26  C   UNL     1       0.688   8.918  21.767  0.00  0.00    +0.000 C 
ATOM     27  O   UNL     1       1.671   8.795  20.743  0.00  0.00    +0.000 OA
ENDBRANCH  20  27
ENDBRANCH  17  23
ENDBRANCH   1  17
TORSDOF 5
ENDMDL
