MODEL 1
REMARK VINA RESULT:      -8.0      0.000      0.000
REMARK  Name = 
REMARK  6 active torsions:
REMARK  status: ('A' for Active; 'I' for Inactive)
REMARK    1  A    between atoms: C_1  and  C_2
REMARK    2  A    between atoms: C_5  and  C_6
REMARK    3  A    between atoms: C_8  and  C_9
REMARK    4  A    between atoms: C_9  and  O_11
REMARK    5  A    between atoms: O_11  and  C_12
REMARK    6  A    between atoms: C_15  and  C_16
REMARK                            x       y       z     vdW  Elec       q    Type
REMARK                         _______ _______ _______ _____ _____    ______ ____
ROOT
ATOM      1  C   UNL     1       8.179   8.650  18.165  0.00  0.00    +0.000 A 
ATOM      2  C   UNL     1       8.342   7.348  18.576  0.00  0.00    +0.000 A 
ATOM      3  C   UNL     1       7.482   6.588  17.740  0.00  0.00    +0.000 A 
ATOM      4  N   UNL     1       6.834   7.395  16.879  0.00  0.00    +0.000 NA
ATOM      5  O   UNL     1       7.271   8.671  17.149  0.00  0.00    +0.000 OA
ENDROOT
BRANCH   1  10
ATOM      6  C   UNL     1      10.150  13.832  19.785  0.00  0.00    +0.000 C 
ATOM      7  C   UNL     1       9.706  12.477  19.323  0.00  0.00    +0.000 A 
ATOM      8  C   UNL     1       9.144  12.291  18.056  0.00  0.00    +0.000 A 
ATOM      9  C   UNL     1       8.681  11.030  17.665  0.00  0.00    +0.000 A 
ATOM     10  C   UNL     1       8.761   9.934  18.534  0.00  0.00    +0.000 A 
ATOM     11  C   UNL     1       9.368  10.120  19.785  0.00  0.00    +0.000 A 
ATOM     12  C   UNL     1       9.832  11.378  20.177  0.00  0.00    +0.000 A 
ENDBRANCH   1  10
BRANCH   3  13
ATOM     13  C   UNL     1       7.219   5.153  17.785  0.00  0.00    +0.000 C 
ATOM     14  O   UNL     1       7.560   4.371  16.902  0.00  0.00    +0.000 OA
BRANCH  13  15
ATOM     15  O   UNL     1       6.585   4.775  18.969  0.00  0.00    +0.000 OA
BRANCH  15  16
ATOM     16  C   UNL     1       5.254   4.338  18.875  0.00  0.00    +0.000 A 
ATOM     17  C   UNL     1       4.333   4.939  18.015  0.00  0.00    +0.000 A 
ATOM     18  C   UNL     1       3.046   4.408  17.903  0.00  0.00    +0.000 A 
ATOM     19  C   UNL     1       2.687   3.268  18.631  0.00  0.00    +0.000 A 
ATOM     20  C   UNL     1       3.631   2.648  19.460  0.00  0.00    +0.000 A 
ATOM     21  C   UNL     1       4.920   3.179  19.577  0.00  0.00    +0.000 A 
BRANCH  19  22
ATOM     22  C   UNL     1       1.355   2.740  18.528  0.00  0.00    +0.000 C 
ATOM     23  N   UNL     1       0.279   2.316  18.451  0.00  0.00    +0.000 NA
ENDBRANCH  19  22
ENDBRANCH  15  16
ENDBRANCH  13  15
ENDBRANCH   3  13
TORSDOF 5
ENDMDL
MODEL 2
REMARK VINA RESULT:      -8.0      0.484      1.095
REMARK  Name = 
REMARK  6 active torsions:
REMARK  status: ('A' for Active; 'I' for Inactive)
REMARK    1  A    between atoms: C_1  and  C_2
REMARK    2  A    between atoms: C_5  and  C_6
REMARK    3  A    between atoms: C_8  and  C_9
REMARK    4  A    between atoms: C_9  and  O_11
REMARK    5  A    between atoms: O_11  and  C_12
REMARK    6  A    between atoms: C_15  and  C_16
REMARK                            x       y       z     vdW  Elec       q    Type
REMARK                         _______ _______ _______ _____ _____    ______ ____
ROOT
ATOM      1  C   UNL     1       8.465   8.833  18.421  0.00  0.00    +0.000 A 
ATOM      2  C   UNL     1       8.450   7.547  18.909  0.00  0.00    +0.000 A 
ATOM      3  C   UNL     1       7.639   6.818  17.998  0.00  0.00    +0.000 A 
ATOM      4  N   UNL     1       7.189   7.627  17.021  0.00  0.00    +0.000 NA
ATOM      5  O   UNL     1       7.705   8.874  17.290  0.00  0.00    +0.000 OA
ENDROOT
BRANCH   1  10
ATOM      6  C   UNL     1      10.678  13.937  19.974  0.00  0.00    +0.000 C 
ATOM      7  C   UNL     1      10.178  12.587  19.556  0.00  0.00    +0.000 A 
ATOM      8  C   UNL     1      10.031  12.254  18.207  0.00  0.00    +0.000 A 
ATOM      9  C   UNL     1       9.507  11.011  17.837  0.00  0.00    +0.000 A 
ATOM     10  C   UNL     1       9.111  10.081  18.808  0.00  0.00    +0.000 A 
ATOM     11  C   UNL     1       9.304  10.406  20.158  0.00  0.00    +0.000 A 
ATOM     12  C   UNL     1       9.829  11.647  20.529  0.00  0.00    +0.000 A 
ENDBRANCH   1  10
BRANCH   3  13
ATOM     13  C   UNL     1       7.240   5.416  18.071  0.00  0.00    +0.000 C 
ATOM     14  O   UNL     1       7.576   4.570  17.248  0.00  0.00    +0.000 OA
BRANCH  13  15
ATOM     15  O   UNL     1       6.481   5.149  19.210  0.00  0.00    +0.000 OA
BRANCH  15  16
ATOM     16  C   UNL     1       5.233   4.532  19.023  0.00  0.00    +0.000 A 
ATOM     17  C   UNL     1       4.988   3.215  19.415  0.00  0.00    +0.000 A 
ATOM     18  C   UNL     1       3.704   2.683  19.280  0.00  0.00    +0.000 A 
ATOM     19  C   UNL     1       2.664   3.469  18.774  0.00  0.00    +0.000 A 
ATOM     20  C   UNL     1       2.910   4.803  18.421  0.00  0.00    +0.000 A 
ATOM     21  C   UNL     1       4.195   5.339  18.553  0.00  0.00    +0.000 A 
BRANCH  19  22
ATOM     22  C   UNL     1       1.350   2.908  18.616  0.00  0.00    +0.000 C 
ATOM     23  N   UNL     1       0.293   2.451  18.492  0.00  0.00    +0.000 NA
ENDBRANCH  19  22
ENDBRANCH  15  16
ENDBRANCH  13  15
ENDBRANCH   3  13
TORSDOF 5
ENDMDL
MODEL 3
REMARK VINA RESULT:      -7.9      0.268      1.434
REMARK  Name = 
REMARK  6 active torsions:
REMARK  status: ('A' for Active; 'I' for Inactive)
REMARK    1  A    between atoms: C_1  and  C_2
REMARK    2  A    between atoms: C_5  and  C_6
REMARK    3  A    between atoms: C_8  and  C_9
REMARK    4  A    between atoms: C_9  and  O_11
REMARK    5  A    between atoms: O_11  and  C_12
REMARK    6  A    between atoms: C_15  and  C_16
REMARK                            x       y       z     vdW  Elec       q    Type
REMARK                         _______ _______ _______ _____ _____    ______ ____
ROOT
ATOM      1  C   UNL     1       8.100   8.574  18.073  0.00  0.00    +0.000 A 
ATOM      2  C   UNL     1       8.313   7.278  18.479  0.00  0.00    +0.000 A 
ATOM      3  C   UNL     1       7.459   6.492  17.660  0.00  0.00    +0.000 A 
ATOM      4  N   UNL     1       6.768   7.278  16.814  0.00  0.00    +0.000 NA
ATOM      5  O   UNL     1       7.171   8.568  17.077  0.00  0.00    +0.000 OA
ENDROOT
BRANCH   1  10
ATOM      6  C   UNL     1      10.571  13.657  19.268  0.00  0.00    +0.000 C 
ATOM      7  C   UNL     1       9.876  12.352  19.016  0.00  0.00    +0.000 A 
ATOM      8  C   UNL     1      10.117  11.236  19.821  0.00  0.00    +0.000 A 
ATOM      9  C   UNL     1       9.505  10.010  19.534  0.00  0.00    +0.000 A 
ATOM     10  C   UNL     1       8.649   9.876  18.432  0.00  0.00    +0.000 A 
ATOM     11  C   UNL     1       8.378  11.013  17.658  0.00  0.00    +0.000 A 
ATOM     12  C   UNL     1       8.987  12.238  17.944  0.00  0.00    +0.000 A 
ENDBRANCH   1  10
BRANCH   3  13
ATOM     13  C   UNL     1       7.243   5.049  17.708  0.00  0.00    +0.000 C 
ATOM     14  O   UNL     1       7.599   4.278  16.822  0.00  0.00    +0.000 OA
BRANCH  13  15
ATOM     15  O   UNL     1       6.636   4.652  18.900  0.00  0.00    +0.000 OA
BRANCH  15  16
ATOM     16  C   UNL     1       5.347   4.101  18.813  0.00  0.00    +0.000 A 
ATOM     17  C   UNL     1       4.872   3.172  19.740  0.00  0.00    +0.000 A 
ATOM     18  C   UNL     1       3.553   2.721  19.651  0.00  0.00    +0.000 A 
ATOM     19  C   UNL     1       2.705   3.213  18.653  0.00  0.00    +0.000 A 
ATOM     20  C   UNL     1       3.178   4.177  17.753  0.00  0.00    +0.000 A 
ATOM     21  C   UNL     1       4.500   4.628  17.837  0.00  0.00    +0.000 A 
BRANCH  19  22
ATOM     22  C   UNL     1       1.356   2.729  18.553  0.00  0.00    +0.000 C 
ATOM     23  N   UNL     1       0.268   2.341  18.466  0.00  0.00    +0.000 NA
ENDBRANCH  19  22
ENDBRANCH  15  16
ENDBRANCH  13  15
ENDBRANCH   3  13
TORSDOF 5
ENDMDL
MODEL 4
REMARK VINA RESULT:      -7.9      1.079      1.358
REMARK  Name = 
REMARK  6 active torsions:
REMARK  status: ('A' for Active; 'I' for Inactive)
REMARK    1  A    between atoms: C_1  and  C_2
REMARK    2  A    between atoms: C_5  and  C_6
REMARK    3  A    between atoms: C_8  and  C_9
REMARK    4  A    between atoms: C_9  and  O_11
REMARK    5  A    between atoms: O_11  and  C_12
REMARK    6  A    between atoms: C_15  and  C_16
REMARK                            x       y       z     vdW  Elec       q    Type
REMARK                         _______ _______ _______ _____ _____    ______ ____
ROOT
ATOM      1  C   UNL     1       8.456   8.942  18.376  0.00  0.00    +0.000 A 
ATOM      2  C   UNL     1       8.385   7.621  18.751  0.00  0.00    +0.000 A 
ATOM      3  C   UNL     1       7.524   7.015  17.799  0.00  0.00    +0.000 A 
ATOM      4  N   UNL     1       7.097   7.927  16.906  0.00  0.00    +0.000 NA
ATOM      5  O   UNL     1       7.679   9.119  17.270  0.00  0.00    +0.000 OA
ENDROOT
BRANCH   1  10
ATOM      6  C   UNL     1      10.951  13.793  20.276  0.00  0.00    +0.000 C 
ATOM      7  C   UNL     1      10.377  12.503  19.772  0.00  0.00    +0.000 A 
ATOM      8  C   UNL     1      10.301  12.229  18.404  0.00  0.00    +0.000 A 
ATOM      9  C   UNL     1       9.707  11.046  17.950  0.00  0.00    +0.000 A 
ATOM     10  C   UNL     1       9.169  10.119  18.855  0.00  0.00    +0.000 A 
ATOM     11  C   UNL     1       9.292  10.382  20.227  0.00  0.00    +0.000 A 
ATOM     12  C   UNL     1       9.886  11.562  20.681  0.00  0.00    +0.000 A 
ENDBRANCH   1  10
BRANCH   3  13
ATOM     13  C   UNL     1       7.056   5.632  17.759  0.00  0.00    +0.000 C 
ATOM     14  O   UNL     1       7.437   4.763  18.537  0.00  0.00    +0.000 OA
BRANCH  13  15
ATOM     15  O   UNL     1       6.091   5.436  16.770  0.00  0.00    +0.000 OA
BRANCH  15  16
ATOM     16  C   UNL     1       4.884   4.834  17.160  0.00  0.00    +0.000 A 
ATOM     17  C   UNL     1       4.629   3.477  16.952  0.00  0.00    +0.000 A 
ATOM     18  C   UNL     1       3.445   2.916  17.436  0.00  0.00    +0.000 A 
ATOM     19  C   UNL     1       2.529   3.702  18.143  0.00  0.00    +0.000 A 
ATOM     20  C   UNL     1       2.813   5.053  18.383  0.00  0.00    +0.000 A 
ATOM     21  C   UNL     1       3.996   5.619  17.897  0.00  0.00    +0.000 A 
BRANCH  19  22
ATOM     22  C   UNL     1       1.302   3.124  18.619  0.00  0.00    +0.000 C 
ATOM     23  N   UNL     1       0.310   2.664  19.000  0.00  0.00    +0.000 NA
ENDBRANCH  19  22
ENDBRANCH  15  16
ENDBRANCH  13  15
ENDBRANCH   3  13
TORSDOF 5
ENDMDL
MODEL 5
REMARK VINA RESULT:      -7.7      1.268      1.833
REMARK  Name = 
REMARK  6 active torsions:
REMARK  status: ('A' for Active; 'I' for Inactive)
REMARK    1  A    between atoms: C_1  and  C_2
REMARK    2  A    between atoms: C_5  and  C_6
REMARK    3  A    between atoms: C_8  and  C_9
REMARK    4  A    between atoms: C_9  and  O_11
REMARK    5  A    between atoms: O_11  and  C_12
REMARK    6  A    between atoms: C_15  and  C_16
REMARK                            x       y       z     vdW  Elec       q    Type
REMARK                         _______ _______ _______ _____ _____    ______ ____
ROOT
ATOM      1  C   UNL     1       8.417   9.100  18.375  0.00  0.00    +0.000 A 
ATOM      2  C   UNL     1       7.476   8.723  17.445  0.00  0.00    +0.000 A 
ATOM      3  C   UNL     1       7.309   7.326  17.637  0.00  0.00    +0.000 A 
ATOM      4  N   UNL     1       8.112   6.890  18.625  0.00  0.00    +0.000 NA
ATOM      5  O   UNL     1       8.796   7.995  19.077  0.00  0.00    +0.000 OA
ENDROOT
BRANCH   1  10
ATOM      6  C   UNL     1      11.194  13.954  19.820  0.00  0.00    +0.000 C 
ATOM      7  C   UNL     1      10.409  12.721  19.485  0.00  0.00    +0.000 A 
ATOM      8  C   UNL     1      10.282  11.673  20.401  0.00  0.00    +0.000 A 
ATOM      9  C   UNL     1       9.597  10.504  20.049  0.00  0.00    +0.000 A 
ATOM     10  C   UNL     1       9.034  10.358  18.774  0.00  0.00    +0.000 A 
ATOM     11  C   UNL     1       9.128  11.434  17.878  0.00  0.00    +0.000 A 
ATOM     12  C   UNL     1       9.811  12.601  18.229  0.00  0.00    +0.000 A 
ENDBRANCH   1  10
BRANCH   3  13
ATOM     13  C   UNL     1       6.469   6.407  16.875  0.00  0.00    +0.000 C 
ATOM     14  O   UNL     1       5.861   6.725  15.858  0.00  0.00    +0.000 OA
BRANCH  13  15
ATOM     15  O   UNL     1       6.486   5.119  17.412  0.00  0.00    +0.000 OA
BRANCH  15  16
ATOM     16  C   UNL     1       5.253   4.562  17.788  0.00  0.00    +0.000 A 
ATOM     17  C   UNL     1       4.661   4.832  19.023  0.00  0.00    +0.000 A 
ATOM     18  C   UNL     1       3.395   4.316  19.308  0.00  0.00    +0.000 A 
ATOM     19  C   UNL     1       2.713   3.552  18.356  0.00  0.00    +0.000 A 
ATOM     20  C   UNL     1       3.297   3.321  17.103  0.00  0.00    +0.000 A 
ATOM     21  C   UNL     1       4.567   3.833  16.815  0.00  0.00    +0.000 A 
BRANCH  19  22
ATOM     22  C   UNL     1       1.420   3.006  18.663  0.00  0.00    +0.000 C 
ATOM     23  N   UNL     1       0.375   2.571  18.908  0.00  0.00    +0.000 NA
ENDBRANCH  19  22
ENDBRANCH  15  16
ENDBRANCH  13  15
ENDBRANCH   3  13
TORSDOF 5
ENDMDL
MODEL 6
REMARK VINA RESULT:      -7.7      1.545      2.073
REMARK  Name = 
REMARK  6 active torsions:
REMARK  status: ('A' for Active; 'I' for Inactive)
REMARK    1  A    between atoms: C_1  and  C_2
REMARK    2  A    between atoms: C_5  and  C_6
REMARK    3  A    between atoms: C_8  and  C_9
REMARK    4  A    between atoms: C_9  and  O_11
REMARK    5  A    between atoms: O_11  and  C_12
REMARK    6  A    between atoms: C_15  and  C_16
REMARK                            x       y       z     vdW  Elec       q    Type
REMARK                         _______ _______ _______ _____ _____    ______ ____
ROOT
ATOM      1  C   UNL     1       8.176   8.455  18.100  0.00  0.00    +0.000 A 
ATOM      2  C   UNL     1       7.443   7.886  17.085  0.00  0.00    +0.000 A 
ATOM      3  C   UNL     1       7.332   6.515  17.436  0.00  0.00    +0.000 A 
ATOM      4  N   UNL     1       7.970   6.275  18.596  0.00  0.00    +0.000 NA
ATOM      5  O   UNL     1       8.491   7.483  19.001  0.00  0.00    +0.000 OA
ENDROOT
BRANCH   1  10
ATOM      6  C   UNL     1      10.289  13.726  19.157  0.00  0.00    +0.000 C 
ATOM      7  C   UNL     1       9.684  12.371  18.938  0.00  0.00    +0.000 A 
ATOM      8  C   UNL     1       9.963  11.306  19.798  0.00  0.00    +0.000 A 
ATOM      9  C   UNL     1       9.437  10.034  19.544  0.00  0.00    +0.000 A 
ATOM     10  C   UNL     1       8.631   9.802  18.420  0.00  0.00    +0.000 A 
ATOM     11  C   UNL     1       8.320  10.887  17.589  0.00  0.00    +0.000 A 
ATOM     12  C   UNL     1       8.844  12.158  17.842  0.00  0.00    +0.000 A 
ENDBRANCH   1  10
BRANCH   3  13
ATOM     13  C   UNL     1       6.702   5.439  16.677  0.00  0.00    +0.000 C 
ATOM     14  O   UNL     1       7.323   4.505  16.176  0.00  0.00    +0.000 OA
BRANCH  13  15
ATOM     15  O   UNL     1       5.314   5.572  16.636  0.00  0.00    +0.000 OA
BRANCH  15  16
ATOM     16  C   UNL     1       4.580   4.988  17.680  0.00  0.00    +0.000 A 
ATOM     17  C   UNL     1       4.521   3.605  17.864  0.00  0.00    +0.000 A 
ATOM     18  C   UNL     1       3.844   3.084  18.969  0.00  0.00    +0.000 A 
ATOM     19  C   UNL     1       3.247   3.942  19.899  0.00  0.00    +0.000 A 
ATOM     20  C   UNL     1       3.347   5.329  19.729  0.00  0.00    +0.000 A 
ATOM     21  C   UNL     1       4.021   5.854  18.621  0.00  0.00    +0.000 A 
BRANCH  19  22
ATOM     22  C   UNL     1       2.533   3.400  21.022  0.00  0.00    +0.000 C 
ATOM     23  N   UNL     1       1.964   2.960  21.930  0.00  0.00    +0.000 NA
ENDBRANCH  19  22
ENDBRANCH  15  16
ENDBRANCH  13  15
ENDBRANCH   3  13
TORSDOF 5
ENDMDL
MODEL 7
REMARK VINA RESULT:      -7.7      1.267      1.537
REMARK  Name = 
REMARK  6 active torsions:
REMARK  status: ('A' for Active; 'I' for Inactive)
REMARK    1  A    between atoms: C_1  and  C_2
REMARK    2  A    between atoms: C_5  and  C_6
REMARK    3  A    between atoms: C_8  and  C_9
REMARK    4  A    between atoms: C_9  and  O_11
REMARK    5  A    between atoms: O_11  and  C_12
REMARK    6  A    between atoms: C_15  and  C_16
REMARK                            x       y       z     vdW  Elec       q    Type
REMARK                         _______ _______ _______ _____ _____    ______ ____
ROOT
ATOM      1  C   UNL     1       8.455   9.039  18.394  0.00  0.00    +0.000 A 
ATOM      2  C   UNL     1       7.492   8.718  17.467  0.00  0.00    +0.000 A 
ATOM      3  C   UNL     1       7.265   7.327  17.639  0.00  0.00    +0.000 A 
ATOM      4  N   UNL     1       8.056   6.841  18.613  0.00  0.00    +0.000 NA
ATOM      5  O   UNL     1       8.791   7.908  19.076  0.00  0.00    +0.000 OA
ENDROOT
BRANCH   1  10
ATOM      6  C   UNL     1      10.785  14.036  20.115  0.00  0.00    +0.000 C 
ATOM      7  C   UNL     1      10.252  12.718  19.640  0.00  0.00    +0.000 A 
ATOM      8  C   UNL     1       9.914  12.513  18.300  0.00  0.00    +0.000 A 
ATOM      9  C   UNL     1       9.362  11.295  17.887  0.00  0.00    +0.000 A 
ATOM     10  C   UNL     1       9.130  10.263  18.807  0.00  0.00    +0.000 A 
ATOM     11  C   UNL     1       9.515  10.462  20.141  0.00  0.00    +0.000 A 
ATOM     12  C   UNL     1      10.068  11.677  20.554  0.00  0.00    +0.000 A 
ENDBRANCH   1  10
BRANCH   3  13
ATOM     13  C   UNL     1       6.381   6.456  16.870  0.00  0.00    +0.000 C 
ATOM     14  O   UNL     1       5.736   6.831  15.896  0.00  0.00    +0.000 OA
BRANCH  13  15
ATOM     15  O   UNL     1       6.401   5.144  17.343  0.00  0.00    +0.000 OA
BRANCH  15  16
ATOM     16  C   UNL     1       5.176   4.585  17.742  0.00  0.00    +0.000 A 
ATOM     17  C   UNL     1       4.551   4.942  18.938  0.00  0.00    +0.000 A 
ATOM     18  C   UNL     1       3.293   4.417  19.243  0.00  0.00    +0.000 A 
ATOM     19  C   UNL     1       2.653   3.554  18.347  0.00  0.00    +0.000 A 
ATOM     20  C   UNL     1       3.270   3.234  17.130  0.00  0.00    +0.000 A 
ATOM     21  C   UNL     1       4.531   3.756  16.823  0.00  0.00    +0.000 A 
BRANCH  19  22
ATOM     22  C   UNL     1       1.369   2.998  18.676  0.00  0.00    +0.000 C 
ATOM     23  N   UNL     1       0.337   2.546  18.944  0.00  0.00    +0.000 NA
ENDBRANCH  19  22
ENDBRANCH  15  16
ENDBRANCH  13  15
ENDBRANCH   3  13
TORSDOF 5
ENDMDL
MODEL 8
REMARK VINA RESULT:      -7.7      1.189      1.614
REMARK  Name = 
REMARK  6 active torsions:
REMARK  status: ('A' for Active; 'I' for Inactive)
REMARK    1  A    between atoms: C_1  and  C_2
REMARK    2  A    between atoms: C_5  and  C_6
REMARK    3  A    between atoms: C_8  and  C_9
REMARK    4  A    between atoms: C_9  and  O_11
REMARK    5  A    between atoms: O_11  and  C_12
REMARK    6  A    between atoms: C_15  and  C_16
REMARK                            x       y       z     vdW  Elec       q    Type
REMARK                         _______ _______ _______ _____ _____    ______ ____
ROOT
ATOM      1  C   UNL     1       8.385   8.856  18.333  0.00  0.00    +0.000 A 
ATOM      2  C   UNL     1       7.565   8.388  17.334  0.00  0.00    +0.000 A 
ATOM      3  C   UNL     1       7.426   6.999  17.593  0.00  0.00    +0.000 A 
ATOM      4  N   UNL     1       8.130   6.654  18.687  0.00  0.00    +0.000 NA
ATOM      5  O   UNL     1       8.722   7.810  19.139  0.00  0.00    +0.000 OA
ENDROOT
BRANCH   1  10
ATOM      6  C   UNL     1      10.795  13.929  19.681  0.00  0.00    +0.000 C 
ATOM      7  C   UNL     1      10.108  12.631  19.379  0.00  0.00    +0.000 A 
ATOM      8  C   UNL     1      10.182  11.550  20.261  0.00  0.00    +0.000 A 
ATOM      9  C   UNL     1       9.585  10.327  19.935  0.00  0.00    +0.000 A 
ATOM     10  C   UNL     1       8.911  10.160  18.717  0.00  0.00    +0.000 A 
ATOM     11  C   UNL     1       8.802  11.264  17.859  0.00  0.00    +0.000 A 
ATOM     12  C   UNL     1       9.397  12.486  18.185  0.00  0.00    +0.000 A 
ENDBRANCH   1  10
BRANCH   3  13
ATOM     13  C   UNL     1       6.707   6.003  16.804  0.00  0.00    +0.000 C 
ATOM     14  O   UNL     1       6.314   6.197  15.658  0.00  0.00    +0.000 OA
BRANCH  13  15
ATOM     15  O   UNL     1       6.570   4.794  17.489  0.00  0.00    +0.000 OA
BRANCH  15  16
ATOM     16  C   UNL     1       5.266   4.353  17.762  0.00  0.00    +0.000 A 
ATOM     17  C   UNL     1       4.425   3.858  16.763  0.00  0.00    +0.000 A 
ATOM     18  C   UNL     1       3.168   3.356  17.107  0.00  0.00    +0.000 A 
ATOM     19  C   UNL     1       2.760   3.328  18.445  0.00  0.00    +0.000 A 
ATOM     20  C   UNL     1       3.628   3.788  19.445  0.00  0.00    +0.000 A 
ATOM     21  C   UNL     1       4.887   4.295  19.104  0.00  0.00    +0.000 A 
BRANCH  19  22
ATOM     22  C   UNL     1       1.457   2.830  18.790  0.00  0.00    +0.000 C 
ATOM     23  N   UNL     1       0.408   2.432  19.075  0.00  0.00    +0.000 NA
ENDBRANCH  19  22
ENDBRANCH  15  16
ENDBRANCH  13  15
ENDBRANCH   3  13
TORSDOF 5
ENDMDL
MODEL 9
REMARK VINA RESULT:      -7.5      6.313      8.598
REMARK  Name = 
REMARK  6 active torsions:
REMARK  status: ('A' for Active; 'I' for Inactive)
REMARK    1  A    between atoms: C_1  and  C_2
REMARK    2  A    between atoms: C_5  and  C_6
REMARK    3  A    between atoms: C_8  and  C_9
REMARK    4  A    between atoms: C_9  and  O_11
REMARK    5  A    between atoms: O_11  and  C_12
REMARK    6  A    between atoms: C_15  and  C_16
REMARK                            x       y       z     vdW  Elec       q    Type
REMARK                         _______ _______ _______ _____ _____    ______ ____
ROOT
ATOM      1  C   UNL     1       3.060   6.812  18.340  0.00  0.00    +0.000 A 
ATOM      2  C   UNL     1       2.398   8.016  18.296  0.00  0.00    +0.000 A 
ATOM      3  C   UNL     1       1.786   8.146  19.571  0.00  0.00    +0.000 A 
ATOM      4  N   UNL     1       2.062   7.072  20.334  0.00  0.00    +0.000 NA
ATOM      5  O   UNL     1       2.852   6.249  19.564  0.00  0.00    +0.000 OA
ENDROOT
BRANCH   1  10
ATOM      6  C   UNL     1       6.177   3.878  14.462  0.00  0.00    +0.000 C 
ATOM      7  C   UNL     1       5.423   4.622  15.524  0.00  0.00    +0.000 A 
ATOM      8  C   UNL     1       4.614   3.950  16.443  0.00  0.00    +0.000 A 
ATOM      9  C   UNL     1       3.871   4.666  17.389  0.00  0.00    +0.000 A 
ATOM     10  C   UNL     1       3.917   6.066  17.427  0.00  0.00    +0.000 A 
ATOM     11  C   UNL     1       4.767   6.729  16.530  0.00  0.00    +0.000 A 
ATOM     12  C   UNL     1       5.511   6.015  15.586  0.00  0.00    +0.000 A 
ENDBRANCH   1  10
BRANCH   3  13
ATOM     13  C   UNL     1       0.910   9.213  20.046  0.00  0.00    +0.000 C 
ATOM     14  O   UNL     1       0.417   9.239  21.169  0.00  0.00    +0.000 OA
BRANCH  13  15
ATOM     15  O   UNL     1       0.748  10.218  19.091  0.00  0.00    +0.000 OA
BRANCH  15  16
ATOM     16  C   UNL     1      -0.566  10.572  18.747  0.00  0.00    +0.000 A 
ATOM     17  C   UNL     1      -1.242  11.620  19.373  0.00  0.00    +0.000 A 
ATOM     18  C   UNL     1      -2.517  11.981  18.931  0.00  0.00    +0.000 A 
ATOM     19  C   UNL     1      -3.106  11.311  17.853  0.00  0.00    +0.000 A 
ATOM     20  C   UNL     1      -2.402  10.288  17.204  0.00  0.00    +0.000 A 
ATOM     21  C   UNL     1      -1.127   9.922  17.646  0.00  0.00    +0.000 A 
BRANCH  19  22
ATOM     22  C   UNL     1      -4.427  11.671  17.417  0.00  0.00    +0.000 C 
ATOM     23  N   UNL     1      -5.492  11.967  17.071  0.00  0.00    +0.000 NA
ENDBRANCH  19  22
ENDBRANCH  15  16
ENDBRANCH  13  15
ENDBRANCH   3  13
TORSDOF 5
ENDMDL
