MODEL 1
REMARK VINA RESULT:      -7.3      0.000      0.000
REMARK  Name = 
REMARK  6 active torsions:
REMARK  status: ('A' for Active; 'I' for Inactive)
REMARK    1  A    between atoms: C_1  and  C_2
REMARK    2  A    between atoms: C_2  and  N_3
REMARK    3  A    between atoms: C_9  and  C_10
REMARK    4  A    between atoms: N_13  and  C_14
REMARK    5  A    between atoms: C_14  and  C_15
REMARK    6  A    between atoms: C_18  and  O_19
REMARK                            x       y       z     vdW  Elec       q    Type
REMARK                         _______ _______ _______ _____ _____    ______ ____
ROOT
ATOM      1  N   UNL     1      -2.374  13.140  23.304  0.00  0.00    +0.000 N 
ATOM      2  C   UNL     1      -1.529  12.415  22.470  0.00  0.00    +0.000 C 
ATOM      3  O   UNL     1      -0.410  12.046  22.816  0.00  0.00    +0.000 OA
ATOM      4  C   UNL     1      -2.055  12.232  21.158  0.00  0.00    +0.000 A 
ATOM      5  C   UNL     1      -3.301  12.651  20.763  0.00  0.00    +0.000 A 
ATOM      6  N   UNL     1      -3.559  12.263  19.474  0.00  0.00    +0.000 NA
ATOM      7  C   UNL     1      -2.440  11.655  19.054  0.00  0.00    +0.000 A 
ATOM      8  N   UNL     1      -1.453  11.761  20.018  0.00  0.00    +0.000 N 
ATOM      9  N   UNL     1      -4.156  13.202  21.654  0.00  0.00    +0.000 N 
ATOM     10  C   UNL     1      -3.708  13.331  22.957  0.00  0.00    +0.000 C 
ATOM     11  N   UNL     1      -4.561  13.866  23.807  0.00  0.00    +0.000 NA
ATOM     12  C   UNL     1      -5.602  14.428  22.891  0.00  0.00    +0.000 C 
ATOM     13  C   UNL     1      -6.887  13.610  22.733  0.00  0.00    +0.000 C 
ATOM     14  C   UNL     1      -7.207  13.633  21.228  0.00  0.00    +0.000 C 
ATOM     15  C   UNL     1      -6.113  14.451  20.556  0.00  0.00    +0.000 C 
ATOM     16  C   UNL     1      -4.945  14.410  21.489  0.00  0.00    +0.000 C 
ENDROOT
BRANCH   7  17
ATOM     17  C   UNL     1      -2.276  10.946  17.785  0.00  0.00    +0.000 C 
ATOM     18  N   UNL     1      -1.973  11.718  16.706  0.00  0.00    +0.000 N 
ATOM     19  O   UNL     1      -2.442   9.735  17.633  0.00  0.00    +0.000 OA
ATOM     20  H   UNL     1      -1.982  12.724  16.780  0.00  0.00    +0.000 HD
ATOM     21  H   UNL     1      -2.024  11.274  15.790  0.00  0.00    +0.000 HD
ENDBRANCH   7  17
BRANCH   1  23
ATOM     22  C   UNL     1      -1.489  15.455  22.900  0.00  0.00    +0.000 C 
ATOM     23  C   UNL     1      -1.713  14.314  23.865  0.00  0.00    +0.000 C 
ENDBRANCH   1  23
BRANCH   8  24
ATOM     24  C   UNL     1      -0.017  11.615  19.797  0.00  0.00    +0.000 C 
BRANCH  24  25
ATOM     25  C   UNL     1       0.517  10.206  19.868  0.00  0.00    +0.000 A 
ATOM     26  C   UNL     1       0.419   9.417  21.024  0.00  0.00    +0.000 A 
ATOM     27  C   UNL     1       1.109   8.210  21.134  0.00  0.00    +0.000 A 
ATOM     28  C   UNL     1       1.886   7.756  20.073  0.00  0.00    +0.000 A 
ATOM     29  C   UNL     1       1.949   8.493  18.889  0.00  0.00    +0.000 A 
ATOM     30 CL   UNL     1       2.881   7.952  17.540  0.00  0.00    +0.000 Cl
ATOM     31  C   UNL     1       1.277   9.716  18.792  0.00  0.00    +0.000 A 
BRANCH  28  32
ATOM     32  O   UNL     1       2.608   6.604  20.210  0.00  0.00    +0.000 OA
ATOM     33  H   UNL     1       2.019   5.847  20.059  0.00  0.00    +0.000 HD
ENDBRANCH  28  32
ENDBRANCH  24  25
ENDBRANCH   8  24
TORSDOF 5
ENDMDL
MODEL 2
REMARK VINA RESULT:      -7.2      4.304      9.319
REMARK  Name = 
REMARK  6 active torsions:
REMARK  status: ('A' for Active; 'I' for Inactive)
REMARK    1  A    between atoms: C_1  and  C_2
REMARK    2  A    between atoms: C_2  and  N_3
REMARK    3  A    between atoms: C_9  and  C_10
REMARK    4  A    between atoms: N_13  and  C_14
REMARK    5  A    between atoms: C_14  and  C_15
REMARK    6  A    between atoms: C_18  and  O_19
REMARK                            x       y       z     vdW  Elec       q    Type
REMARK                         _______ _______ _______ _____ _____    ______ ____
ROOT
ATOM      1  N   UNL     1       3.435   6.279  17.426  0.00  0.00    +0.000 N 
ATOM      2  C   UNL     1       2.817   7.469  17.795  0.00  0.00    +0.000 C 
ATOM      3  O   UNL     1       2.881   8.490  17.117  0.00  0.00    +0.000 OA
ATOM      4  C   UNL     1       2.192   7.404  19.075  0.00  0.00    +0.000 A 
ATOM      5  C   UNL     1       2.126   6.267  19.842  0.00  0.00    +0.000 A 
ATOM      6  N   UNL     1       1.394   6.491  20.980  0.00  0.00    +0.000 NA
ATOM      7  C   UNL     1       1.061   7.789  20.940  0.00  0.00    +0.000 A 
ATOM      8  N   UNL     1       1.669   8.402  19.860  0.00  0.00    +0.000 N 
ATOM      9  N   UNL     1       2.591   5.090  19.369  0.00  0.00    +0.000 N 
ATOM     10  C   UNL     1       3.142   5.097  18.099  0.00  0.00    +0.000 C 
ATOM     11  N   UNL     1       3.584   3.936  17.659  0.00  0.00    +0.000 NA
ATOM     12  C   UNL     1       3.590   3.112  18.907  0.00  0.00    +0.000 C 
ATOM     13  C   UNL     1       2.419   2.143  19.092  0.00  0.00    +0.000 C 
ATOM     14  C   UNL     1       2.001   2.281  20.568  0.00  0.00    +0.000 C 
ATOM     15  C   UNL     1       2.926   3.314  21.194  0.00  0.00    +0.000 C 
ATOM     16  C   UNL     1       3.444   4.137  20.057  0.00  0.00    +0.000 C 
ENDROOT
BRANCH   7  17
ATOM     17  C   UNL     1       0.159   8.469  21.870  0.00  0.00    +0.000 C 
ATOM     18  N   UNL     1       0.751   9.281  22.788  0.00  0.00    +0.000 N 
ATOM     19  O   UNL     1      -1.063   8.314  21.900  0.00  0.00    +0.000 OA
ATOM     20  H   UNL     1       1.756   9.303  22.876  0.00  0.00    +0.000 HD
ATOM     21  H   UNL     1       0.165   9.625  23.547  0.00  0.00    +0.000 HD
ENDBRANCH   7  17
BRANCH   1  23
ATOM     22  C   UNL     1       5.219   6.271  15.659  0.00  0.00    +0.000 C 
ATOM     23  C   UNL     1       4.846   6.470  17.110  0.00  0.00    +0.000 C 
ENDBRANCH   1  23
BRANCH   8  24
ATOM     24  C   UNL     1       1.903   9.834  19.703  0.00  0.00    +0.000 C 
BRANCH  24  25
ATOM     25  C   UNL     1       0.704  10.653  19.292  0.00  0.00    +0.000 A 
ATOM     26  C   UNL     1       0.325  11.826  19.960  0.00  0.00    +0.000 A 
ATOM     27  C   UNL     1      -0.901  12.439  19.702  0.00  0.00    +0.000 A 
ATOM     28  C   UNL     1      -1.757  11.902  18.745  0.00  0.00    +0.000 A 
ATOM     29  C   UNL     1      -1.374  10.771  18.022  0.00  0.00    +0.000 A 
ATOM     30 CL   UNL     1      -2.395  10.089  16.809  0.00  0.00    +0.000 Cl
ATOM     31  C   UNL     1      -0.155  10.144  18.302  0.00  0.00    +0.000 A 
BRANCH  28  32
ATOM     32  O   UNL     1      -2.982  12.471  18.540  0.00  0.00    +0.000 OA
ATOM     33  H   UNL     1      -3.506  12.385  19.353  0.00  0.00    +0.000 HD
ENDBRANCH  28  32
ENDBRANCH  24  25
ENDBRANCH   8  24
TORSDOF 5
ENDMDL
MODEL 3
REMARK VINA RESULT:      -7.1      1.091      1.439
REMARK  Name = 
REMARK  6 active torsions:
REMARK  status: ('A' for Active; 'I' for Inactive)
REMARK    1  A    between atoms: C_1  and  C_2
REMARK    2  A    between atoms: C_2  and  N_3
REMARK    3  A    between atoms: C_9  and  C_10
REMARK    4  A    between atoms: N_13  and  C_14
REMARK    5  A    between atoms: C_14  and  C_15
REMARK    6  A    between atoms: C_18  and  O_19
REMARK                            x       y       z     vdW  Elec       q    Type
REMARK                         _______ _______ _______ _____ _____    ______ ____
ROOT
ATOM      1  N   UNL     1      -1.847  12.951  22.924  0.00  0.00    +0.000 N 
ATOM      2  C   UNL     1      -0.992  12.391  21.979  0.00  0.00    +0.000 C 
ATOM      3  O   UNL     1       0.202  12.202  22.193  0.00  0.00    +0.000 OA
ATOM      4  C   UNL     1      -1.622  12.154  20.722  0.00  0.00    +0.000 A 
ATOM      5  C   UNL     1      -2.954  12.372  20.476  0.00  0.00    +0.000 A 
ATOM      6  N   UNL     1      -3.285  11.975  19.206  0.00  0.00    +0.000 NA
ATOM      7  C   UNL     1      -2.135  11.568  18.649  0.00  0.00    +0.000 A 
ATOM      8  N   UNL     1      -1.079  11.812  19.509  0.00  0.00    +0.000 N 
ATOM      9  N   UNL     1      -3.784  12.756  21.471  0.00  0.00    +0.000 N 
ATOM     10  C   UNL     1      -3.223  12.928  22.725  0.00  0.00    +0.000 C 
ATOM     11  N   UNL     1      -4.054  13.299  23.679  0.00  0.00    +0.000 NA
ATOM     12  C   UNL     1      -5.264  13.702  22.899  0.00  0.00    +0.000 C 
ATOM     13  C   UNL     1      -6.411  12.689  22.843  0.00  0.00    +0.000 C 
ATOM     14  C   UNL     1      -6.893  12.692  21.381  0.00  0.00    +0.000 C 
ATOM     15  C   UNL     1      -6.023  13.693  20.632  0.00  0.00    +0.000 C 
ATOM     16  C   UNL     1      -4.770  13.822  21.437  0.00  0.00    +0.000 C 
ENDROOT
BRANCH   7  17
ATOM     17  C   UNL     1      -1.999  10.922  17.343  0.00  0.00    +0.000 C 
ATOM     18  N   UNL     1      -2.283  11.699  16.262  0.00  0.00    +0.000 N 
ATOM     19  O   UNL     1      -1.700   9.739  17.174  0.00  0.00    +0.000 OA
ATOM     20  H   UNL     1      -2.674  12.621  16.386  0.00  0.00    +0.000 HD
ATOM     21  H   UNL     1      -2.363  11.228  15.362  0.00  0.00    +0.000 HD
ENDBRANCH   7  17
BRANCH   1  23
ATOM     22  C   UNL     1      -1.411  15.392  22.529  0.00  0.00    +0.000 C 
ATOM     23  C   UNL     1      -1.325  14.204  23.459  0.00  0.00    +0.000 C 
ENDBRANCH   1  23
BRANCH   8  24
ATOM     24  C   UNL     1       0.329  11.907  19.135  0.00  0.00    +0.000 C 
BRANCH  24  25
ATOM     25  C   UNL     1       1.074  10.598  19.048  0.00  0.00    +0.000 A 
ATOM     26  C   UNL     1       1.788  10.209  17.905  0.00  0.00    +0.000 A 
ATOM     27  C   UNL     1       2.280   8.911  17.769  0.00  0.00    +0.000 A 
ATOM     28  C   UNL     1       2.090   7.987  18.791  0.00  0.00    +0.000 A 
ATOM     29  C   UNL     1       1.437   8.368  19.965  0.00  0.00    +0.000 A 
ATOM     30 CL   UNL     1       1.203   7.259  21.267  0.00  0.00    +0.000 Cl
ATOM     31  C   UNL     1       0.922   9.663  20.087  0.00  0.00    +0.000 A 
BRANCH  28  32
ATOM     32  O   UNL     1       2.521   6.701  18.626  0.00  0.00    +0.000 OA
ATOM     33  H   UNL     1       3.220   6.520  19.275  0.00  0.00    +0.000 HD
ENDBRANCH  28  32
ENDBRANCH  24  25
ENDBRANCH   8  24
TORSDOF 5
ENDMDL
MODEL 4
REMARK VINA RESULT:      -7.1      1.808      4.348
REMARK  Name = 
REMARK  6 active torsions:
REMARK  status: ('A' for Active; 'I' for Inactive)
REMARK    1  A    between atoms: C_1  and  C_2
REMARK    2  A    between atoms: C_2  and  N_3
REMARK    3  A    between atoms: C_9  and  C_10
REMARK    4  A    between atoms: N_13  and  C_14
REMARK    5  A    between atoms: C_14  and  C_15
REMARK    6  A    between atoms: C_18  and  O_19
REMARK                            x       y       z     vdW  Elec       q    Type
REMARK                         _______ _______ _______ _____ _____    ______ ____
ROOT
ATOM      1  N   UNL     1      -3.266  11.533  17.307  0.00  0.00    +0.000 N 
ATOM      2  C   UNL     1      -2.128  11.951  17.989  0.00  0.00    +0.000 C 
ATOM      3  O   UNL     1      -1.007  11.924  17.491  0.00  0.00    +0.000 OA
ATOM      4  C   UNL     1      -2.388  12.319  19.342  0.00  0.00    +0.000 A 
ATOM      5  C   UNL     1      -3.639  12.342  19.907  0.00  0.00    +0.000 A 
ATOM      6  N   UNL     1      -3.583  12.815  21.193  0.00  0.00    +0.000 NA
ATOM      7  C   UNL     1      -2.282  13.025  21.439  0.00  0.00    +0.000 A 
ATOM      8  N   UNL     1      -1.520  12.583  20.372  0.00  0.00    +0.000 N 
ATOM      9  N   UNL     1      -4.736  12.091  19.159  0.00  0.00    +0.000 N 
ATOM     10  C   UNL     1      -4.531  11.799  17.821  0.00  0.00    +0.000 C 
ATOM     11  N   UNL     1      -5.617  11.563  17.112  0.00  0.00    +0.000 NA
ATOM     12  C   UNL     1      -6.652  11.392  18.177  0.00  0.00    +0.000 C 
ATOM     13  C   UNL     1      -7.568  12.591  18.439  0.00  0.00    +0.000 C 
ATOM     14  C   UNL     1      -7.676  12.700  19.971  0.00  0.00    +0.000 C 
ATOM     15  C   UNL     1      -6.830  11.577  20.554  0.00  0.00    +0.000 C 
ATOM     16  C   UNL     1      -5.847  11.215  19.487  0.00  0.00    +0.000 C 
ENDROOT
BRANCH   7  17
ATOM     17  C   UNL     1      -1.729  13.661  22.636  0.00  0.00    +0.000 C 
ATOM     18  N   UNL     1      -2.020  14.980  22.797  0.00  0.00    +0.000 N 
ATOM     19  O   UNL     1      -0.998  13.099  23.452  0.00  0.00    +0.000 OA
ATOM     20  H   UNL     1      -2.489  15.492  22.065  0.00  0.00    +0.000 HD
ATOM     21  H   UNL     1      -1.509  15.481  23.522  0.00  0.00    +0.000 HD
ENDBRANCH   7  17
BRANCH   1  23
ATOM     22  C   UNL     1      -2.962  10.144  15.237  0.00  0.00    +0.000 C 
ATOM     23  C   UNL     1      -3.104  10.198  16.741  0.00  0.00    +0.000 C 
ENDBRANCH   1  23
BRANCH   8  24
ATOM     24  C   UNL     1      -0.099  12.250  20.410  0.00  0.00    +0.000 C 
BRANCH  24  25
ATOM     25  C   UNL     1       0.228  10.785  20.562  0.00  0.00    +0.000 A 
ATOM     26  C   UNL     1       0.017  10.083  21.758  0.00  0.00    +0.000 A 
ATOM     27  C   UNL     1       0.526   8.797  21.940  0.00  0.00    +0.000 A 
ATOM     28  C   UNL     1       1.232   8.180  20.912  0.00  0.00    +0.000 A 
ATOM     29  C   UNL     1       1.401   8.833  19.690  0.00  0.00    +0.000 A 
ATOM     30 CL   UNL     1       2.248   8.092  18.381  0.00  0.00    +0.000 Cl
ATOM     31  C   UNL     1       0.911  10.133  19.521  0.00  0.00    +0.000 A 
BRANCH  28  32
ATOM     32  O   UNL     1       1.781   6.946  21.117  0.00  0.00    +0.000 OA
ATOM     33  H   UNL     1       2.368   6.737  20.373  0.00  0.00    +0.000 HD
ENDBRANCH  28  32
ENDBRANCH  24  25
ENDBRANCH   8  24
TORSDOF 5
ENDMDL
MODEL 5
REMARK VINA RESULT:      -6.9      3.964      8.909
REMARK  Name = 
REMARK  6 active torsions:
REMARK  status: ('A' for Active; 'I' for Inactive)
REMARK    1  A    between atoms: C_1  and  C_2
REMARK    2  A    between atoms: C_2  and  N_3
REMARK    3  A    between atoms: C_9  and  C_10
REMARK    4  A    between atoms: N_13  and  C_14
REMARK    5  A    between atoms: C_14  and  C_15
REMARK    6  A    between atoms: C_18  and  O_19
REMARK                            x       y       z     vdW  Elec       q    Type
REMARK                         _______ _______ _______ _____ _____    ______ ____
ROOT
ATOM      1  N   UNL     1       2.673   6.644  17.610  0.00  0.00    +0.000 N 
ATOM      2  C   UNL     1       2.229   7.882  18.063  0.00  0.00    +0.000 C 
ATOM      3  O   UNL     1       2.270   8.896  17.373  0.00  0.00    +0.000 OA
ATOM      4  C   UNL     1       1.817   7.865  19.428  0.00  0.00    +0.000 A 
ATOM      5  C   UNL     1       1.778   6.735  20.206  0.00  0.00    +0.000 A 
ATOM      6  N   UNL     1       1.262   7.016  21.445  0.00  0.00    +0.000 NA
ATOM      7  C   UNL     1       1.041   8.338  21.448  0.00  0.00    +0.000 A 
ATOM      8  N   UNL     1       1.516   8.901  20.277  0.00  0.00    +0.000 N 
ATOM      9  N   UNL     1       2.057   5.524  19.675  0.00  0.00    +0.000 N 
ATOM     10  C   UNL     1       2.393   5.489  18.333  0.00  0.00    +0.000 C 
ATOM     11  N   UNL     1       2.656   4.296  17.838  0.00  0.00    +0.000 NA
ATOM     12  C   UNL     1       2.794   3.469  19.076  0.00  0.00    +0.000 C 
ATOM     13  C   UNL     1       1.589   2.604  19.459  0.00  0.00    +0.000 C 
ATOM     14  C   UNL     1       1.430   2.771  20.981  0.00  0.00    +0.000 C 
ATOM     15  C   UNL     1       2.530   3.718  21.439  0.00  0.00    +0.000 C 
ATOM     16  C   UNL     1       2.925   4.497  20.225  0.00  0.00    +0.000 C 
ENDROOT
BRANCH   7  17
ATOM     17  C   UNL     1       0.364   9.090  22.505  0.00  0.00    +0.000 C 
ATOM     18  N   UNL     1      -0.995   9.008  22.518  0.00  0.00    +0.000 N 
ATOM     19  O   UNL     1       0.933   9.811  23.325  0.00  0.00    +0.000 OA
ATOM     20  H   UNL     1      -1.484   8.546  21.767  0.00  0.00    +0.000 HD
ATOM     21  H   UNL     1      -1.491   9.653  23.130  0.00  0.00    +0.000 HD
ENDBRANCH   7  17
BRANCH   1  23
ATOM     22  C   UNL     1       5.134   6.397  18.045  0.00  0.00    +0.000 C 
ATOM     23  C   UNL     1       4.026   6.713  17.067  0.00  0.00    +0.000 C 
ENDBRANCH   1  23
BRANCH   8  24
ATOM     24  C   UNL     1       1.844  10.308  20.071  0.00  0.00    +0.000 C 
BRANCH  24  25
ATOM     25  C   UNL     1       0.669  11.231  19.857  0.00  0.00    +0.000 A 
ATOM     26  C   UNL     1       0.408  12.328  20.690  0.00  0.00    +0.000 A 
ATOM     27  C   UNL     1      -0.796  13.028  20.605  0.00  0.00    +0.000 A 
ATOM     28  C   UNL     1      -1.747  12.659  19.659  0.00  0.00    +0.000 A 
ATOM     29  C   UNL     1      -1.484  11.610  18.776  0.00  0.00    +0.000 A 
ATOM     30 CL   UNL     1      -2.627  11.137  17.572  0.00  0.00    +0.000 Cl
ATOM     31  C   UNL     1      -0.287  10.893  18.882  0.00  0.00    +0.000 A 
BRANCH  28  32
ATOM     32  O   UNL     1      -2.948  13.309  19.621  0.00  0.00    +0.000 OA
ATOM     33  H   UNL     1      -3.093  13.644  18.722  0.00  0.00    +0.000 HD
ENDBRANCH  28  32
ENDBRANCH  24  25
ENDBRANCH   8  24
TORSDOF 5
ENDMDL
MODEL 6
REMARK VINA RESULT:      -6.7      4.972      7.653
REMARK  Name = 
REMARK  6 active torsions:
REMARK  status: ('A' for Active; 'I' for Inactive)
REMARK    1  A    between atoms: C_1  and  C_2
REMARK    2  A    between atoms: C_2  and  N_3
REMARK    3  A    between atoms: C_9  and  C_10
REMARK    4  A    between atoms: N_13  and  C_14
REMARK    5  A    between atoms: C_14  and  C_15
REMARK    6  A    between atoms: C_18  and  O_19
REMARK                            x       y       z     vdW  Elec       q    Type
REMARK                         _______ _______ _______ _____ _____    ______ ____
ROOT
ATOM      1  N   UNL     1       2.069   9.134  18.632  0.00  0.00    +0.000 N 
ATOM      2  C   UNL     1       2.570   7.866  18.353  0.00  0.00    +0.000 C 
ATOM      3  O   UNL     1       3.235   7.620  17.351  0.00  0.00    +0.000 OA
ATOM      4  C   UNL     1       2.153   6.878  19.293  0.00  0.00    +0.000 A 
ATOM      5  C   UNL     1       1.402   7.148  20.410  0.00  0.00    +0.000 A 
ATOM      6  N   UNL     1       1.229   6.015  21.164  0.00  0.00    +0.000 NA
ATOM      7  C   UNL     1       1.826   5.033  20.474  0.00  0.00    +0.000 A 
ATOM      8  N   UNL     1       2.265   5.511  19.252  0.00  0.00    +0.000 N 
ATOM      9  N   UNL     1       1.080   8.419  20.733  0.00  0.00    +0.000 N 
ATOM     10  C   UNL     1       1.528   9.416  19.882  0.00  0.00    +0.000 C 
ATOM     11  N   UNL     1       1.205  10.648  20.221  0.00  0.00    +0.000 NA
ATOM     12  C   UNL     1       0.167  10.419  21.273  0.00  0.00    +0.000 C 
ATOM     13  C   UNL     1       0.623  10.565  22.727  0.00  0.00    +0.000 C 
ATOM     14  C   UNL     1      -0.017   9.384  23.480  0.00  0.00    +0.000 C 
ATOM     15  C   UNL     1      -0.816   8.590  22.456  0.00  0.00    +0.000 C 
ATOM     16  C   UNL     1      -0.222   8.928  21.127  0.00  0.00    +0.000 C 
ENDROOT
BRANCH   7  17
ATOM     17  C   UNL     1       2.028   3.660  20.940  0.00  0.00    +0.000 C 
ATOM     18  N   UNL     1       0.905   2.901  21.061  0.00  0.00    +0.000 N 
ATOM     19  O   UNL     1       3.116   3.185  21.266  0.00  0.00    +0.000 OA
ATOM     20  H   UNL     1      -0.006   3.317  20.943  0.00  0.00    +0.000 HD
ATOM     21  H   UNL     1       1.000   2.009  21.543  0.00  0.00    +0.000 HD
ENDBRANCH   7  17
BRANCH   1  23
ATOM     22  C   UNL     1      -0.177   9.609  17.616  0.00  0.00    +0.000 C 
ATOM     23  C   UNL     1       1.327   9.689  17.504  0.00  0.00    +0.000 C 
ENDBRANCH   1  23
BRANCH   8  24
ATOM     24  C   UNL     1       2.572   4.705  18.074  0.00  0.00    +0.000 C 
BRANCH  24  25
ATOM     25  C   UNL     1       4.038   4.481  17.797  0.00  0.00    +0.000 A 
ATOM     26  C   UNL     1       5.034   4.724  18.755  0.00  0.00    +0.000 A 
ATOM     27  C   UNL     1       6.385   4.719  18.407  0.00  0.00    +0.000 A 
ATOM     28  C   UNL     1       6.763   4.441  17.098  0.00  0.00    +0.000 A 
ATOM     29  C   UNL     1       5.794   4.135  16.140  0.00  0.00    +0.000 A 
ATOM     30 CL   UNL     1       6.223   3.760  14.511  0.00  0.00    +0.000 Cl
ATOM     31  C   UNL     1       4.439   4.166  16.487  0.00  0.00    +0.000 A 
BRANCH  28  32
ATOM     32  O   UNL     1       8.083   4.499  16.750  0.00  0.00    +0.000 OA
ATOM     33  H   UNL     1       8.192   4.103  15.870  0.00  0.00    +0.000 HD
ENDBRANCH  28  32
ENDBRANCH  24  25
ENDBRANCH   8  24
TORSDOF 5
ENDMDL
MODEL 7
REMARK VINA RESULT:      -6.7      4.781      7.526
REMARK  Name = 
REMARK  6 active torsions:
REMARK  status: ('A' for Active; 'I' for Inactive)
REMARK    1  A    between atoms: C_1  and  C_2
REMARK    2  A    between atoms: C_2  and  N_3
REMARK    3  A    between atoms: C_9  and  C_10
REMARK    4  A    between atoms: N_13  and  C_14
REMARK    5  A    between atoms: C_14  and  C_15
REMARK    6  A    between atoms: C_18  and  O_19
REMARK                            x       y       z     vdW  Elec       q    Type
REMARK                         _______ _______ _______ _____ _____    ______ ____
ROOT
ATOM      1  N   UNL     1       1.891   9.413  18.627  0.00  0.00    +0.000 N 
ATOM      2  C   UNL     1       2.460   8.185  18.306  0.00  0.00    +0.000 C 
ATOM      3  O   UNL     1       3.114   8.002  17.284  0.00  0.00    +0.000 OA
ATOM      4  C   UNL     1       2.124   7.151  19.229  0.00  0.00    +0.000 A 
ATOM      5  C   UNL     1       1.385   7.348  20.368  0.00  0.00    +0.000 A 
ATOM      6  N   UNL     1       1.297   6.190  21.097  0.00  0.00    +0.000 NA
ATOM      7  C   UNL     1       1.935   5.262  20.369  0.00  0.00    +0.000 A 
ATOM      8  N   UNL     1       2.316   5.794  19.151  0.00  0.00    +0.000 N 
ATOM      9  N   UNL     1       0.995   8.590  20.730  0.00  0.00    +0.000 N 
ATOM     10  C   UNL     1       1.363   9.632  19.895  0.00  0.00    +0.000 C 
ATOM     11  N   UNL     1       0.975  10.834  20.272  0.00  0.00    +0.000 NA
ATOM     12  C   UNL     1      -0.023  10.518  21.340  0.00  0.00    +0.000 C 
ATOM     13  C   UNL     1       0.457  10.656  22.787  0.00  0.00    +0.000 C 
ATOM     14  C   UNL     1      -0.093   9.421  23.523  0.00  0.00    +0.000 C 
ATOM     15  C   UNL     1      -0.868   8.606  22.498  0.00  0.00    +0.000 C 
ATOM     16  C   UNL     1      -0.326   9.011  21.165  0.00  0.00    +0.000 C 
ENDROOT
BRANCH   7  17
ATOM     17  C   UNL     1       2.229   3.893  20.796  0.00  0.00    +0.000 C 
ATOM     18  N   UNL     1       1.155   3.136  21.152  0.00  0.00    +0.000 N 
ATOM     19  O   UNL     1       3.362   3.420  20.897  0.00  0.00    +0.000 OA
ATOM     20  H   UNL     1       0.239   3.552  21.220  0.00  0.00    +0.000 HD
ATOM     21  H   UNL     1       1.347   2.248  21.612  0.00  0.00    +0.000 HD
ENDBRANCH   7  17
BRANCH   1  23
ATOM     22  C   UNL     1      -0.381   9.614  17.577  0.00  0.00    +0.000 C 
ATOM     23  C   UNL     1       1.091   9.949  17.530  0.00  0.00    +0.000 C 
ENDBRANCH   1  23
BRANCH   8  24
ATOM     24  C   UNL     1       2.644   5.037  17.947  0.00  0.00    +0.000 C 
BRANCH  24  25
ATOM     25  C   UNL     1       4.111   4.943  17.610  0.00  0.00    +0.000 A 
ATOM     26  C   UNL     1       4.583   4.295  16.460  0.00  0.00    +0.000 A 
ATOM     27  C   UNL     1       5.942   4.032  16.285  0.00  0.00    +0.000 A 
ATOM     28  C   UNL     1       6.857   4.442  17.250  0.00  0.00    +0.000 A 
ATOM     29  C   UNL     1       6.418   5.144  18.375  0.00  0.00    +0.000 A 
ATOM     30 CL   UNL     1       7.524   5.692  19.583  0.00  0.00    +0.000 Cl
ATOM     31  C   UNL     1       5.052   5.383  18.558  0.00  0.00    +0.000 A 
BRANCH  28  32
ATOM     32  O   UNL     1       8.178   4.127  17.104  0.00  0.00    +0.000 OA
ATOM     33  H   UNL     1       8.250   3.197  16.834  0.00  0.00    +0.000 HD
ENDBRANCH  28  32
ENDBRANCH  24  25
ENDBRANCH   8  24
TORSDOF 5
ENDMDL
MODEL 8
REMARK VINA RESULT:      -6.6      2.778      3.796
REMARK  Name = 
REMARK  6 active torsions:
REMARK  status: ('A' for Active; 'I' for Inactive)
REMARK    1  A    between atoms: C_1  and  C_2
REMARK    2  A    between atoms: C_2  and  N_3
REMARK    3  A    between atoms: C_9  and  C_10
REMARK    4  A    between atoms: N_13  and  C_14
REMARK    5  A    between atoms: C_14  and  C_15
REMARK    6  A    between atoms: C_18  and  O_19
REMARK                            x       y       z     vdW  Elec       q    Type
REMARK                         _______ _______ _______ _____ _____    ______ ____
ROOT
ATOM      1  N   UNL     1      -1.724  12.817  22.788  0.00  0.00    +0.000 N 
ATOM      2  C   UNL     1      -0.923  12.215  21.823  0.00  0.00    +0.000 C 
ATOM      3  O   UNL     1       0.261  11.951  22.011  0.00  0.00    +0.000 OA
ATOM      4  C   UNL     1      -1.590  12.027  20.577  0.00  0.00    +0.000 A 
ATOM      5  C   UNL     1      -2.911  12.329  20.359  0.00  0.00    +0.000 A 
ATOM      6  N   UNL     1      -3.290  11.964  19.092  0.00  0.00    +0.000 NA
ATOM      7  C   UNL     1      -2.179  11.492  18.510  0.00  0.00    +0.000 A 
ATOM      8  N   UNL     1      -1.094  11.664  19.350  0.00  0.00    +0.000 N 
ATOM      9  N   UNL     1      -3.697  12.754  21.373  0.00  0.00    +0.000 N 
ATOM     10  C   UNL     1      -3.102  12.881  22.617  0.00  0.00    +0.000 C 
ATOM     11  N   UNL     1      -3.890  13.293  23.590  0.00  0.00    +0.000 NA
ATOM     12  C   UNL     1      -5.088  13.777  22.837  0.00  0.00    +0.000 C 
ATOM     13  C   UNL     1      -6.296  12.837  22.796  0.00  0.00    +0.000 C 
ATOM     14  C   UNL     1      -6.805  12.883  21.344  0.00  0.00    +0.000 C 
ATOM     15  C   UNL     1      -5.890  13.834  20.586  0.00  0.00    +0.000 C 
ATOM     16  C   UNL     1      -4.616  13.879  21.366  0.00  0.00    +0.000 C 
ENDROOT
BRANCH   7  17
ATOM     17  C   UNL     1      -2.108  10.851  17.196  0.00  0.00    +0.000 C 
ATOM     18  N   UNL     1      -2.456  11.628  16.134  0.00  0.00    +0.000 N 
ATOM     19  O   UNL     1      -1.809   9.671  17.009  0.00  0.00    +0.000 OA
ATOM     20  H   UNL     1      -2.846  12.547  16.282  0.00  0.00    +0.000 HD
ATOM     21  H   UNL     1      -2.580  11.159  15.239  0.00  0.00    +0.000 HD
ENDBRANCH   7  17
BRANCH   1  23
ATOM     22  C   UNL     1      -1.075  15.207  22.375  0.00  0.00    +0.000 C 
ATOM     23  C   UNL     1      -1.116  14.031  23.323  0.00  0.00    +0.000 C 
ENDBRANCH   1  23
BRANCH   8  24
ATOM     24  C   UNL     1       0.310  11.676  18.950  0.00  0.00    +0.000 C 
BRANCH  24  25
ATOM     25  C   UNL     1       0.909  13.037  18.695  0.00  0.00    +0.000 A 
ATOM     26  C   UNL     1       2.290  13.244  18.572  0.00  0.00    +0.000 A 
ATOM     27  C   UNL     1       2.828  14.532  18.557  0.00  0.00    +0.000 A 
ATOM     28  C   UNL     1       1.985  15.636  18.634  0.00  0.00    +0.000 A 
ATOM     29  C   UNL     1       0.601  15.456  18.694  0.00  0.00    +0.000 A 
ATOM     30 CL   UNL     1      -0.480  16.800  18.766  0.00  0.00    +0.000 Cl
ATOM     31  C   UNL     1       0.068  14.163  18.735  0.00  0.00    +0.000 A 
BRANCH  28  32
ATOM     32  O   UNL     1       2.521  16.892  18.681  0.00  0.00    +0.000 OA
ATOM     33  H   UNL     1       3.120  17.004  17.925  0.00  0.00    +0.000 HD
ENDBRANCH  28  32
ENDBRANCH  24  25
ENDBRANCH   8  24
TORSDOF 5
ENDMDL
MODEL 9
REMARK VINA RESULT:      -6.5      3.284      7.287
REMARK  Name = 
REMARK  6 active torsions:
REMARK  status: ('A' for Active; 'I' for Inactive)
REMARK    1  A    between atoms: C_1  and  C_2
REMARK    2  A    between atoms: C_2  and  N_3
REMARK    3  A    between atoms: C_9  and  C_10
REMARK    4  A    between atoms: N_13  and  C_14
REMARK    5  A    between atoms: C_14  and  C_15
REMARK    6  A    between atoms: C_18  and  O_19
REMARK                            x       y       z     vdW  Elec       q    Type
REMARK                         _______ _______ _______ _____ _____    ______ ____
ROOT
ATOM      1  N   UNL     1       0.490  10.954  20.252  0.00  0.00    +0.000 N 
ATOM      2  C   UNL     1      -0.186  11.062  21.463  0.00  0.00    +0.000 C 
ATOM      3  O   UNL     1      -0.659  10.092  22.049  0.00  0.00    +0.000 OA
ATOM      4  C   UNL     1      -0.354  12.411  21.895  0.00  0.00    +0.000 A 
ATOM      5  C   UNL     1       0.165  13.499  21.238  0.00  0.00    +0.000 A 
ATOM      6  N   UNL     1      -0.089  14.652  21.934  0.00  0.00    +0.000 NA
ATOM      7  C   UNL     1      -0.821  14.277  22.992  0.00  0.00    +0.000 A 
ATOM      8  N   UNL     1      -1.124  12.930  22.905  0.00  0.00    +0.000 N 
ATOM      9  N   UNL     1       0.959  13.336  20.157  0.00  0.00    +0.000 N 
ATOM     10  C   UNL     1       1.205  12.036  19.748  0.00  0.00    +0.000 C 
ATOM     11  N   UNL     1       1.986  11.904  18.695  0.00  0.00    +0.000 NA
ATOM     12  C   UNL     1       2.032  13.301  18.164  0.00  0.00    +0.000 C 
ATOM     13  C   UNL     1       3.285  14.117  18.493  0.00  0.00    +0.000 C 
ATOM     14  C   UNL     1       2.775  15.516  18.882  0.00  0.00    +0.000 C 
ATOM     15  C   UNL     1       1.257  15.479  18.773  0.00  0.00    +0.000 C 
ATOM     16  C   UNL     1       0.879  14.037  18.888  0.00  0.00    +0.000 C 
ENDROOT
BRANCH   7  17
ATOM     17  C   UNL     1      -1.220  15.138  24.106  0.00  0.00    +0.000 C 
ATOM     18  N   UNL     1      -2.310  15.923  23.891  0.00  0.00    +0.000 N 
ATOM     19  O   UNL     1      -0.613  15.227  25.174  0.00  0.00    +0.000 OA
ATOM     20  H   UNL     1      -2.728  15.975  22.974  0.00  0.00    +0.000 HD
ATOM     21  H   UNL     1      -2.501  16.649  24.580  0.00  0.00    +0.000 HD
ENDBRANCH   7  17
BRANCH   1  23
ATOM     22  C   UNL     1      -1.481  10.939  18.697  0.00  0.00    +0.000 C 
ATOM     23  C   UNL     1      -0.281  10.213  19.259  0.00  0.00    +0.000 C 
ENDBRANCH   1  23
BRANCH   8  24
ATOM     24  C   UNL     1      -2.210  12.246  23.601  0.00  0.00    +0.000 C 
BRANCH  24  25
ATOM     25  C   UNL     1      -3.605  12.617  23.163  0.00  0.00    +0.000 A 
ATOM     26  C   UNL     1      -4.656  12.812  24.072  0.00  0.00    +0.000 A 
ATOM     27  C   UNL     1      -5.974  12.937  23.634  0.00  0.00    +0.000 A 
ATOM     28  C   UNL     1      -6.259  12.899  22.273  0.00  0.00    +0.000 A 
ATOM     29  C   UNL     1      -5.223  12.769  21.345  0.00  0.00    +0.000 A 
ATOM     30 CL   UNL     1      -5.532  12.743  19.647  0.00  0.00    +0.000 Cl
ATOM     31  C   UNL     1      -3.905  12.618  21.790  0.00  0.00    +0.000 A 
BRANCH  28  32
ATOM     32  O   UNL     1      -7.558  12.960  21.853  0.00  0.00    +0.000 OA
ATOM     33  H   UNL     1      -7.603  13.509  21.054  0.00  0.00    +0.000 HD
ENDBRANCH  28  32
ENDBRANCH  24  25
ENDBRANCH   8  24
TORSDOF 5
ENDMDL
