MODEL 1
REMARK VINA RESULT:      -7.9      0.000      0.000
REMARK  Name = 
REMARK  7 active torsions:
REMARK  status: ('A' for Active; 'I' for Inactive)
REMARK    1  A    between atoms: C_2  and  C_3
REMARK    2  A    between atoms: C_3  and  C_4
REMARK    3  A    between atoms: C_4  and  C_5
REMARK    4  A    between atoms: C_5  and  N_6
REMARK    5  A    between atoms: N_9  and  C_10
REMARK    6  A    between atoms: C_10  and  C_11
REMARK    7  A    between atoms: N_20  and  C_21
REMARK                            x       y       z     vdW  Elec       q    Type
REMARK                         _______ _______ _______ _____ _____    ______ ____
ROOT
ATOM      1  C   UNL     1       7.633   7.254  17.151  0.00  0.00    +0.000 C 
ENDROOT
BRANCH   1   2
ATOM      2  N   UNL     1       6.258   6.945  16.740  0.00  0.00    +0.000 NA
ATOM      3  C   UNL     1       6.170   6.056  15.561  0.00  0.00    +0.000 C 
ATOM      4  C   UNL     1       6.397   4.548  15.826  0.00  0.00    +0.000 C 
ATOM      5  N   UNL     1       5.580   3.979  16.921  0.00  0.00    +0.000 NA
ATOM      6  C   UNL     1       5.743   4.834  18.111  0.00  0.00    +0.000 C 
ATOM      7  C   UNL     1       5.501   6.346  17.865  0.00  0.00    +0.000 C 
BRANCH   5   8
ATOM      8  C   UNL     1       4.157   3.831  16.555  0.00  0.00    +0.000 C 
BRANCH   8   9
ATOM      9  C   UNL     1       3.288   3.476  17.748  0.00  0.00    +0.000 A 
ATOM     10  C   UNL     1       2.209   4.297  18.114  0.00  0.00    +0.000 A 
ATOM     11  C   UNL     1       1.514   4.060  19.303  0.00  0.00    +0.000 A 
ATOM     12  C   UNL     1       1.877   2.988  20.114  0.00  0.00    +0.000 A 
ATOM     13 CL   UNL     1       1.063   2.731  21.608  0.00  0.00    +0.000 Cl
ATOM     14  C   UNL     1       2.911   2.134  19.736  0.00  0.00    +0.000 A 
ATOM     15  C   UNL     1       3.614   2.376  18.555  0.00  0.00    +0.000 A 
ENDBRANCH   8   9
ENDBRANCH   5   8
ENDBRANCH   1   2
BRANCH   1  16
ATOM     16  C   UNL     1       7.839   8.646  17.745  0.00  0.00    +0.000 C 
BRANCH  16  17
ATOM     17  C   UNL     1       8.838   8.770  18.906  0.00  0.00    +0.000 C 
BRANCH  17  19
ATOM     18  O   UNL     1       9.354  10.702  20.222  0.00  0.00    +0.000 OA
ATOM     19  C   UNL     1       9.131  10.255  19.099  0.00  0.00    +0.000 C 
ATOM     20  N   UNL     1       9.096  11.028  17.952  0.00  0.00    +0.000 N 
ATOM     21  H   UNL     1       8.604  10.667  17.141  0.00  0.00    +0.000 HD
BRANCH  20  22
ATOM     22  C   UNL     1       9.401  12.407  17.946  0.00  0.00    +0.000 A 
ATOM     23  C   UNL     1       8.442  13.405  18.184  0.00  0.00    +0.000 A 
ATOM     24  C   UNL     1       8.747  14.755  18.035  0.00  0.00    +0.000 A 
ATOM     25  C   UNL     1      10.035  15.123  17.674  0.00  0.00    +0.000 A 
ATOM     26  F   UNL     1      10.322  16.419  17.489  0.00  0.00    +0.000 F 
ATOM     27  C   UNL     1      11.035  14.169  17.521  0.00  0.00    +0.000 A 
ATOM     28  C   UNL     1      10.713  12.823  17.659  0.00  0.00    +0.000 A 
ATOM     29  F   UNL     1      11.670  11.901  17.472  0.00  0.00    +0.000 F 
ENDBRANCH  20  22
ENDBRANCH  17  19
ENDBRANCH  16  17
ENDBRANCH   1  16
TORSDOF 7
ENDMDL
MODEL 2
REMARK VINA RESULT:      -7.7      1.588      1.595
REMARK  Name = 
REMARK  7 active torsions:
REMARK  status: ('A' for Active; 'I' for Inactive)
REMARK    1  A    between atoms: C_2  and  C_3
REMARK    2  A    between atoms: C_3  and  C_4
REMARK    3  A    between atoms: C_4  and  C_5
REMARK    4  A    between atoms: C_5  and  N_6
REMARK    5  A    between atoms: N_9  and  C_10
REMARK    6  A    between atoms: C_10  and  C_11
REMARK    7  A    between atoms: N_20  and  C_21
REMARK                            x       y       z     vdW  Elec       q    Type
REMARK                         _______ _______ _______ _____ _____    ______ ____
ROOT
ATOM      1  C   UNL     1       7.570   7.353  16.897  0.00  0.00    +0.000 C 
ENDROOT
BRANCH   1   2
ATOM      2  N   UNL     1       6.221   6.934  16.496  0.00  0.00    +0.000 NA
ATOM      3  C   UNL     1       6.203   5.843  15.499  0.00  0.00    +0.000 C 
ATOM      4  C   UNL     1       6.451   4.417  16.044  0.00  0.00    +0.000 C 
ATOM      5  N   UNL     1       5.601   4.032  17.192  0.00  0.00    +0.000 NA
ATOM      6  C   UNL     1       5.694   5.095  18.211  0.00  0.00    +0.000 C 
ATOM      7  C   UNL     1       5.431   6.529  17.683  0.00  0.00    +0.000 C 
BRANCH   5   8
ATOM      8  C   UNL     1       4.199   3.779  16.806  0.00  0.00    +0.000 C 
BRANCH   8   9
ATOM      9  C   UNL     1       3.329   3.414  17.995  0.00  0.00    +0.000 A 
ATOM     10  C   UNL     1       2.199   4.184  18.315  0.00  0.00    +0.000 A 
ATOM     11  C   UNL     1       1.496   3.947  19.499  0.00  0.00    +0.000 A 
ATOM     12  C   UNL     1       1.903   2.925  20.353  0.00  0.00    +0.000 A 
ATOM     13 CL   UNL     1       1.078   2.670  21.840  0.00  0.00    +0.000 Cl
ATOM     14  C   UNL     1       2.991   2.119  20.021  0.00  0.00    +0.000 A 
ATOM     15  C   UNL     1       3.701   2.362  18.845  0.00  0.00    +0.000 A 
ENDBRANCH   8   9
ENDBRANCH   5   8
ENDBRANCH   1   2
BRANCH   1  16
ATOM     16  C   UNL     1       7.646   8.681  17.649  0.00  0.00    +0.000 C 
BRANCH  16  17
ATOM     17  C   UNL     1       8.682   8.787  18.778  0.00  0.00    +0.000 C 
BRANCH  17  19
ATOM     18  O   UNL     1       8.824  11.028  17.950  0.00  0.00    +0.000 OA
ATOM     19  C   UNL     1       9.146  10.239  18.836  0.00  0.00    +0.000 C 
ATOM     20  N   UNL     1       9.953  10.570  19.911  0.00  0.00    +0.000 N 
ATOM     21  H   UNL     1      10.428   9.822  20.407  0.00  0.00    +0.000 HD
BRANCH  20  22
ATOM     22  C   UNL     1      10.419  11.882  20.146  0.00  0.00    +0.000 A 
ATOM     23  C   UNL     1       9.762  12.788  20.995  0.00  0.00    +0.000 A 
ATOM     24  C   UNL     1      10.170  14.115  21.096  0.00  0.00    +0.000 A 
ATOM     25  C   UNL     1      11.271  14.543  20.367  0.00  0.00    +0.000 A 
ATOM     26  F   UNL     1      11.643  15.829  20.430  0.00  0.00    +0.000 F 
ATOM     27  C   UNL     1      12.002  13.653  19.588  0.00  0.00    +0.000 A 
ATOM     28  C   UNL     1      11.575  12.333  19.485  0.00  0.00    +0.000 A 
ATOM     29  F   UNL     1      12.259  11.485  18.703  0.00  0.00    +0.000 F 
ENDBRANCH  20  22
ENDBRANCH  17  19
ENDBRANCH  16  17
ENDBRANCH   1  16
TORSDOF 7
ENDMDL
MODEL 3
REMARK VINA RESULT:      -7.6      1.106      1.163
REMARK  Name = 
REMARK  7 active torsions:
REMARK  status: ('A' for Active; 'I' for Inactive)
REMARK    1  A    between atoms: C_2  and  C_3
REMARK    2  A    between atoms: C_3  and  C_4
REMARK    3  A    between atoms: C_4  and  C_5
REMARK    4  A    between atoms: C_5  and  N_6
REMARK    5  A    between atoms: N_9  and  C_10
REMARK    6  A    between atoms: C_10  and  C_11
REMARK    7  A    between atoms: N_20  and  C_21
REMARK                            x       y       z     vdW  Elec       q    Type
REMARK                         _______ _______ _______ _____ _____    ______ ____
ROOT
ATOM      1  C   UNL     1       7.633   6.449  17.850  0.00  0.00    +0.000 C 
ENDROOT
BRANCH   1   2
ATOM      2  N   UNL     1       6.180   6.561  17.670  0.00  0.00    +0.000 NA
ATOM      3  C   UNL     1       5.707   6.141  16.333  0.00  0.00    +0.000 C 
ATOM      4  C   UNL     1       5.588   4.616  16.100  0.00  0.00    +0.000 C 
ATOM      5  N   UNL     1       4.819   3.887  17.133  0.00  0.00    +0.000 NA
ATOM      6  C   UNL     1       5.357   4.258  18.456  0.00  0.00    +0.000 C 
ATOM      7  C   UNL     1       5.466   5.783  18.710  0.00  0.00    +0.000 C 
BRANCH   5   8
ATOM      8  C   UNL     1       3.368   4.142  17.052  0.00  0.00    +0.000 C 
BRANCH   8   9
ATOM      9  C   UNL     1       2.628   3.673  18.292  0.00  0.00    +0.000 A 
ATOM     10  C   UNL     1       2.023   4.600  19.155  0.00  0.00    +0.000 A 
ATOM     11  C   UNL     1       1.487   4.182  20.376  0.00  0.00    +0.000 A 
ATOM     12  C   UNL     1       1.530   2.835  20.725  0.00  0.00    +0.000 A 
ATOM     13 CL   UNL     1       0.926   2.326  22.254  0.00  0.00    +0.000 Cl
ATOM     14  C   UNL     1       2.080   1.896  19.854  0.00  0.00    +0.000 A 
ATOM     15  C   UNL     1       2.626   2.314  18.640  0.00  0.00    +0.000 A 
ENDBRANCH   8   9
ENDBRANCH   5   8
ENDBRANCH   1   2
BRANCH   1  16
ATOM     16  C   UNL     1       8.313   7.678  18.451  0.00  0.00    +0.000 C 
BRANCH  16  17
ATOM     17  C   UNL     1       7.997   9.037  17.807  0.00  0.00    +0.000 C 
BRANCH  17  19
ATOM     18  O   UNL     1       9.372   9.820  19.603  0.00  0.00    +0.000 OA
ATOM     19  C   UNL     1       8.826  10.090  18.534  0.00  0.00    +0.000 C 
ATOM     20  N   UNL     1       8.884  11.334  17.929  0.00  0.00    +0.000 N 
ATOM     21  H   UNL     1       8.172  11.572  17.246  0.00  0.00    +0.000 HD
BRANCH  20  22
ATOM     22  C   UNL     1       9.656  12.401  18.439  0.00  0.00    +0.000 A 
ATOM     23  C   UNL     1       9.099  13.478  19.149  0.00  0.00    +0.000 A 
ATOM     24  C   UNL     1       9.866  14.579  19.517  0.00  0.00    +0.000 A 
ATOM     25  C   UNL     1      11.218  14.598  19.205  0.00  0.00    +0.000 A 
ATOM     26  F   UNL     1      11.953  15.673  19.521  0.00  0.00    +0.000 F 
ATOM     27  C   UNL     1      11.824  13.510  18.586  0.00  0.00    +0.000 A 
ATOM     28  C   UNL     1      11.043  12.422  18.211  0.00  0.00    +0.000 A 
ATOM     29  F   UNL     1      11.622  11.390  17.579  0.00  0.00    +0.000 F 
ENDBRANCH  20  22
ENDBRANCH  17  19
ENDBRANCH  16  17
ENDBRANCH   1  16
TORSDOF 7
ENDMDL
MODEL 4
REMARK VINA RESULT:      -7.3      1.997      2.237
REMARK  Name = 
REMARK  7 active torsions:
REMARK  status: ('A' for Active; 'I' for Inactive)
REMARK    1  A    between atoms: C_2  and  C_3
REMARK    2  A    between atoms: C_3  and  C_4
REMARK    3  A    between atoms: C_4  and  C_5
REMARK    4  A    between atoms: C_5  and  N_6
REMARK    5  A    between atoms: N_9  and  C_10
REMARK    6  A    between atoms: C_10  and  C_11
REMARK    7  A    between atoms: N_20  and  C_21
REMARK                            x       y       z     vdW  Elec       q    Type
REMARK                         _______ _______ _______ _____ _____    ______ ____
ROOT
ATOM      1  C   UNL     1       7.306   7.831  17.252  0.00  0.00    +0.000 C 
ENDROOT
BRANCH   1   2
ATOM      2  N   UNL     1       7.217   6.393  17.536  0.00  0.00    +0.000 NA
ATOM      3  C   UNL     1       6.142   6.035  18.486  0.00  0.00    +0.000 C 
ATOM      4  C   UNL     1       4.709   5.978  17.904  0.00  0.00    +0.000 C 
ATOM      5  N   UNL     1       4.565   5.156  16.682  0.00  0.00    +0.000 NA
ATOM      6  C   UNL     1       5.595   5.582  15.715  0.00  0.00    +0.000 C 
ATOM      7  C   UNL     1       7.038   5.627  16.279  0.00  0.00    +0.000 C 
BRANCH   5   8
ATOM      8  C   UNL     1       4.649   3.708  16.955  0.00  0.00    +0.000 C 
BRANCH   8   9
ATOM      9  C   UNL     1       3.768   3.286  18.117  0.00  0.00    +0.000 A 
ATOM     10  C   UNL     1       2.371   3.389  18.027  0.00  0.00    +0.000 A 
ATOM     11  C   UNL     1       1.573   3.157  19.150  0.00  0.00    +0.000 A 
ATOM     12  C   UNL     1       2.165   2.797  20.358  0.00  0.00    +0.000 A 
ATOM     13 CL   UNL     1       1.190   2.571  21.757  0.00  0.00    +0.000 Cl
ATOM     14  C   UNL     1       3.547   2.640  20.447  0.00  0.00    +0.000 A 
ATOM     15  C   UNL     1       4.347   2.882  19.330  0.00  0.00    +0.000 A 
ENDBRANCH   8   9
ENDBRANCH   5   8
ENDBRANCH   1   2
BRANCH   1  16
ATOM     16  C   UNL     1       8.269   8.614  18.144  0.00  0.00    +0.000 C 
BRANCH  16  17
ATOM     17  C   UNL     1       8.661  10.025  17.680  0.00  0.00    +0.000 C 
BRANCH  17  19
ATOM     18  O   UNL     1       9.693  10.180  19.834  0.00  0.00    +0.000 OA
ATOM     19  C   UNL     1       9.162  10.785  18.904  0.00  0.00    +0.000 C 
ATOM     20  N   UNL     1       8.948  12.152  18.892  0.00  0.00    +0.000 N 
ATOM     21  H   UNL     1       8.240  12.525  18.268  0.00  0.00    +0.000 HD
BRANCH  20  22
ATOM     22  C   UNL     1       9.402  13.009  19.920  0.00  0.00    +0.000 A 
ATOM     23  C   UNL     1       8.725  13.167  21.141  0.00  0.00    +0.000 A 
ATOM     24  C   UNL     1       9.123  14.120  22.073  0.00  0.00    +0.000 A 
ATOM     25  C   UNL     1      10.232  14.909  21.804  0.00  0.00    +0.000 A 
ATOM     26  F   UNL     1      10.595  15.857  22.680  0.00  0.00    +0.000 F 
ATOM     27  C   UNL     1      10.982  14.719  20.648  0.00  0.00    +0.000 A 
ATOM     28  C   UNL     1      10.565  13.772  19.719  0.00  0.00    +0.000 A 
ATOM     29  F   UNL     1      11.267  13.617  18.586  0.00  0.00    +0.000 F 
ENDBRANCH  20  22
ENDBRANCH  17  19
ENDBRANCH  16  17
ENDBRANCH   1  16
TORSDOF 7
ENDMDL
MODEL 5
REMARK VINA RESULT:      -7.2      1.442      1.847
REMARK  Name = 
REMARK  7 active torsions:
REMARK  status: ('A' for Active; 'I' for Inactive)
REMARK    1  A    between atoms: C_2  and  C_3
REMARK    2  A    between atoms: C_3  and  C_4
REMARK    3  A    between atoms: C_4  and  C_5
REMARK    4  A    between atoms: C_5  and  N_6
REMARK    5  A    between atoms: N_9  and  C_10
REMARK    6  A    between atoms: C_10  and  C_11
REMARK    7  A    between atoms: N_20  and  C_21
REMARK                            x       y       z     vdW  Elec       q    Type
REMARK                         _______ _______ _______ _____ _____    ______ ____
ROOT
ATOM      1  C   UNL     1       7.467   7.450  17.077  0.00  0.00    +0.000 C 
ENDROOT
BRANCH   1   2
ATOM      2  N   UNL     1       6.100   6.976  16.827  0.00  0.00    +0.000 NA
ATOM      3  C   UNL     1       5.998   5.995  15.725  0.00  0.00    +0.000 C 
ATOM      4  C   UNL     1       6.407   4.542  16.066  0.00  0.00    +0.000 C 
ATOM      5  N   UNL     1       5.760   3.980  17.272  0.00  0.00    +0.000 NA
ATOM      6  C   UNL     1       5.941   4.935  18.381  0.00  0.00    +0.000 C 
ATOM      7  C   UNL     1       5.519   6.393  18.060  0.00  0.00    +0.000 C 
BRANCH   5   8
ATOM      8  C   UNL     1       4.333   3.664  17.061  0.00  0.00    +0.000 C 
BRANCH   8   9
ATOM      9  C   UNL     1       3.580   3.496  18.368  0.00  0.00    +0.000 A 
ATOM     10  C   UNL     1       4.015   2.569  19.329  0.00  0.00    +0.000 A 
ATOM     11  C   UNL     1       3.232   2.298  20.454  0.00  0.00    +0.000 A 
ATOM     12  C   UNL     1       2.027   2.972  20.637  0.00  0.00    +0.000 A 
ATOM     13 CL   UNL     1       1.032   2.597  21.989  0.00  0.00    +0.000 Cl
ATOM     14  C   UNL     1       1.609   3.934  19.719  0.00  0.00    +0.000 A 
ATOM     15  C   UNL     1       2.384   4.197  18.588  0.00  0.00    +0.000 A 
ENDBRANCH   8   9
ENDBRANCH   5   8
ENDBRANCH   1   2
BRANCH   1  16
ATOM     16  C   UNL     1       7.575   8.876  17.614  0.00  0.00    +0.000 C 
BRANCH  16  17
ATOM     17  C   UNL     1       8.789   9.199  18.501  0.00  0.00    +0.000 C 
BRANCH  17  19
ATOM     18  O   UNL     1       8.367  11.394  17.645  0.00  0.00    +0.000 OA
ATOM     19  C   UNL     1       9.116  10.676  18.303  0.00  0.00    +0.000 C 
ATOM     20  N   UNL     1      10.297  11.112  18.880  0.00  0.00    +0.000 N 
ATOM     21  H   UNL     1      11.001  10.421  19.121  0.00  0.00    +0.000 HD
BRANCH  20  22
ATOM     22  C   UNL     1      10.718  12.460  18.843  0.00  0.00    +0.000 A 
ATOM     23  C   UNL     1      11.071  13.119  17.654  0.00  0.00    +0.000 A 
ATOM     24  C   UNL     1      11.612  14.401  17.668  0.00  0.00    +0.000 A 
ATOM     25  C   UNL     1      11.775  15.055  18.881  0.00  0.00    +0.000 A 
ATOM     26  F   UNL     1      12.333  16.273  18.904  0.00  0.00    +0.000 F 
ATOM     27  C   UNL     1      11.351  14.471  20.070  0.00  0.00    +0.000 A 
ATOM     28  C   UNL     1      10.825  13.184  20.043  0.00  0.00    +0.000 A 
ATOM     29  F   UNL     1      10.452  12.606  21.196  0.00  0.00    +0.000 F 
ENDBRANCH  20  22
ENDBRANCH  17  19
ENDBRANCH  16  17
ENDBRANCH   1  16
TORSDOF 7
ENDMDL
MODEL 6
REMARK VINA RESULT:      -7.1      1.246      1.299
REMARK  Name = 
REMARK  7 active torsions:
REMARK  status: ('A' for Active; 'I' for Inactive)
REMARK    1  A    between atoms: C_2  and  C_3
REMARK    2  A    between atoms: C_3  and  C_4
REMARK    3  A    between atoms: C_4  and  C_5
REMARK    4  A    between atoms: C_5  and  N_6
REMARK    5  A    between atoms: N_9  and  C_10
REMARK    6  A    between atoms: C_10  and  C_11
REMARK    7  A    between atoms: N_20  and  C_21
REMARK                            x       y       z     vdW  Elec       q    Type
REMARK                         _______ _______ _______ _____ _____    ______ ____
ROOT
ATOM      1  C   UNL     1       7.240   6.893  17.674  0.00  0.00    +0.000 C 
ENDROOT
BRANCH   1   2
ATOM      2  N   UNL     1       5.808   6.744  17.389  0.00  0.00    +0.000 NA
ATOM      3  C   UNL     1       5.515   6.251  16.026  0.00  0.00    +0.000 C 
ATOM      4  C   UNL     1       5.687   4.731  15.799  0.00  0.00    +0.000 C 
ATOM      5  N   UNL     1       4.988   3.872  16.781  0.00  0.00    +0.000 NA
ATOM      6  C   UNL     1       5.355   4.328  18.136  0.00  0.00    +0.000 C 
ATOM      7  C   UNL     1       5.171   5.847  18.383  0.00  0.00    +0.000 C 
BRANCH   5   8
ATOM      8  C   UNL     1       3.524   3.864  16.594  0.00  0.00    +0.000 C 
BRANCH   8   9
ATOM      9  C   UNL     1       2.782   3.478  17.861  0.00  0.00    +0.000 A 
ATOM     10  C   UNL     1       1.919   4.391  18.489  0.00  0.00    +0.000 A 
ATOM     11  C   UNL     1       1.367   4.095  19.738  0.00  0.00    +0.000 A 
ATOM     12  C   UNL     1       1.652   2.877  20.349  0.00  0.00    +0.000 A 
ATOM     13 CL   UNL     1       1.023   2.535  21.914  0.00  0.00    +0.000 Cl
ATOM     14  C   UNL     1       2.464   1.939  19.713  0.00  0.00    +0.000 A 
ATOM     15  C   UNL     1       3.026   2.238  18.471  0.00  0.00    +0.000 A 
ENDBRANCH   8   9
ENDBRANCH   5   8
ENDBRANCH   1   2
BRANCH   1  16
ATOM     16  C   UNL     1       7.788   8.313  17.541  0.00  0.00    +0.000 C 
BRANCH  16  17
ATOM     17  C   UNL     1       8.715   8.813  18.661  0.00  0.00    +0.000 C 
BRANCH  17  19
ATOM     18  O   UNL     1       8.265  10.931  17.642  0.00  0.00    +0.000 OA
ATOM     19  C   UNL     1       8.992  10.289  18.398  0.00  0.00    +0.000 C 
ATOM     20  N   UNL     1      10.104  10.814  19.033  0.00  0.00    +0.000 N 
ATOM     21  H   UNL     1      10.817  10.173  19.367  0.00  0.00    +0.000 HD
BRANCH  20  22
ATOM     22  C   UNL     1      10.468  12.176  18.943  0.00  0.00    +0.000 A 
ATOM     23  C   UNL     1       9.736  13.117  18.201  0.00  0.00    +0.000 A 
ATOM     24  C   UNL     1      10.197  14.418  18.022  0.00  0.00    +0.000 A 
ATOM     25  C   UNL     1      11.391  14.802  18.616  0.00  0.00    +0.000 A 
ATOM     26  F   UNL     1      11.860  16.040  18.413  0.00  0.00    +0.000 F 
ATOM     27  C   UNL     1      12.096  13.925  19.434  0.00  0.00    +0.000 A 
ATOM     28  C   UNL     1      11.631  12.625  19.594  0.00  0.00    +0.000 A 
ATOM     29  F   UNL     1      12.333  11.769  20.352  0.00  0.00    +0.000 F 
ENDBRANCH  20  22
ENDBRANCH  17  19
ENDBRANCH  16  17
ENDBRANCH   1  16
TORSDOF 7
ENDMDL
MODEL 7
REMARK VINA RESULT:      -7.1      1.207      1.558
REMARK  Name = 
REMARK  7 active torsions:
REMARK  status: ('A' for Active; 'I' for Inactive)
REMARK    1  A    between atoms: C_2  and  C_3
REMARK    2  A    between atoms: C_3  and  C_4
REMARK    3  A    between atoms: C_4  and  C_5
REMARK    4  A    between atoms: C_5  and  N_6
REMARK    5  A    between atoms: N_9  and  C_10
REMARK    6  A    between atoms: C_10  and  C_11
REMARK    7  A    between atoms: N_20  and  C_21
REMARK                            x       y       z     vdW  Elec       q    Type
REMARK                         _______ _______ _______ _____ _____    ______ ____
ROOT
ATOM      1  C   UNL     1       7.842   6.756  16.732  0.00  0.00    +0.000 C 
ENDROOT
BRANCH   1   2
ATOM      2  N   UNL     1       7.468   5.359  16.986  0.00  0.00    +0.000 NA
ATOM      3  C   UNL     1       6.493   5.189  18.085  0.00  0.00    +0.000 C 
ATOM      4  C   UNL     1       5.016   5.488  17.737  0.00  0.00    +0.000 C 
ATOM      5  N   UNL     1       4.507   4.797  16.531  0.00  0.00    +0.000 NA
ATOM      6  C   UNL     1       5.452   5.044  15.425  0.00  0.00    +0.000 C 
ATOM      7  C   UNL     1       6.935   4.731  15.753  0.00  0.00    +0.000 C 
BRANCH   5   8
ATOM      8  C   UNL     1       4.297   3.352  16.747  0.00  0.00    +0.000 C 
BRANCH   8   9
ATOM      9  C   UNL     1       3.476   3.067  17.992  0.00  0.00    +0.000 A 
ATOM     10  C   UNL     1       2.104   3.360  18.024  0.00  0.00    +0.000 A 
ATOM     11  C   UNL     1       1.387   3.251  19.218  0.00  0.00    +0.000 A 
ATOM     12  C   UNL     1       2.032   2.824  20.376  0.00  0.00    +0.000 A 
ATOM     13 CL   UNL     1       1.167   2.748  21.861  0.00  0.00    +0.000 Cl
ATOM     14  C   UNL     1       3.382   2.480  20.346  0.00  0.00    +0.000 A 
ATOM     15  C   UNL     1       4.102   2.599  19.157  0.00  0.00    +0.000 A 
ENDBRANCH   8   9
ENDBRANCH   5   8
ENDBRANCH   1   2
BRANCH   1  16
ATOM     16  C   UNL     1       7.471   7.743  17.838  0.00  0.00    +0.000 C 
BRANCH  16  17
ATOM     17  C   UNL     1       8.624   8.327  18.669  0.00  0.00    +0.000 C 
BRANCH  17  19
ATOM     18  O   UNL     1       7.890  10.337  17.596  0.00  0.00    +0.000 OA
ATOM     19  C   UNL     1       8.634   9.835  18.435  0.00  0.00    +0.000 C 
ATOM     20  N   UNL     1       9.538  10.554  19.198  0.00  0.00    +0.000 N 
ATOM     21  H   UNL     1      10.318  10.059  19.617  0.00  0.00    +0.000 HD
BRANCH  20  22
ATOM     22  C   UNL     1       9.635  11.963  19.148  0.00  0.00    +0.000 A 
ATOM     23  C   UNL     1       8.957  12.809  20.040  0.00  0.00    +0.000 A 
ATOM     24  C   UNL     1       8.964  14.191  19.877  0.00  0.00    +0.000 A 
ATOM     25  C   UNL     1       9.685  14.746  18.829  0.00  0.00    +0.000 A 
ATOM     26  F   UNL     1       9.661  16.073  18.644  0.00  0.00    +0.000 F 
ATOM     27  C   UNL     1      10.443  13.947  17.981  0.00  0.00    +0.000 A 
ATOM     28  C   UNL     1      10.415  12.566  18.146  0.00  0.00    +0.000 A 
ATOM     29  F   UNL     1      11.117  11.794  17.303  0.00  0.00    +0.000 F 
ENDBRANCH  20  22
ENDBRANCH  17  19
ENDBRANCH  16  17
ENDBRANCH   1  16
TORSDOF 7
ENDMDL
MODEL 8
REMARK VINA RESULT:      -7.1      1.220      1.793
REMARK  Name = 
REMARK  7 active torsions:
REMARK  status: ('A' for Active; 'I' for Inactive)
REMARK    1  A    between atoms: C_2  and  C_3
REMARK    2  A    between atoms: C_3  and  C_4
REMARK    3  A    between atoms: C_4  and  C_5
REMARK    4  A    between atoms: C_5  and  N_6
REMARK    5  A    between atoms: N_9  and  C_10
REMARK    6  A    between atoms: C_10  and  C_11
REMARK    7  A    between atoms: N_20  and  C_21
REMARK                            x       y       z     vdW  Elec       q    Type
REMARK                         _______ _______ _______ _____ _____    ______ ____
ROOT
ATOM      1  C   UNL     1       7.761   7.585  17.499  0.00  0.00    +0.000 C 
ENDROOT
BRANCH   1   2
ATOM      2  N   UNL     1       6.366   7.246  17.190  0.00  0.00    +0.000 NA
ATOM      3  C   UNL     1       6.189   6.563  15.891  0.00  0.00    +0.000 C 
ATOM      4  C   UNL     1       6.530   5.054  15.861  0.00  0.00    +0.000 C 
ATOM      5  N   UNL     1       5.883   4.249  16.921  0.00  0.00    +0.000 NA
ATOM      6  C   UNL     1       6.138   4.902  18.218  0.00  0.00    +0.000 C 
ATOM      7  C   UNL     1       5.784   6.411  18.268  0.00  0.00    +0.000 C 
BRANCH   5   8
ATOM      8  C   UNL     1       4.437   4.057  16.690  0.00  0.00    +0.000 C 
BRANCH   8   9
ATOM      9  C   UNL     1       3.678   3.788  17.977  0.00  0.00    +0.000 A 
ATOM     10  C   UNL     1       3.957   2.647  18.745  0.00  0.00    +0.000 A 
ATOM     11  C   UNL     1       3.150   2.316  19.837  0.00  0.00    +0.000 A 
ATOM     12  C   UNL     1       2.079   3.137  20.179  0.00  0.00    +0.000 A 
ATOM     13 CL   UNL     1       1.047   2.700  21.484  0.00  0.00    +0.000 Cl
ATOM     14  C   UNL     1       1.822   4.302  19.457  0.00  0.00    +0.000 A 
ATOM     15  C   UNL     1       2.621   4.627  18.360  0.00  0.00    +0.000 A 
ENDBRANCH   8   9
ENDBRANCH   5   8
ENDBRANCH   1   2
BRANCH   1  16
ATOM     16  C   UNL     1       8.033   9.068  17.746  0.00  0.00    +0.000 C 
BRANCH  16  17
ATOM     17  C   UNL     1       9.020   9.421  18.869  0.00  0.00    +0.000 C 
BRANCH  17  19
ATOM     18  O   UNL     1       9.194  11.463  20.104  0.00  0.00    +0.000 OA
ATOM     19  C   UNL     1       9.035  10.940  19.004  0.00  0.00    +0.000 C 
ATOM     20  N   UNL     1       8.830  11.648  17.832  0.00  0.00    +0.000 N 
ATOM     21  H   UNL     1       8.396  11.171  17.048  0.00  0.00    +0.000 HD
BRANCH  20  22
ATOM     22  C   UNL     1       8.872  13.059  17.771  0.00  0.00    +0.000 A 
ATOM     23  C   UNL     1      10.062  13.796  17.893  0.00  0.00    +0.000 A 
ATOM     24  C   UNL     1      10.050  15.186  17.966  0.00  0.00    +0.000 A 
ATOM     25  C   UNL     1       8.839  15.859  17.884  0.00  0.00    +0.000 A 
ATOM     26  F   UNL     1       8.819  17.194  17.995  0.00  0.00    +0.000 F 
ATOM     27  C   UNL     1       7.651  15.169  17.670  0.00  0.00    +0.000 A 
ATOM     28  C   UNL     1       7.675  13.779  17.613  0.00  0.00    +0.000 A 
ATOM     29  F   UNL     1       6.523  13.113  17.445  0.00  0.00    +0.000 F 
ENDBRANCH  20  22
ENDBRANCH  17  19
ENDBRANCH  16  17
ENDBRANCH   1  16
TORSDOF 7
ENDMDL
MODEL 9
REMARK VINA RESULT:      -7.0      6.196      7.778
REMARK  Name = 
REMARK  7 active torsions:
REMARK  status: ('A' for Active; 'I' for Inactive)
REMARK    1  A    between atoms: C_2  and  C_3
REMARK    2  A    between atoms: C_3  and  C_4
REMARK    3  A    between atoms: C_4  and  C_5
REMARK    4  A    between atoms: C_5  and  N_6
REMARK    5  A    between atoms: N_9  and  C_10
REMARK    6  A    between atoms: C_10  and  C_11
REMARK    7  A    between atoms: N_20  and  C_21
REMARK                            x       y       z     vdW  Elec       q    Type
REMARK                         _______ _______ _______ _____ _____    ______ ____
ROOT
ATOM      1  C   UNL     1       1.889   5.953  20.758  0.00  0.00    +0.000 C 
ENDROOT
BRANCH   1   2
ATOM      2  N   UNL     1       1.850   5.177  19.512  0.00  0.00    +0.000 NA
ATOM      3  C   UNL     1       2.465   5.865  18.357  0.00  0.00    +0.000 C 
ATOM      4  C   UNL     1       4.011   5.836  18.290  0.00  0.00    +0.000 C 
ATOM      5  N   UNL     1       4.615   4.493  18.427  0.00  0.00    +0.000 NA
ATOM      6  C   UNL     1       4.049   3.852  19.630  0.00  0.00    +0.000 C 
ATOM      7  C   UNL     1       2.500   3.858  19.702  0.00  0.00    +0.000 C 
BRANCH   5   8
ATOM      8  C   UNL     1       4.420   3.653  17.229  0.00  0.00    +0.000 C 
BRANCH   8   9
ATOM      9  C   UNL     1       5.415   3.978  16.129  0.00  0.00    +0.000 A 
ATOM     10  C   UNL     1       6.672   4.519  16.440  0.00  0.00    +0.000 A 
ATOM     11  C   UNL     1       7.519   4.968  15.424  0.00  0.00    +0.000 A 
ATOM     12  C   UNL     1       7.124   4.854  14.093  0.00  0.00    +0.000 A 
ATOM     13 CL   UNL     1       8.138   5.461  12.843  0.00  0.00    +0.000 Cl
ATOM     14  C   UNL     1       5.901   4.270  13.767  0.00  0.00    +0.000 A 
ATOM     15  C   UNL     1       5.050   3.831  14.782  0.00  0.00    +0.000 A 
ENDBRANCH   8   9
ENDBRANCH   5   8
ENDBRANCH   1   2
BRANCH   1  16
ATOM     16  C   UNL     1       1.671   7.457  20.597  0.00  0.00    +0.000 C 
BRANCH  16  17
ATOM     17  C   UNL     1       0.506   8.082  21.380  0.00  0.00    +0.000 C 
BRANCH  17  19
ATOM     18  O   UNL     1       1.317  10.271  21.909  0.00  0.00    +0.000 OA
ATOM     19  C   UNL     1       0.587   9.593  21.188  0.00  0.00    +0.000 C 
ATOM     20  N   UNL     1      -0.222  10.117  20.195  0.00  0.00    +0.000 N 
ATOM     21  H   UNL     1      -1.010   9.565  19.873  0.00  0.00    +0.000 HD
BRANCH  20  22
ATOM     22  C   UNL     1      -0.223  11.487  19.849  0.00  0.00    +0.000 A 
ATOM     23  C   UNL     1      -1.130  12.412  20.389  0.00  0.00    +0.000 A 
ATOM     24  C   UNL     1      -1.193  13.723  19.925  0.00  0.00    +0.000 A 
ATOM     25  C   UNL     1      -0.319  14.131  18.928  0.00  0.00    +0.000 A 
ATOM     26  F   UNL     1      -0.403  15.380  18.449  0.00  0.00    +0.000 F 
ATOM     27  C   UNL     1       0.655  13.270  18.434  0.00  0.00    +0.000 A 
ATOM     28  C   UNL     1       0.698  11.959  18.897  0.00  0.00    +0.000 A 
ATOM     29  F   UNL     1       1.613  11.118  18.391  0.00  0.00    +0.000 F 
ENDBRANCH  20  22
ENDBRANCH  17  19
ENDBRANCH  16  17
ENDBRANCH   1  16
TORSDOF 7
ENDMDL
