MODEL 1
REMARK VINA RESULT:      -8.1      0.000      0.000
REMARK  Name = 
REMARK  3 active torsions:
REMARK  status: ('A' for Active; 'I' for Inactive)
REMARK    1  A    between atoms: C_2  and  C_14
REMARK    2  A    between atoms: N_3  and  C_4
REMARK    3  A    between atoms: C_9  and  C_10
REMARK                            x       y       z     vdW  Elec       q    Type
REMARK                         _______ _______ _______ _____ _____    ______ ____
ROOT
ATOM      1  O   UNL     1       5.440   3.634  18.770  0.00  0.00    +0.000 OA
ATOM      2  C   UNL     1       5.038   4.262  17.792  0.00  0.00    +0.000 C 
ATOM      3  N   UNL     1       3.703   4.399  17.460  0.00  0.00    +0.000 N 
ATOM      4  H   UNL     1       3.507   4.525  16.471  0.00  0.00    +0.000 HD
ENDROOT
BRANCH   2   5
ATOM      5  C   UNL     1       5.967   4.865  16.845  0.00  0.00    +0.000 A 
ATOM      6  C   UNL     1       6.956   5.853  17.042  0.00  0.00    +0.000 A 
ATOM      7  N   UNL     1       7.648   6.140  15.939  0.00  0.00    +0.000 NA
ATOM      8  N   UNL     1       7.134   5.321  14.987  0.00  0.00    +0.000 N 
ATOM      9  C   UNL     1       7.540   5.220  13.655  0.00  0.00    +0.000 A 
ATOM     10  C   UNL     1       6.929   4.359  12.823  0.00  0.00    +0.000 A 
ATOM     11  C   UNL     1       5.843   3.546  13.339  0.00  0.00    +0.000 A 
ATOM     12  C   UNL     1       5.445   3.632  14.622  0.00  0.00    +0.000 A 
ATOM     13  C   UNL     1       6.098   4.541  15.507  0.00  0.00    +0.000 A 
ENDBRANCH   2   5
BRANCH   3  14
ATOM     14  C   UNL     1       2.654   3.906  18.273  0.00  0.00    +0.000 A 
ATOM     15  C   UNL     1       2.185   2.596  18.079  0.00  0.00    +0.000 A 
ATOM     16  C   UNL     1       1.157   2.079  18.864  0.00  0.00    +0.000 A 
ATOM     17  C   UNL     1       0.578   2.867  19.852  0.00  0.00    +0.000 A 
ATOM     18  C   UNL     1       1.039   4.166  20.060  0.00  0.00    +0.000 A 
ATOM     19  C   UNL     1       2.090   4.700  19.283  0.00  0.00    +0.000 A 
BRANCH  19  20
ATOM     20  C   UNL     1       2.477   6.136  19.516  0.00  0.00    +0.000 C 
ATOM     21  F   UNL     1       2.269   6.950  18.438  0.00  0.00    +0.000 F 
ATOM     22  F   UNL     1       1.788   6.703  20.545  0.00  0.00    +0.000 F 
ATOM     23  F   UNL     1       3.797   6.278  19.824  0.00  0.00    +0.000 F 
ENDBRANCH  19  20
ENDBRANCH   3  14
TORSDOF 3
ENDMDL
MODEL 2
REMARK VINA RESULT:      -8.0      3.570      6.201
REMARK  Name = 
REMARK  3 active torsions:
REMARK  status: ('A' for Active; 'I' for Inactive)
REMARK    1  A    between atoms: C_2  and  C_14
REMARK    2  A    between atoms: N_3  and  C_4
REMARK    3  A    between atoms: C_9  and  C_10
REMARK                            x       y       z     vdW  Elec       q    Type
REMARK                         _______ _______ _______ _____ _____    ______ ____
ROOT
ATOM      1  O   UNL     1       4.038   6.408  19.276  0.00  0.00    +0.000 OA
ATOM      2  C   UNL     1       2.877   6.541  18.893  0.00  0.00    +0.000 C 
ATOM      3  N   UNL     1       2.089   5.498  18.444  0.00  0.00    +0.000 N 
ATOM      4  H   UNL     1       1.371   5.748  17.771  0.00  0.00    +0.000 HD
ENDROOT
BRANCH   2   5
ATOM      5  C   UNL     1       2.252   7.856  18.816  0.00  0.00    +0.000 A 
ATOM      6  C   UNL     1       2.191   8.776  17.747  0.00  0.00    +0.000 A 
ATOM      7  N   UNL     1       1.498   9.878  18.032  0.00  0.00    +0.000 NA
ATOM      8  N   UNL     1       1.066   9.694  19.305  0.00  0.00    +0.000 N 
ATOM      9  C   UNL     1       0.272  10.560  20.059  0.00  0.00    +0.000 A 
ATOM     10  C   UNL     1      -0.075  10.241  21.318  0.00  0.00    +0.000 A 
ATOM     11  C   UNL     1       0.396   8.985  21.871  0.00  0.00    +0.000 A 
ATOM     12  C   UNL     1       1.159   8.139  21.153  0.00  0.00    +0.000 A 
ATOM     13  C   UNL     1       1.522   8.475  19.814  0.00  0.00    +0.000 A 
ENDBRANCH   2   5
BRANCH   3  14
ATOM     14  C   UNL     1       2.513   4.148  18.470  0.00  0.00    +0.000 A 
ATOM     15  C   UNL     1       3.172   3.608  17.353  0.00  0.00    +0.000 A 
ATOM     16  C   UNL     1       3.605   2.283  17.348  0.00  0.00    +0.000 A 
ATOM     17  C   UNL     1       3.382   1.478  18.458  0.00  0.00    +0.000 A 
ATOM     18  C   UNL     1       2.736   2.004  19.576  0.00  0.00    +0.000 A 
ATOM     19  C   UNL     1       2.303   3.348  19.604  0.00  0.00    +0.000 A 
BRANCH  19  20
ATOM     20  C   UNL     1       1.545   3.817  20.816  0.00  0.00    +0.000 C 
ATOM     21  F   UNL     1       2.230   4.712  21.589  0.00  0.00    +0.000 F 
ATOM     22  F   UNL     1       0.371   4.430  20.495  0.00  0.00    +0.000 F 
ATOM     23  F   UNL     1       1.217   2.795  21.656  0.00  0.00    +0.000 F 
ENDBRANCH  19  20
ENDBRANCH   3  14
TORSDOF 3
ENDMDL
MODEL 3
REMARK VINA RESULT:      -7.8      1.403      1.566
REMARK  Name = 
REMARK  3 active torsions:
REMARK  status: ('A' for Active; 'I' for Inactive)
REMARK    1  A    between atoms: C_2  and  C_14
REMARK    2  A    between atoms: N_3  and  C_4
REMARK    3  A    between atoms: C_9  and  C_10
REMARK                            x       y       z     vdW  Elec       q    Type
REMARK                         _______ _______ _______ _____ _____    ______ ____
ROOT
ATOM      1  O   UNL     1       3.597   3.756  16.519  0.00  0.00    +0.000 OA
ATOM      2  C   UNL     1       4.593   4.303  16.988  0.00  0.00    +0.000 C 
ATOM      3  N   UNL     1       4.751   4.599  18.329  0.00  0.00    +0.000 N 
ATOM      4  H   UNL     1       5.344   5.397  18.536  0.00  0.00    +0.000 HD
ENDROOT
BRANCH   2   5
ATOM      5  C   UNL     1       5.681   4.755  16.131  0.00  0.00    +0.000 A 
ATOM      6  C   UNL     1       6.782   5.591  16.419  0.00  0.00    +0.000 A 
ATOM      7  N   UNL     1       7.604   5.764  15.383  0.00  0.00    +0.000 NA
ATOM      8  N   UNL     1       7.063   5.020  14.386  0.00  0.00    +0.000 N 
ATOM      9  C   UNL     1       7.567   4.848  13.096  0.00  0.00    +0.000 A 
ATOM     10  C   UNL     1       6.913   4.077  12.209  0.00  0.00    +0.000 A 
ATOM     11  C   UNL     1       5.679   3.436  12.623  0.00  0.00    +0.000 A 
ATOM     12  C   UNL     1       5.185   3.590  13.865  0.00  0.00    +0.000 A 
ATOM     13  C   UNL     1       5.883   4.404  14.809  0.00  0.00    +0.000 A 
ENDBRANCH   2   5
BRANCH   3  14
ATOM     14  C   UNL     1       3.813   4.213  19.317  0.00  0.00    +0.000 A 
ATOM     15  C   UNL     1       3.937   2.958  19.936  0.00  0.00    +0.000 A 
ATOM     16  C   UNL     1       3.033   2.550  20.915  0.00  0.00    +0.000 A 
ATOM     17  C   UNL     1       1.988   3.389  21.286  0.00  0.00    +0.000 A 
ATOM     18  C   UNL     1       1.859   4.640  20.684  0.00  0.00    +0.000 A 
ATOM     19  C   UNL     1       2.775   5.075  19.701  0.00  0.00    +0.000 A 
BRANCH  19  20
ATOM     20  C   UNL     1       2.521   6.406  19.045  0.00  0.00    +0.000 C 
ATOM     21  F   UNL     1       3.658   7.098  18.733  0.00  0.00    +0.000 F 
ATOM     22  F   UNL     1       1.829   6.290  17.877  0.00  0.00    +0.000 F 
ATOM     23  F   UNL     1       1.793   7.247  19.831  0.00  0.00    +0.000 F 
ENDBRANCH  19  20
ENDBRANCH   3  14
TORSDOF 3
ENDMDL
MODEL 4
REMARK VINA RESULT:      -7.8      1.929      2.524
REMARK  Name = 
REMARK  3 active torsions:
REMARK  status: ('A' for Active; 'I' for Inactive)
REMARK    1  A    between atoms: C_2  and  C_14
REMARK    2  A    between atoms: N_3  and  C_4
REMARK    3  A    between atoms: C_9  and  C_10
REMARK                            x       y       z     vdW  Elec       q    Type
REMARK                         _______ _______ _______ _____ _____    ______ ____
ROOT
ATOM      1  O   UNL     1       5.652   4.148  19.146  0.00  0.00    +0.000 OA
ATOM      2  C   UNL     1       5.234   4.802  18.193  0.00  0.00    +0.000 C 
ATOM      3  N   UNL     1       3.899   5.093  17.983  0.00  0.00    +0.000 N 
ATOM      4  H   UNL     1       3.624   5.224  17.014  0.00  0.00    +0.000 HD
ENDROOT
BRANCH   2   5
ATOM      5  C   UNL     1       6.132   5.273  17.146  0.00  0.00    +0.000 A 
ATOM      6  C   UNL     1       7.172   6.227  17.197  0.00  0.00    +0.000 A 
ATOM      7  N   UNL     1       7.811   6.380  16.038  0.00  0.00    +0.000 NA
ATOM      8  N   UNL     1       7.210   5.504  15.194  0.00  0.00    +0.000 N 
ATOM      9  C   UNL     1       7.534   5.263  13.858  0.00  0.00    +0.000 A 
ATOM     10  C   UNL     1       6.841   4.360  13.143  0.00  0.00    +0.000 A 
ATOM     11  C   UNL     1       5.753   3.650  13.789  0.00  0.00    +0.000 A 
ATOM     12  C   UNL     1       5.433   3.870  15.078  0.00  0.00    +0.000 A 
ATOM     13  C   UNL     1       6.173   4.824  15.839  0.00  0.00    +0.000 A 
ENDBRANCH   2   5
BRANCH   3  14
ATOM     14  C   UNL     1       2.882   4.743  18.905  0.00  0.00    +0.000 A 
ATOM     15  C   UNL     1       2.559   5.627  19.948  0.00  0.00    +0.000 A 
ATOM     16  C   UNL     1       1.561   5.314  20.868  0.00  0.00    +0.000 A 
ATOM     17  C   UNL     1       0.874   4.110  20.763  0.00  0.00    +0.000 A 
ATOM     18  C   UNL     1       1.180   3.228  19.727  0.00  0.00    +0.000 A 
ATOM     19  C   UNL     1       2.178   3.536  18.777  0.00  0.00    +0.000 A 
BRANCH  19  20
ATOM     20  C   UNL     1       2.503   2.497  17.737  0.00  0.00    +0.000 C 
ATOM     21  F   UNL     1       3.737   1.929  17.884  0.00  0.00    +0.000 F 
ATOM     22  F   UNL     1       1.618   1.461  17.738  0.00  0.00    +0.000 F 
ATOM     23  F   UNL     1       2.488   3.002  16.472  0.00  0.00    +0.000 F 
ENDBRANCH  19  20
ENDBRANCH   3  14
TORSDOF 3
ENDMDL
MODEL 5
REMARK VINA RESULT:      -7.8      1.890      2.162
REMARK  Name = 
REMARK  3 active torsions:
REMARK  status: ('A' for Active; 'I' for Inactive)
REMARK    1  A    between atoms: C_2  and  C_14
REMARK    2  A    between atoms: N_3  and  C_4
REMARK    3  A    between atoms: C_9  and  C_10
REMARK                            x       y       z     vdW  Elec       q    Type
REMARK                         _______ _______ _______ _____ _____    ______ ____
ROOT
ATOM      1  O   UNL     1       4.890   5.507  19.535  0.00  0.00    +0.000 OA
ATOM      2  C   UNL     1       5.062   4.574  18.753  0.00  0.00    +0.000 C 
ATOM      3  N   UNL     1       4.324   3.405  18.773  0.00  0.00    +0.000 N 
ATOM      4  H   UNL     1       4.801   2.578  18.427  0.00  0.00    +0.000 HD
ENDROOT
BRANCH   2   5
ATOM      5  C   UNL     1       6.132   4.603  17.764  0.00  0.00    +0.000 A 
ATOM      6  C   UNL     1       7.533   4.653  17.937  0.00  0.00    +0.000 A 
ATOM      7  N   UNL     1       8.212   4.633  16.790  0.00  0.00    +0.000 NA
ATOM      8  N   UNL     1       7.259   4.549  15.827  0.00  0.00    +0.000 N 
ATOM      9  C   UNL     1       7.460   4.474  14.448  0.00  0.00    +0.000 A 
ATOM     10  C   UNL     1       6.410   4.398  13.612  0.00  0.00    +0.000 A 
ATOM     11  C   UNL     1       5.072   4.400  14.175  0.00  0.00    +0.000 A 
ATOM     12  C   UNL     1       4.865   4.469  15.503  0.00  0.00    +0.000 A 
ATOM     13  C   UNL     1       5.981   4.543  16.391  0.00  0.00    +0.000 A 
ENDBRANCH   2   5
BRANCH   3  14
ATOM     14  C   UNL     1       3.226   3.204  19.644  0.00  0.00    +0.000 A 
ATOM     15  C   UNL     1       3.448   2.684  20.930  0.00  0.00    +0.000 A 
ATOM     16  C   UNL     1       2.389   2.479  21.812  0.00  0.00    +0.000 A 
ATOM     17  C   UNL     1       1.091   2.785  21.419  0.00  0.00    +0.000 A 
ATOM     18  C   UNL     1       0.859   3.309  20.148  0.00  0.00    +0.000 A 
ATOM     19  C   UNL     1       1.922   3.538  19.247  0.00  0.00    +0.000 A 
BRANCH  19  20
ATOM     20  C   UNL     1       1.579   4.032  17.868  0.00  0.00    +0.000 C 
ATOM     21  F   UNL     1       0.249   3.959  17.565  0.00  0.00    +0.000 F 
ATOM     22  F   UNL     1       1.930   5.334  17.675  0.00  0.00    +0.000 F 
ATOM     23  F   UNL     1       2.210   3.325  16.888  0.00  0.00    +0.000 F 
ENDBRANCH  19  20
ENDBRANCH   3  14
TORSDOF 3
ENDMDL
MODEL 6
REMARK VINA RESULT:      -7.5      2.252      2.732
REMARK  Name = 
REMARK  3 active torsions:
REMARK  status: ('A' for Active; 'I' for Inactive)
REMARK    1  A    between atoms: C_2  and  C_14
REMARK    2  A    between atoms: N_3  and  C_4
REMARK    3  A    between atoms: C_9  and  C_10
REMARK                            x       y       z     vdW  Elec       q    Type
REMARK                         _______ _______ _______ _____ _____    ______ ____
ROOT
ATOM      1  O   UNL     1       3.304   6.205  17.771  0.00  0.00    +0.000 OA
ATOM      2  C   UNL     1       4.277   5.454  17.810  0.00  0.00    +0.000 C 
ATOM      3  N   UNL     1       4.372   4.360  18.650  0.00  0.00    +0.000 N 
ATOM      4  H   UNL     1       5.314   4.097  18.924  0.00  0.00    +0.000 HD
ENDROOT
BRANCH   2   5
ATOM      5  C   UNL     1       5.463   5.709  17.003  0.00  0.00    +0.000 A 
ATOM      6  C   UNL     1       6.589   6.519  17.267  0.00  0.00    +0.000 A 
ATOM      7  N   UNL     1       7.507   6.486  16.301  0.00  0.00    +0.000 NA
ATOM      8  N   UNL     1       7.005   5.627  15.378  0.00  0.00    +0.000 N 
ATOM      9  C   UNL     1       7.605   5.231  14.182  0.00  0.00    +0.000 A 
ATOM     10  C   UNL     1       6.980   4.369  13.362  0.00  0.00    +0.000 A 
ATOM     11  C   UNL     1       5.674   3.866  13.746  0.00  0.00    +0.000 A 
ATOM     12  C   UNL     1       5.086   4.237  14.899  0.00  0.00    +0.000 A 
ATOM     13  C   UNL     1       5.753   5.147  15.773  0.00  0.00    +0.000 A 
ENDBRANCH   2   5
BRANCH   3  14
ATOM     14  C   UNL     1       3.311   3.938  19.487  0.00  0.00    +0.000 A 
ATOM     15  C   UNL     1       3.167   4.507  20.763  0.00  0.00    +0.000 A 
ATOM     16  C   UNL     1       2.131   4.117  21.609  0.00  0.00    +0.000 A 
ATOM     17  C   UNL     1       1.227   3.146  21.194  0.00  0.00    +0.000 A 
ATOM     18  C   UNL     1       1.354   2.579  19.927  0.00  0.00    +0.000 A 
ATOM     19  C   UNL     1       2.389   2.973  19.051  0.00  0.00    +0.000 A 
BRANCH  19  20
ATOM     20  C   UNL     1       2.505   2.257  17.732  0.00  0.00    +0.000 C 
ATOM     21  F   UNL     1       3.685   1.588  17.564  0.00  0.00    +0.000 F 
ATOM     22  F   UNL     1       1.526   1.328  17.553  0.00  0.00    +0.000 F 
ATOM     23  F   UNL     1       2.419   3.104  16.668  0.00  0.00    +0.000 F 
ENDBRANCH  19  20
ENDBRANCH   3  14
TORSDOF 3
ENDMDL
MODEL 7
REMARK VINA RESULT:      -7.4      1.323      1.561
REMARK  Name = 
REMARK  3 active torsions:
REMARK  status: ('A' for Active; 'I' for Inactive)
REMARK    1  A    between atoms: C_2  and  C_14
REMARK    2  A    between atoms: N_3  and  C_4
REMARK    3  A    between atoms: C_9  and  C_10
REMARK                            x       y       z     vdW  Elec       q    Type
REMARK                         _______ _______ _______ _____ _____    ______ ____
ROOT
ATOM      1  O   UNL     1       6.197   4.911  19.931  0.00  0.00    +0.000 OA
ATOM      2  C   UNL     1       5.656   4.894  18.827  0.00  0.00    +0.000 C 
ATOM      3  N   UNL     1       4.386   4.399  18.599  0.00  0.00    +0.000 N 
ATOM      4  H   UNL     1       4.219   4.030  17.667  0.00  0.00    +0.000 HD
ENDROOT
BRANCH   2   5
ATOM      5  C   UNL     1       6.360   5.343  17.633  0.00  0.00    +0.000 A 
ATOM      6  C   UNL     1       7.326   6.360  17.471  0.00  0.00    +0.000 A 
ATOM      7  N   UNL     1       7.781   6.470  16.223  0.00  0.00    +0.000 NA
ATOM      8  N   UNL     1       7.128   5.500  15.532  0.00  0.00    +0.000 N 
ATOM      9  C   UNL     1       7.275   5.186  14.181  0.00  0.00    +0.000 A 
ATOM     10  C   UNL     1       6.552   4.194  13.633  0.00  0.00    +0.000 A 
ATOM     11  C   UNL     1       5.620   3.466  14.474  0.00  0.00    +0.000 A 
ATOM     12  C   UNL     1       5.473   3.756  15.780  0.00  0.00    +0.000 A 
ATOM     13  C   UNL     1       6.245   4.806  16.364  0.00  0.00    +0.000 A 
ENDBRANCH   2   5
BRANCH   3  14
ATOM     14  C   UNL     1       3.539   3.945  19.638  0.00  0.00    +0.000 A 
ATOM     15  C   UNL     1       3.691   2.640  20.134  0.00  0.00    +0.000 A 
ATOM     16  C   UNL     1       2.876   2.164  21.160  0.00  0.00    +0.000 A 
ATOM     17  C   UNL     1       1.894   2.985  21.701  0.00  0.00    +0.000 A 
ATOM     18  C   UNL     1       1.738   4.285  21.223  0.00  0.00    +0.000 A 
ATOM     19  C   UNL     1       2.565   4.788  20.194  0.00  0.00    +0.000 A 
BRANCH  19  20
ATOM     20  C   UNL     1       2.282   6.174  19.680  0.00  0.00    +0.000 C 
ATOM     21  F   UNL     1       1.349   6.858  20.408  0.00  0.00    +0.000 F 
ATOM     22  F   UNL     1       3.392   6.965  19.668  0.00  0.00    +0.000 F 
ATOM     23  F   UNL     1       1.809   6.172  18.402  0.00  0.00    +0.000 F 
ENDBRANCH  19  20
ENDBRANCH   3  14
TORSDOF 3
ENDMDL
MODEL 8
REMARK VINA RESULT:      -7.4      3.563      6.542
REMARK  Name = 
REMARK  3 active torsions:
REMARK  status: ('A' for Active; 'I' for Inactive)
REMARK    1  A    between atoms: C_2  and  C_14
REMARK    2  A    between atoms: N_3  and  C_4
REMARK    3  A    between atoms: C_9  and  C_10
REMARK                            x       y       z     vdW  Elec       q    Type
REMARK                         _______ _______ _______ _____ _____    ______ ____
ROOT
ATOM      1  O   UNL     1       2.705   6.363  20.241  0.00  0.00    +0.000 OA
ATOM      2  C   UNL     1       2.303   6.800  19.165  0.00  0.00    +0.000 C 
ATOM      3  N   UNL     1       2.201   6.040  18.014  0.00  0.00    +0.000 N 
ATOM      4  H   UNL     1       2.296   6.550  17.141  0.00  0.00    +0.000 HD
ENDROOT
BRANCH   2   5
ATOM      5  C   UNL     1       1.961   8.207  18.999  0.00  0.00    +0.000 A 
ATOM      6  C   UNL     1       2.209   9.085  17.922  0.00  0.00    +0.000 A 
ATOM      7  N   UNL     1       1.717  10.310  18.110  0.00  0.00    +0.000 NA
ATOM      8  N   UNL     1       1.110  10.255  19.322  0.00  0.00    +0.000 N 
ATOM      9  C   UNL     1       0.417  11.283  19.964  0.00  0.00    +0.000 A 
ATOM     10  C   UNL     1      -0.132  11.078  21.174  0.00  0.00    +0.000 A 
ATOM     11  C   UNL     1       0.014   9.774  21.792  0.00  0.00    +0.000 A 
ATOM     12  C   UNL     1       0.676   8.773  21.182  0.00  0.00    +0.000 A 
ATOM     13  C   UNL     1       1.254   8.988  19.894  0.00  0.00    +0.000 A 
ENDBRANCH   2   5
BRANCH   3  14
ATOM     14  C   UNL     1       2.462   4.648  17.986  0.00  0.00    +0.000 A 
ATOM     15  C   UNL     1       1.463   3.748  18.391  0.00  0.00    +0.000 A 
ATOM     16  C   UNL     1       1.687   2.373  18.371  0.00  0.00    +0.000 A 
ATOM     17  C   UNL     1       2.916   1.878  17.951  0.00  0.00    +0.000 A 
ATOM     18  C   UNL     1       3.914   2.761  17.540  0.00  0.00    +0.000 A 
ATOM     19  C   UNL     1       3.698   4.156  17.540  0.00  0.00    +0.000 A 
BRANCH  19  20
ATOM     20  C   UNL     1       4.851   5.045  17.156  0.00  0.00    +0.000 C 
ATOM     21  F   UNL     1       5.295   5.848  18.169  0.00  0.00    +0.000 F 
ATOM     22  F   UNL     1       5.940   4.340  16.740  0.00  0.00    +0.000 F 
ATOM     23  F   UNL     1       4.540   5.893  16.135  0.00  0.00    +0.000 F 
ENDBRANCH  19  20
ENDBRANCH   3  14
TORSDOF 3
ENDMDL
MODEL 9
REMARK VINA RESULT:      -7.2      4.274      7.239
REMARK  Name = 
REMARK  3 active torsions:
REMARK  status: ('A' for Active; 'I' for Inactive)
REMARK    1  A    between atoms: C_2  and  C_14
REMARK    2  A    between atoms: N_3  and  C_4
REMARK    3  A    between atoms: C_9  and  C_10
REMARK                            x       y       z     vdW  Elec       q    Type
REMARK                         _______ _______ _______ _____ _____    ______ ____
ROOT
ATOM      1  O   UNL     1       2.218   7.698  18.678  0.00  0.00    +0.000 OA
ATOM      2  C   UNL     1       2.028   7.536  19.883  0.00  0.00    +0.000 C 
ATOM      3  N   UNL     1       2.363   6.382  20.567  0.00  0.00    +0.000 N 
ATOM      4  H   UNL     1       1.796   6.176  21.385  0.00  0.00    +0.000 HD
ENDROOT
BRANCH   2   5
ATOM      5  C   UNL     1       1.354   8.548  20.685  0.00  0.00    +0.000 A 
ATOM      6  C   UNL     1       1.395   8.786  22.076  0.00  0.00    +0.000 A 
ATOM      7  N   UNL     1       0.666   9.835  22.459  0.00  0.00    +0.000 NA
ATOM      8  N   UNL     1       0.139  10.326  21.308  0.00  0.00    +0.000 N 
ATOM      9  C   UNL     1      -0.684  11.444  21.170  0.00  0.00    +0.000 A 
ATOM     10  C   UNL     1      -1.134  11.809  19.957  0.00  0.00    +0.000 A 
ATOM     11  C   UNL     1      -0.749  11.016  18.805  0.00  0.00    +0.000 A 
ATOM     12  C   UNL     1       0.047   9.938  18.925  0.00  0.00    +0.000 A 
ATOM     13  C   UNL     1       0.531   9.553  20.212  0.00  0.00    +0.000 A 
ENDBRANCH   2   5
BRANCH   3  14
ATOM     14  C   UNL     1       3.049   5.301  19.963  0.00  0.00    +0.000 A 
ATOM     15  C   UNL     1       4.322   5.513  19.408  0.00  0.00    +0.000 A 
ATOM     16  C   UNL     1       5.025   4.469  18.810  0.00  0.00    +0.000 A 
ATOM     17  C   UNL     1       4.463   3.199  18.753  0.00  0.00    +0.000 A 
ATOM     18  C   UNL     1       3.204   2.974  19.308  0.00  0.00    +0.000 A 
ATOM     19  C   UNL     1       2.484   4.017  19.931  0.00  0.00    +0.000 A 
BRANCH  19  20
ATOM     20  C   UNL     1       1.099   3.712  20.435  0.00  0.00    +0.000 C 
ATOM     21  F   UNL     1       0.286   4.806  20.524  0.00  0.00    +0.000 F 
ATOM     22  F   UNL     1       0.437   2.825  19.641  0.00  0.00    +0.000 F 
ATOM     23  F   UNL     1       1.106   3.166  21.683  0.00  0.00    +0.000 F 
ENDBRANCH  19  20
ENDBRANCH   3  14
TORSDOF 3
ENDMDL
