MODEL 1
REMARK VINA RESULT:      -8.5      0.000      0.000
REMARK  Name = 
REMARK  9 active torsions:
REMARK  status: ('A' for Active; 'I' for Inactive)
REMARK    1  A    between atoms: C_1  and  O_2
REMARK    2  A    between atoms: O_2  and  C_3
REMARK    3  A    between atoms: C_6  and  C_7
REMARK    4  A    between atoms: C_7  and  N_8
REMARK    5  A    between atoms: C_9  and  C_11
REMARK    6  A    between atoms: C_13  and  C_14
REMARK    7  A    between atoms: C_24  and  O_25
REMARK    8  A    between atoms: C_27  and  O_28
REMARK    9  A    between atoms: C_29  and  O_30
REMARK                            x       y       z     vdW  Elec       q    Type
REMARK                         _______ _______ _______ _____ _____    ______ ____
ROOT
ATOM      1  C   UNL     1       1.563   8.872  19.087  0.00  0.00    +0.000 A 
ATOM      2  C   UNL     1       1.531   7.510  19.444  0.00  0.00    +0.000 A 
ATOM      3  C   UNL     1       2.321   6.517  18.795  0.00  0.00    +0.000 A 
ATOM      4  C   UNL     1       3.154   6.994  17.766  0.00  0.00    +0.000 A 
ATOM      5  C   UNL     1       3.199   8.345  17.400  0.00  0.00    +0.000 A 
ATOM      6  C   UNL     1       2.398   9.282  18.050  0.00  0.00    +0.000 A 
ENDROOT
BRANCH   3   7
ATOM      7  C   UNL     1       2.262   5.033  19.251  0.00  0.00    +0.000 C 
ATOM      8  C   UNL     1       3.670   4.466  19.651  0.00  0.00    +0.000 C 
ATOM      9  C   UNL     1       3.613   2.987  20.061  0.00  0.00    +0.000 C 
ATOM     10  C   UNL     1       2.693   2.840  21.278  0.00  0.00    +0.000 C 
ATOM     11  C   UNL     1       1.289   3.346  20.925  0.00  0.00    +0.000 C 
ATOM     12  C   UNL     1       0.739   2.510  19.757  0.00  0.00    +0.000 C 
ATOM     13  C   UNL     1       1.657   2.648  18.530  0.00  0.00    +0.000 C 
ATOM     14  C   UNL     1       3.066   2.165  18.888  0.00  0.00    +0.000 C 
ATOM     15  C   UNL     1       1.718   4.125  18.103  0.00  0.00    +0.000 C 
ATOM     16  C   UNL     1       1.360   4.833  20.511  0.00  0.00    +0.000 C 
ENDBRANCH   3   7
BRANCH   1  18
ATOM     17  N   UNL     1       0.050  10.783  19.069  0.00  0.00    +0.000 N 
ATOM     18  C   UNL     1       0.692   9.840  19.835  0.00  0.00    +0.000 C 
ATOM     19  O   UNL     1       0.578   9.771  21.048  0.00  0.00    +0.000 OA
ATOM     20  H   UNL     1       0.372  10.895  18.113  0.00  0.00    +0.000 HD
BRANCH  17  21
ATOM     21  C   UNL     1      -0.833  11.790  19.606  0.00  0.00    +0.000 C 
BRANCH  21  25
ATOM     22  C   UNL     1      -4.793  11.711  17.850  0.00  0.00    +0.000 A 
ATOM     23  C   UNL     1      -4.598  12.175  19.154  0.00  0.00    +0.000 A 
ATOM     24  C   UNL     1      -3.320  12.179  19.725  0.00  0.00    +0.000 A 
ATOM     25  C   UNL     1      -2.211  11.718  18.998  0.00  0.00    +0.000 A 
ATOM     26  C   UNL     1      -2.431  11.231  17.708  0.00  0.00    +0.000 A 
ATOM     27  C   UNL     1      -3.698  11.242  17.129  0.00  0.00    +0.000 A 
BRANCH  22  29
ATOM     28  C   UNL     1      -7.093  11.915  18.385  0.00  0.00    +0.000 C 
ATOM     29  O   UNL     1      -6.082  11.767  17.393  0.00  0.00    +0.000 OA
ENDBRANCH  22  29
BRANCH  26  30
ATOM     30  O   UNL     1      -1.426  10.727  16.932  0.00  0.00    +0.000 OA
ATOM     31  H   UNL     1      -1.500  11.138  16.043  0.00  0.00    +0.000 HD
ENDBRANCH  26  30
ENDBRANCH  21  25
ENDBRANCH  17  21
ENDBRANCH   1  18
BRANCH   4  32
ATOM     32  O   UNL     1       4.004   6.230  17.014  0.00  0.00    +0.000 OA
ATOM     33  H   UNL     1       4.646   6.783  16.555  0.00  0.00    +0.000 HD
ENDBRANCH   4  32
BRANCH   6  34
ATOM     34  O   UNL     1       2.443  10.589  17.641  0.00  0.00    +0.000 OA
ATOM     35  H   UNL     1       2.692  10.618  16.702  0.00  0.00    +0.000 HD
ENDBRANCH   6  34
TORSDOF 8
ENDMDL
MODEL 2
REMARK VINA RESULT:      -8.5      0.069      1.343
REMARK  Name = 
REMARK  9 active torsions:
REMARK  status: ('A' for Active; 'I' for Inactive)
REMARK    1  A    between atoms: C_1  and  O_2
REMARK    2  A    between atoms: O_2  and  C_3
REMARK    3  A    between atoms: C_6  and  C_7
REMARK    4  A    between atoms: C_7  and  N_8
REMARK    5  A    between atoms: C_9  and  C_11
REMARK    6  A    between atoms: C_13  and  C_14
REMARK    7  A    between atoms: C_24  and  O_25
REMARK    8  A    between atoms: C_27  and  O_28
REMARK    9  A    between atoms: C_29  and  O_30
REMARK                            x       y       z     vdW  Elec       q    Type
REMARK                         _______ _______ _______ _____ _____    ______ ____
ROOT
ATOM      1  C   UNL     1       1.549   8.877  19.036  0.00  0.00    +0.000 A 
ATOM      2  C   UNL     1       1.525   7.513  19.389  0.00  0.00    +0.000 A 
ATOM      3  C   UNL     1       2.334   6.529  18.748  0.00  0.00    +0.000 A 
ATOM      4  C   UNL     1       3.177   7.017  17.733  0.00  0.00    +0.000 A 
ATOM      5  C   UNL     1       3.215   8.371  17.372  0.00  0.00    +0.000 A 
ATOM      6  C   UNL     1       2.395   9.297  18.013  0.00  0.00    +0.000 A 
ENDROOT
BRANCH   3   7
ATOM      7  C   UNL     1       2.283   5.043  19.199  0.00  0.00    +0.000 C 
ATOM      8  C   UNL     1       1.769   4.085  18.067  0.00  0.00    +0.000 C 
ATOM      9  C   UNL     1       1.681   2.623  18.530  0.00  0.00    +0.000 C 
ATOM     10  C   UNL     1       3.076   2.144  18.944  0.00  0.00    +0.000 C 
ATOM     11  C   UNL     1       3.607   3.028  20.080  0.00  0.00    +0.000 C 
ATOM     12  C   UNL     1       2.648   2.926  21.278  0.00  0.00    +0.000 C 
ATOM     13  C   UNL     1       1.243   3.402  20.872  0.00  0.00    +0.000 C 
ATOM     14  C   UNL     1       0.720   2.536  19.722  0.00  0.00    +0.000 C 
ATOM     15  C   UNL     1       1.315   4.869  20.411  0.00  0.00    +0.000 C 
ATOM     16  C   UNL     1       3.688   4.495  19.603  0.00  0.00    +0.000 C 
ENDBRANCH   3   7
BRANCH   1  18
ATOM     17  N   UNL     1       0.073  10.816  19.012  0.00  0.00    +0.000 N 
ATOM     18  C   UNL     1       0.659   9.833  19.775  0.00  0.00    +0.000 C 
ATOM     19  O   UNL     1       0.482   9.723  20.978  0.00  0.00    +0.000 OA
ATOM     20  H   UNL     1       0.445  10.956  18.079  0.00  0.00    +0.000 HD
BRANCH  17  21
ATOM     21  C   UNL     1      -0.819  11.820  19.541  0.00  0.00    +0.000 C 
BRANCH  21  25
ATOM     22  C   UNL     1      -4.797  11.646  17.835  0.00  0.00    +0.000 A 
ATOM     23  C   UNL     1      -4.590  12.167  19.115  0.00  0.00    +0.000 A 
ATOM     24  C   UNL     1      -3.306  12.202  19.671  0.00  0.00    +0.000 A 
ATOM     25  C   UNL     1      -2.203  11.715  18.952  0.00  0.00    +0.000 A 
ATOM     26  C   UNL     1      -2.434  11.171  17.688  0.00  0.00    +0.000 A 
ATOM     27  C   UNL     1      -3.707  11.151  17.123  0.00  0.00    +0.000 A 
BRANCH  22  29
ATOM     28  C   UNL     1      -7.082  11.984  18.366  0.00  0.00    +0.000 C 
ATOM     29  O   UNL     1      -6.091  11.676  17.391  0.00  0.00    +0.000 OA
ENDBRANCH  22  29
BRANCH  26  30
ATOM     30  O   UNL     1      -1.435  10.639  16.922  0.00  0.00    +0.000 OA
ATOM     31  H   UNL     1      -0.582  10.830  17.368  0.00  0.00    +0.000 HD
ENDBRANCH  26  30
ENDBRANCH  21  25
ENDBRANCH  17  21
ENDBRANCH   1  18
BRANCH   4  32
ATOM     32  O   UNL     1       4.045   6.265  16.991  0.00  0.00    +0.000 OA
ATOM     33  H   UNL     1       4.935   6.303  17.360  0.00  0.00    +0.000 HD
ENDBRANCH   4  32
BRANCH   6  34
ATOM     34  O   UNL     1       2.434  10.606  17.609  0.00  0.00    +0.000 OA
ATOM     35  H   UNL     1       3.343  10.938  17.699  0.00  0.00    +0.000 HD
ENDBRANCH   6  34
TORSDOF 8
ENDMDL
MODEL 3
REMARK VINA RESULT:      -8.4      3.097      3.458
REMARK  Name = 
REMARK  9 active torsions:
REMARK  status: ('A' for Active; 'I' for Inactive)
REMARK    1  A    between atoms: C_1  and  O_2
REMARK    2  A    between atoms: O_2  and  C_3
REMARK    3  A    between atoms: C_6  and  C_7
REMARK    4  A    between atoms: C_7  and  N_8
REMARK    5  A    between atoms: C_9  and  C_11
REMARK    6  A    between atoms: C_13  and  C_14
REMARK    7  A    between atoms: C_24  and  O_25
REMARK    8  A    between atoms: C_27  and  O_28
REMARK    9  A    between atoms: C_29  and  O_30
REMARK                            x       y       z     vdW  Elec       q    Type
REMARK                         _______ _______ _______ _____ _____    ______ ____
ROOT
ATOM      1  C   UNL     1       1.346   9.042  20.587  0.00  0.00    +0.000 A 
ATOM      2  C   UNL     1       1.746   7.705  20.394  0.00  0.00    +0.000 A 
ATOM      3  C   UNL     1       2.233   7.211  19.149  0.00  0.00    +0.000 A 
ATOM      4  C   UNL     1       2.298   8.161  18.113  0.00  0.00    +0.000 A 
ATOM      5  C   UNL     1       1.907   9.495  18.289  0.00  0.00    +0.000 A 
ATOM      6  C   UNL     1       1.421   9.933  19.519  0.00  0.00    +0.000 A 
ENDROOT
BRANCH   3   7
ATOM      7  C   UNL     1       2.683   5.731  19.004  0.00  0.00    +0.000 C 
ATOM      8  C   UNL     1       4.207   5.594  18.654  0.00  0.00    +0.000 C 
ATOM      9  C   UNL     1       4.638   4.131  18.471  0.00  0.00    +0.000 C 
ATOM     10  C   UNL     1       4.393   3.369  19.778  0.00  0.00    +0.000 C 
ATOM     11  C   UNL     1       2.906   3.442  20.144  0.00  0.00    +0.000 C 
ATOM     12  C   UNL     1       2.085   2.802  19.011  0.00  0.00    +0.000 C 
ATOM     13  C   UNL     1       2.325   3.557  17.693  0.00  0.00    +0.000 C 
ATOM     14  C   UNL     1       3.815   3.507  17.338  0.00  0.00    +0.000 C 
ATOM     15  C   UNL     1       1.891   5.024  17.859  0.00  0.00    +0.000 C 
ATOM     16  C   UNL     1       2.483   4.917  20.322  0.00  0.00    +0.000 C 
ENDBRANCH   3   7
BRANCH   1  18
ATOM     17  N   UNL     1      -0.405  10.028  21.967  0.00  0.00    +0.000 N 
ATOM     18  C   UNL     1       0.849   9.463  21.939  0.00  0.00    +0.000 C 
ATOM     19  O   UNL     1       1.534   9.302  22.937  0.00  0.00    +0.000 OA
ATOM     20  H   UNL     1      -0.799  10.314  21.078  0.00  0.00    +0.000 HD
BRANCH  17  21
ATOM     21  C   UNL     1      -1.053  10.486  23.172  0.00  0.00    +0.000 C 
BRANCH  21  25
ATOM     22  C   UNL     1      -2.736  14.463  22.834  0.00  0.00    +0.000 A 
ATOM     23  C   UNL     1      -3.496  13.407  23.344  0.00  0.00    +0.000 A 
ATOM     24  C   UNL     1      -2.955  12.119  23.433  0.00  0.00    +0.000 A 
ATOM     25  C   UNL     1      -1.640  11.866  23.010  0.00  0.00    +0.000 A 
ATOM     26  C   UNL     1      -0.908  12.927  22.476  0.00  0.00    +0.000 A 
ATOM     27  C   UNL     1      -1.436  14.215  22.403  0.00  0.00    +0.000 A 
BRANCH  22  29
ATOM     28  C   UNL     1      -4.735  15.686  23.196  0.00  0.00    +0.000 C 
ATOM     29  O   UNL     1      -3.365  15.679  22.809  0.00  0.00    +0.000 OA
ENDBRANCH  22  29
BRANCH  26  30
ATOM     30  O   UNL     1       0.365  12.779  22.003  0.00  0.00    +0.000 OA
ATOM     31  H   UNL     1       0.329  12.172  21.233  0.00  0.00    +0.000 HD
ENDBRANCH  26  30
ENDBRANCH  21  25
ENDBRANCH  17  21
ENDBRANCH   1  18
BRANCH   4  32
ATOM     32  O   UNL     1       2.741   7.920  16.841  0.00  0.00    +0.000 OA
ATOM     33  H   UNL     1       2.014   7.965  16.210  0.00  0.00    +0.000 HD
ENDBRANCH   4  32
BRANCH   6  34
ATOM     34  O   UNL     1       1.015  11.236  19.644  0.00  0.00    +0.000 OA
ATOM     35  H   UNL     1       0.105  11.252  19.984  0.00  0.00    +0.000 HD
ENDBRANCH   6  34
TORSDOF 8
ENDMDL
MODEL 4
REMARK VINA RESULT:      -8.4      3.116      3.700
REMARK  Name = 
REMARK  9 active torsions:
REMARK  status: ('A' for Active; 'I' for Inactive)
REMARK    1  A    between atoms: C_1  and  O_2
REMARK    2  A    between atoms: O_2  and  C_3
REMARK    3  A    between atoms: C_6  and  C_7
REMARK    4  A    between atoms: C_7  and  N_8
REMARK    5  A    between atoms: C_9  and  C_11
REMARK    6  A    between atoms: C_13  and  C_14
REMARK    7  A    between atoms: C_24  and  O_25
REMARK    8  A    between atoms: C_27  and  O_28
REMARK    9  A    between atoms: C_29  and  O_30
REMARK                            x       y       z     vdW  Elec       q    Type
REMARK                         _______ _______ _______ _____ _____    ______ ____
ROOT
ATOM      1  C   UNL     1       1.329   9.097  20.541  0.00  0.00    +0.000 A 
ATOM      2  C   UNL     1       1.749   7.771  20.316  0.00  0.00    +0.000 A 
ATOM      3  C   UNL     1       2.237   7.313  19.057  0.00  0.00    +0.000 A 
ATOM      4  C   UNL     1       2.282   8.287  18.043  0.00  0.00    +0.000 A 
ATOM      5  C   UNL     1       1.872   9.610  18.251  0.00  0.00    +0.000 A 
ATOM      6  C   UNL     1       1.385  10.013  19.493  0.00  0.00    +0.000 A 
ENDROOT
BRANCH   3   7
ATOM      7  C   UNL     1       2.710   5.844  18.877  0.00  0.00    +0.000 C 
ATOM      8  C   UNL     1       2.643   5.018  20.210  0.00  0.00    +0.000 C 
ATOM      9  C   UNL     1       3.150   3.579  20.036  0.00  0.00    +0.000 C 
ATOM     10  C   UNL     1       2.275   2.861  19.003  0.00  0.00    +0.000 C 
ATOM     11  C   UNL     1       2.339   3.611  17.666  0.00  0.00    +0.000 C 
ATOM     12  C   UNL     1       3.798   3.635  17.181  0.00  0.00    +0.000 C 
ATOM     13  C   UNL     1       4.686   4.352  18.212  0.00  0.00    +0.000 C 
ATOM     14  C   UNL     1       4.605   3.619  19.555  0.00  0.00    +0.000 C 
ATOM     15  C   UNL     1       4.193   5.799  18.392  0.00  0.00    +0.000 C 
ATOM     16  C   UNL     1       1.829   5.057  17.855  0.00  0.00    +0.000 C 
ENDBRANCH   3   7
BRANCH   1  18
ATOM     17  N   UNL     1      -0.415  10.055  21.948  0.00  0.00    +0.000 N 
ATOM     18  C   UNL     1       0.833   9.480  21.905  0.00  0.00    +0.000 C 
ATOM     19  O   UNL     1       1.514   9.281  22.898  0.00  0.00    +0.000 OA
ATOM     20  H   UNL     1      -0.805  10.372  21.067  0.00  0.00    +0.000 HD
BRANCH  17  21
ATOM     21  C   UNL     1      -1.063  10.481  23.166  0.00  0.00    +0.000 C 
BRANCH  21  25
ATOM     22  C   UNL     1      -2.792  14.444  22.919  0.00  0.00    +0.000 A 
ATOM     23  C   UNL     1      -3.537  13.369  23.409  0.00  0.00    +0.000 A 
ATOM     24  C   UNL     1      -2.981  12.085  23.468  0.00  0.00    +0.000 A 
ATOM     25  C   UNL     1      -1.666  11.856  23.036  0.00  0.00    +0.000 A 
ATOM     26  C   UNL     1      -0.948  12.937  22.521  0.00  0.00    +0.000 A 
ATOM     27  C   UNL     1      -1.491  14.220  22.478  0.00  0.00    +0.000 A 
BRANCH  22  29
ATOM     28  C   UNL     1      -4.602  15.741  23.732  0.00  0.00    +0.000 C 
ATOM     29  O   UNL     1      -3.434  15.653  22.922  0.00  0.00    +0.000 OA
ENDBRANCH  22  29
BRANCH  26  30
ATOM     30  O   UNL     1       0.325  12.814  22.040  0.00  0.00    +0.000 OA
ATOM     31  H   UNL     1       0.319  13.101  21.102  0.00  0.00    +0.000 HD
ENDBRANCH  26  30
ENDBRANCH  21  25
ENDBRANCH  17  21
ENDBRANCH   1  18
BRANCH   4  32
ATOM     32  O   UNL     1       2.722   8.082  16.764  0.00  0.00    +0.000 OA
ATOM     33  H   UNL     1       3.534   8.573  16.597  0.00  0.00    +0.000 HD
ENDBRANCH   4  32
BRANCH   6  34
ATOM     34  O   UNL     1       0.960  11.306  19.649  0.00  0.00    +0.000 OA
ATOM     35  H   UNL     1       0.484  11.582  18.848  0.00  0.00    +0.000 HD
ENDBRANCH   6  34
TORSDOF 8
ENDMDL
MODEL 5
REMARK VINA RESULT:      -8.4      0.154      1.368
REMARK  Name = 
REMARK  9 active torsions:
REMARK  status: ('A' for Active; 'I' for Inactive)
REMARK    1  A    between atoms: C_1  and  O_2
REMARK    2  A    between atoms: O_2  and  C_3
REMARK    3  A    between atoms: C_6  and  C_7
REMARK    4  A    between atoms: C_7  and  N_8
REMARK    5  A    between atoms: C_9  and  C_11
REMARK    6  A    between atoms: C_13  and  C_14
REMARK    7  A    between atoms: C_24  and  O_25
REMARK    8  A    between atoms: C_27  and  O_28
REMARK    9  A    between atoms: C_29  and  O_30
REMARK                            x       y       z     vdW  Elec       q    Type
REMARK                         _______ _______ _______ _____ _____    ______ ____
ROOT
ATOM      1  C   UNL     1       1.518   8.889  19.105  0.00  0.00    +0.000 A 
ATOM      2  C   UNL     1       1.491   7.523  19.452  0.00  0.00    +0.000 A 
ATOM      3  C   UNL     1       2.283   6.537  18.794  0.00  0.00    +0.000 A 
ATOM      4  C   UNL     1       3.112   7.024  17.767  0.00  0.00    +0.000 A 
ATOM      5  C   UNL     1       3.153   8.379  17.411  0.00  0.00    +0.000 A 
ATOM      6  C   UNL     1       2.350   9.308  18.069  0.00  0.00    +0.000 A 
ENDROOT
BRANCH   3   7
ATOM      7  C   UNL     1       2.229   5.049  19.239  0.00  0.00    +0.000 C 
ATOM      8  C   UNL     1       1.285   4.821  20.472  0.00  0.00    +0.000 C 
ATOM      9  C   UNL     1       1.267   3.356  20.934  0.00  0.00    +0.000 C 
ATOM     10  C   UNL     1       0.754   2.476  19.789  0.00  0.00    +0.000 C 
ATOM     11  C   UNL     1       1.669   2.635  18.569  0.00  0.00    +0.000 C 
ATOM     12  C   UNL     1       3.093   2.201  18.956  0.00  0.00    +0.000 C 
ATOM     13  C   UNL     1       3.617   3.077  20.107  0.00  0.00    +0.000 C 
ATOM     14  C   UNL     1       2.691   2.938  21.319  0.00  0.00    +0.000 C 
ATOM     15  C   UNL     1       3.647   4.548  19.656  0.00  0.00    +0.000 C 
ATOM     16  C   UNL     1       1.681   4.113  18.116  0.00  0.00    +0.000 C 
ENDBRANCH   3   7
BRANCH   1  18
ATOM     17  N   UNL     1      -0.097  10.714  19.096  0.00  0.00    +0.000 N 
ATOM     18  C   UNL     1       0.647   9.848  19.862  0.00  0.00    +0.000 C 
ATOM     19  O   UNL     1       0.617   9.838  21.082  0.00  0.00    +0.000 OA
ATOM     20  H   UNL     1       0.154  10.791  18.116  0.00  0.00    +0.000 HD
BRANCH  17  21
ATOM     21  C   UNL     1      -0.997  11.700  19.642  0.00  0.00    +0.000 C 
BRANCH  21  25
ATOM     22  C   UNL     1      -4.866  11.754  17.694  0.00  0.00    +0.000 A 
ATOM     23  C   UNL     1      -4.731  12.156  19.024  0.00  0.00    +0.000 A 
ATOM     24  C   UNL     1      -3.482  12.118  19.657  0.00  0.00    +0.000 A 
ATOM     25  C   UNL     1      -2.344  11.674  18.965  0.00  0.00    +0.000 A 
ATOM     26  C   UNL     1      -2.506  11.247  17.646  0.00  0.00    +0.000 A 
ATOM     27  C   UNL     1      -3.742  11.302  17.006  0.00  0.00    +0.000 A 
BRANCH  22  29
ATOM     28  C   UNL     1      -7.117  12.416  18.033  0.00  0.00    +0.000 C 
ATOM     29  O   UNL     1      -6.130  11.847  17.178  0.00  0.00    +0.000 OA
ENDBRANCH  22  29
BRANCH  26  30
ATOM     30  O   UNL     1      -1.470  10.764  16.897  0.00  0.00    +0.000 OA
ATOM     31  H   UNL     1      -1.544   9.786  16.881  0.00  0.00    +0.000 HD
ENDBRANCH  26  30
ENDBRANCH  21  25
ENDBRANCH  17  21
ENDBRANCH   1  18
BRANCH   4  32
ATOM     32  O   UNL     1       3.963   6.269  17.007  0.00  0.00    +0.000 OA
ATOM     33  H   UNL     1       3.990   5.359  17.324  0.00  0.00    +0.000 HD
ENDBRANCH   4  32
BRANCH   6  34
ATOM     34  O   UNL     1       2.391  10.618  17.671  0.00  0.00    +0.000 OA
ATOM     35  H   UNL     1       2.900  11.131  18.321  0.00  0.00    +0.000 HD
ENDBRANCH   6  34
TORSDOF 8
ENDMDL
MODEL 6
REMARK VINA RESULT:      -8.4      0.955      1.846
REMARK  Name = 
REMARK  9 active torsions:
REMARK  status: ('A' for Active; 'I' for Inactive)
REMARK    1  A    between atoms: C_1  and  O_2
REMARK    2  A    between atoms: O_2  and  C_3
REMARK    3  A    between atoms: C_6  and  C_7
REMARK    4  A    between atoms: C_7  and  N_8
REMARK    5  A    between atoms: C_9  and  C_11
REMARK    6  A    between atoms: C_13  and  C_14
REMARK    7  A    between atoms: C_24  and  O_25
REMARK    8  A    between atoms: C_27  and  O_28
REMARK    9  A    between atoms: C_29  and  O_30
REMARK                            x       y       z     vdW  Elec       q    Type
REMARK                         _______ _______ _______ _____ _____    ______ ____
ROOT
ATOM      1  C   UNL     1       1.653   8.737  19.083  0.00  0.00    +0.000 A 
ATOM      2  C   UNL     1       1.622   7.373  19.438  0.00  0.00    +0.000 A 
ATOM      3  C   UNL     1       2.395   6.378  18.772  0.00  0.00    +0.000 A 
ATOM      4  C   UNL     1       3.210   6.854  17.728  0.00  0.00    +0.000 A 
ATOM      5  C   UNL     1       3.255   8.206  17.364  0.00  0.00    +0.000 A 
ATOM      6  C   UNL     1       2.470   9.144  18.031  0.00  0.00    +0.000 A 
ENDROOT
BRANCH   3   7
ATOM      7  C   UNL     1       2.338   4.893  19.226  0.00  0.00    +0.000 C 
ATOM      8  C   UNL     1       1.820   3.935  18.097  0.00  0.00    +0.000 C 
ATOM      9  C   UNL     1       1.726   2.475  18.564  0.00  0.00    +0.000 C 
ATOM     10  C   UNL     1       3.120   1.990  18.978  0.00  0.00    +0.000 C 
ATOM     11  C   UNL     1       3.656   2.875  20.110  0.00  0.00    +0.000 C 
ATOM     12  C   UNL     1       2.698   2.780  21.310  0.00  0.00    +0.000 C 
ATOM     13  C   UNL     1       1.294   3.261  20.905  0.00  0.00    +0.000 C 
ATOM     14  C   UNL     1       0.766   2.394  19.757  0.00  0.00    +0.000 C 
ATOM     15  C   UNL     1       1.372   4.727  20.441  0.00  0.00    +0.000 C 
ATOM     16  C   UNL     1       3.742   4.341  19.630  0.00  0.00    +0.000 C 
ENDBRANCH   3   7
BRANCH   1  18
ATOM     17  N   UNL     1       0.230  10.716  19.111  0.00  0.00    +0.000 N 
ATOM     18  C   UNL     1       0.801   9.706  19.850  0.00  0.00    +0.000 C 
ATOM     19  O   UNL     1       0.640   9.583  21.054  0.00  0.00    +0.000 OA
ATOM     20  H   UNL     1       0.591  10.859  18.174  0.00  0.00    +0.000 HD
BRANCH  17  21
ATOM     21  C   UNL     1      -0.625  11.735  19.669  0.00  0.00    +0.000 C 
BRANCH  21  25
ATOM     22  C   UNL     1      -4.708  11.289  18.292  0.00  0.00    +0.000 A 
ATOM     23  C   UNL     1      -3.677  10.535  17.726  0.00  0.00    +0.000 A 
ATOM     24  C   UNL     1      -2.355  10.697  18.160  0.00  0.00    +0.000 A 
ATOM     25  C   UNL     1      -2.044  11.620  19.170  0.00  0.00    +0.000 A 
ATOM     26  C   UNL     1      -3.083  12.385  19.702  0.00  0.00    +0.000 A 
ATOM     27  C   UNL     1      -4.402  12.214  19.287  0.00  0.00    +0.000 A 
BRANCH  22  29
ATOM     28  C   UNL     1      -6.896  10.481  18.718  0.00  0.00    +0.000 C 
ATOM     29  O   UNL     1      -5.959  11.035  17.799  0.00  0.00    +0.000 OA
ENDBRANCH  22  29
BRANCH  26  30
ATOM     30  O   UNL     1      -2.880  13.335  20.663  0.00  0.00    +0.000 OA
ATOM     31  H   UNL     1      -2.824  14.206  20.214  0.00  0.00    +0.000 HD
ENDBRANCH  26  30
ENDBRANCH  21  25
ENDBRANCH  17  21
ENDBRANCH   1  18
BRANCH   4  32
ATOM     32  O   UNL     1       4.042   6.088  16.959  0.00  0.00    +0.000 OA
ATOM     33  H   UNL     1       4.108   5.193  17.310  0.00  0.00    +0.000 HD
ENDBRANCH   4  32
BRANCH   6  34
ATOM     34  O   UNL     1       2.513  10.452  17.625  0.00  0.00    +0.000 OA
ATOM     35  H   UNL     1       2.522  11.027  18.408  0.00  0.00    +0.000 HD
ENDBRANCH   6  34
TORSDOF 8
ENDMDL
MODEL 7
REMARK VINA RESULT:      -8.4      3.030      3.616
REMARK  Name = 
REMARK  9 active torsions:
REMARK  status: ('A' for Active; 'I' for Inactive)
REMARK    1  A    between atoms: C_1  and  O_2
REMARK    2  A    between atoms: O_2  and  C_3
REMARK    3  A    between atoms: C_6  and  C_7
REMARK    4  A    between atoms: C_7  and  N_8
REMARK    5  A    between atoms: C_9  and  C_11
REMARK    6  A    between atoms: C_13  and  C_14
REMARK    7  A    between atoms: C_24  and  O_25
REMARK    8  A    between atoms: C_27  and  O_28
REMARK    9  A    between atoms: C_29  and  O_30
REMARK                            x       y       z     vdW  Elec       q    Type
REMARK                         _______ _______ _______ _____ _____    ______ ____
ROOT
ATOM      1  C   UNL     1       1.284   8.918  20.725  0.00  0.00    +0.000 A 
ATOM      2  C   UNL     1       1.566   7.545  20.580  0.00  0.00    +0.000 A 
ATOM      3  C   UNL     1       2.047   6.974  19.365  0.00  0.00    +0.000 A 
ATOM      4  C   UNL     1       2.234   7.885  18.309  0.00  0.00    +0.000 A 
ATOM      5  C   UNL     1       1.962   9.254  18.438  0.00  0.00    +0.000 A 
ATOM      6  C   UNL     1       1.476   9.768  19.639  0.00  0.00    +0.000 A 
ENDROOT
BRANCH   3   7
ATOM      7  C   UNL     1       2.364   5.456  19.273  0.00  0.00    +0.000 C 
ATOM      8  C   UNL     1       1.868   4.815  17.929  0.00  0.00    +0.000 C 
ATOM      9  C   UNL     1       2.147   3.306  17.861  0.00  0.00    +0.000 C 
ATOM     10  C   UNL     1       3.658   3.071  17.956  0.00  0.00    +0.000 C 
ATOM     11  C   UNL     1       4.186   3.648  19.275  0.00  0.00    +0.000 C 
ATOM     12  C   UNL     1       3.478   2.941  20.444  0.00  0.00    +0.000 C 
ATOM     13  C   UNL     1       1.960   3.168  20.357  0.00  0.00    +0.000 C 
ATOM     14  C   UNL     1       1.434   2.614  19.029  0.00  0.00    +0.000 C 
ATOM     15  C   UNL     1       1.664   4.677  20.431  0.00  0.00    +0.000 C 
ATOM     16  C   UNL     1       3.897   5.165  19.334  0.00  0.00    +0.000 C 
ENDBRANCH   3   7
BRANCH   1  18
ATOM     17  N   UNL     1      -0.459  10.010  22.033  0.00  0.00    +0.000 N 
ATOM     18  C   UNL     1       0.783   9.420  22.048  0.00  0.00    +0.000 C 
ATOM     19  O   UNL     1       1.455   9.299  23.060  0.00  0.00    +0.000 OA
ATOM     20  H   UNL     1      -0.839  10.256  21.125  0.00  0.00    +0.000 HD
BRANCH  17  21
ATOM     21  C   UNL     1      -1.110  10.544  23.205  0.00  0.00    +0.000 C 
BRANCH  21  25
ATOM     22  C   UNL     1      -2.749  14.512  22.626  0.00  0.00    +0.000 A 
ATOM     23  C   UNL     1      -3.530  13.489  23.169  0.00  0.00    +0.000 A 
ATOM     24  C   UNL     1      -3.003  12.202  23.335  0.00  0.00    +0.000 A 
ATOM     25  C   UNL     1      -1.680  11.919  22.959  0.00  0.00    +0.000 A 
ATOM     26  C   UNL     1      -0.926  12.946  22.391  0.00  0.00    +0.000 A 
ATOM     27  C   UNL     1      -1.440  14.233  22.241  0.00  0.00    +0.000 A 
BRANCH  22  29
ATOM     28  C   UNL     1      -4.378  16.004  23.488  0.00  0.00    +0.000 C 
ATOM     29  O   UNL     1      -3.366  15.730  22.524  0.00  0.00    +0.000 OA
ENDBRANCH  22  29
BRANCH  26  30
ATOM     30  O   UNL     1       0.357  12.765  21.960  0.00  0.00    +0.000 OA
ATOM     31  H   UNL     1       0.828  12.232  22.636  0.00  0.00    +0.000 HD
ENDBRANCH  26  30
ENDBRANCH  21  25
ENDBRANCH  17  21
ENDBRANCH   1  18
BRANCH   4  32
ATOM     32  O   UNL     1       2.695   7.570  17.061  0.00  0.00    +0.000 OA
ATOM     33  H   UNL     1       2.361   8.192  16.404  0.00  0.00    +0.000 HD
ENDBRANCH   4  32
BRANCH   6  34
ATOM     34  O   UNL     1       1.188  11.106  19.717  0.00  0.00    +0.000 OA
ATOM     35  H   UNL     1       1.387  11.523  18.862  0.00  0.00    +0.000 HD
ENDBRANCH   6  34
TORSDOF 8
ENDMDL
MODEL 8
REMARK VINA RESULT:      -8.4      0.956      1.267
REMARK  Name = 
REMARK  9 active torsions:
REMARK  status: ('A' for Active; 'I' for Inactive)
REMARK    1  A    between atoms: C_1  and  O_2
REMARK    2  A    between atoms: O_2  and  C_3
REMARK    3  A    between atoms: C_6  and  C_7
REMARK    4  A    between atoms: C_7  and  N_8
REMARK    5  A    between atoms: C_9  and  C_11
REMARK    6  A    between atoms: C_13  and  C_14
REMARK    7  A    between atoms: C_24  and  O_25
REMARK    8  A    between atoms: C_27  and  O_28
REMARK    9  A    between atoms: C_29  and  O_30
REMARK                            x       y       z     vdW  Elec       q    Type
REMARK                         _______ _______ _______ _____ _____    ______ ____
ROOT
ATOM      1  C   UNL     1       1.597   8.795  19.039  0.00  0.00    +0.000 A 
ATOM      2  C   UNL     1       1.559   7.434  19.402  0.00  0.00    +0.000 A 
ATOM      3  C   UNL     1       2.362   6.439  18.772  0.00  0.00    +0.000 A 
ATOM      4  C   UNL     1       3.215   6.911  17.758  0.00  0.00    +0.000 A 
ATOM      5  C   UNL     1       3.268   8.262  17.387  0.00  0.00    +0.000 A 
ATOM      6  C   UNL     1       2.453   9.200  18.017  0.00  0.00    +0.000 A 
ENDROOT
BRANCH   3   7
ATOM      7  C   UNL     1       2.294   4.956  19.234  0.00  0.00    +0.000 C 
ATOM      8  C   UNL     1       3.702   4.374  19.608  0.00  0.00    +0.000 C 
ATOM      9  C   UNL     1       3.636   2.897  20.024  0.00  0.00    +0.000 C 
ATOM     10  C   UNL     1       2.737   2.764  21.258  0.00  0.00    +0.000 C 
ATOM     11  C   UNL     1       1.332   3.286  20.929  0.00  0.00    +0.000 C 
ATOM     12  C   UNL     1       0.751   2.453  19.774  0.00  0.00    +0.000 C 
ATOM     13  C   UNL     1       1.648   2.577  18.530  0.00  0.00    +0.000 C 
ATOM     14  C   UNL     1       3.058   2.079  18.863  0.00  0.00    +0.000 C 
ATOM     15  C   UNL     1       1.719   4.053  18.098  0.00  0.00    +0.000 C 
ATOM     16  C   UNL     1       1.413   4.771  20.510  0.00  0.00    +0.000 C 
ENDBRANCH   3   7
BRANCH   1  18
ATOM     17  N   UNL     1       0.237  10.818  19.019  0.00  0.00    +0.000 N 
ATOM     18  C   UNL     1       0.712   9.765  19.766  0.00  0.00    +0.000 C 
ATOM     19  O   UNL     1       0.444   9.607  20.946  0.00  0.00    +0.000 OA
ATOM     20  H   UNL     1       0.681  10.981  18.122  0.00  0.00    +0.000 HD
BRANCH  17  21
ATOM     21  C   UNL     1      -0.632  11.845  19.539  0.00  0.00    +0.000 C 
BRANCH  21  25
ATOM     22  C   UNL     1      -4.731  11.213  18.289  0.00  0.00    +0.000 A 
ATOM     23  C   UNL     1      -3.688  10.486  17.711  0.00  0.00    +0.000 A 
ATOM     24  C   UNL     1      -2.362  10.708  18.103  0.00  0.00    +0.000 A 
ATOM     25  C   UNL     1      -2.058  11.665  19.084  0.00  0.00    +0.000 A 
ATOM     26  C   UNL     1      -3.112  12.402  19.628  0.00  0.00    +0.000 A 
ATOM     27  C   UNL     1      -4.434  12.171  19.255  0.00  0.00    +0.000 A 
BRANCH  22  29
ATOM     28  C   UNL     1      -6.879  10.348  18.799  0.00  0.00    +0.000 C 
ATOM     29  O   UNL     1      -5.985  10.900  17.838  0.00  0.00    +0.000 OA
ENDBRANCH  22  29
BRANCH  26  30
ATOM     30  O   UNL     1      -2.919  13.381  20.561  0.00  0.00    +0.000 OA
ATOM     31  H   UNL     1      -1.991  13.317  20.875  0.00  0.00    +0.000 HD
ENDBRANCH  26  30
ENDBRANCH  21  25
ENDBRANCH  17  21
ENDBRANCH   1  18
BRANCH   4  32
ATOM     32  O   UNL     1       4.080   6.145  17.027  0.00  0.00    +0.000 OA
ATOM     33  H   UNL     1       4.389   6.623  16.249  0.00  0.00    +0.000 HD
ENDBRANCH   4  32
BRANCH   6  34
ATOM     34  O   UNL     1       2.506  10.506  17.604  0.00  0.00    +0.000 OA
ATOM     35  H   UNL     1       2.849  10.537  16.695  0.00  0.00    +0.000 HD
ENDBRANCH   6  34
TORSDOF 8
ENDMDL
MODEL 9
REMARK VINA RESULT:      -8.3      2.035      3.223
REMARK  Name = 
REMARK  9 active torsions:
REMARK  status: ('A' for Active; 'I' for Inactive)
REMARK    1  A    between atoms: C_1  and  O_2
REMARK    2  A    between atoms: O_2  and  C_3
REMARK    3  A    between atoms: C_6  and  C_7
REMARK    4  A    between atoms: C_7  and  N_8
REMARK    5  A    between atoms: C_9  and  C_11
REMARK    6  A    between atoms: C_13  and  C_14
REMARK    7  A    between atoms: C_24  and  O_25
REMARK    8  A    between atoms: C_27  and  O_28
REMARK    9  A    between atoms: C_29  and  O_30
REMARK                            x       y       z     vdW  Elec       q    Type
REMARK                         _______ _______ _______ _____ _____    ______ ____
ROOT
ATOM      1  C   UNL     1       1.563   8.763  19.191  0.00  0.00    +0.000 A 
ATOM      2  C   UNL     1       1.561   7.395  19.529  0.00  0.00    +0.000 A 
ATOM      3  C   UNL     1       2.335   6.421  18.834  0.00  0.00    +0.000 A 
ATOM      4  C   UNL     1       3.121   6.923  17.779  0.00  0.00    +0.000 A 
ATOM      5  C   UNL     1       3.137   8.280  17.433  0.00  0.00    +0.000 A 
ATOM      6  C   UNL     1       2.352   9.197  18.128  0.00  0.00    +0.000 A 
ENDROOT
BRANCH   3   7
ATOM      7  C   UNL     1       2.311   4.930  19.269  0.00  0.00    +0.000 C 
ATOM      8  C   UNL     1       3.728   4.397  19.682  0.00  0.00    +0.000 C 
ATOM      9  C   UNL     1       3.706   2.911  20.072  0.00  0.00    +0.000 C 
ATOM     10  C   UNL     1       2.772   2.722  21.273  0.00  0.00    +0.000 C 
ATOM     11  C   UNL     1       1.360   3.194  20.904  0.00  0.00    +0.000 C 
ATOM     12  C   UNL     1       0.852   2.359  19.717  0.00  0.00    +0.000 C 
ATOM     13  C   UNL     1       1.783   2.539  18.507  0.00  0.00    +0.000 C 
ATOM     14  C   UNL     1       3.200   2.091  18.880  0.00  0.00    +0.000 C 
ATOM     15  C   UNL     1       1.810   4.024  18.100  0.00  0.00    +0.000 C 
ATOM     16  C   UNL     1       1.396   4.688  20.511  0.00  0.00    +0.000 C 
ENDBRANCH   3   7
BRANCH   1  18
ATOM     17  N   UNL     1      -0.291  10.341  19.293  0.00  0.00    +0.000 N 
ATOM     18  C   UNL     1       0.713   9.709  19.988  0.00  0.00    +0.000 C 
ATOM     19  O   UNL     1       0.920   9.887  21.178  0.00  0.00    +0.000 OA
ATOM     20  H   UNL     1      -0.248  10.295  18.281  0.00  0.00    +0.000 HD
BRANCH  17  21
ATOM     21  C   UNL     1      -1.214  11.277  19.888  0.00  0.00    +0.000 C 
BRANCH  21  25
ATOM     22  C   UNL     1       0.400  15.296  19.798  0.00  0.00    +0.000 A 
ATOM     23  C   UNL     1       0.256  14.611  21.007  0.00  0.00    +0.000 A 
ATOM     24  C   UNL     1      -0.285  13.320  21.034  0.00  0.00    +0.000 A 
ATOM     25  C   UNL     1      -0.693  12.692  19.847  0.00  0.00    +0.000 A 
ATOM     26  C   UNL     1      -0.570  13.404  18.653  0.00  0.00    +0.000 A 
ATOM     27  C   UNL     1      -0.014  14.681  18.619  0.00  0.00    +0.000 A 
BRANCH  22  29
ATOM     28  C   UNL     1       2.019  16.829  18.993  0.00  0.00    +0.000 C 
ATOM     29  O   UNL     1       0.953  16.545  19.893  0.00  0.00    +0.000 OA
ENDBRANCH  22  29
BRANCH  26  30
ATOM     30  O   UNL     1      -0.970  12.898  17.449  0.00  0.00    +0.000 OA
ATOM     31  H   UNL     1      -0.211  12.963  16.830  0.00  0.00    +0.000 HD
ENDBRANCH  26  30
ENDBRANCH  21  25
ENDBRANCH  17  21
ENDBRANCH   1  18
BRANCH   4  32
ATOM     32  O   UNL     1       3.949   6.180  16.983  0.00  0.00    +0.000 OA
ATOM     33  H   UNL     1       4.203   5.361  17.421  0.00  0.00    +0.000 HD
ENDBRANCH   4  32
BRANCH   6  34
ATOM     34  O   UNL     1       2.367  10.511  17.738  0.00  0.00    +0.000 OA
ATOM     35  H   UNL     1       3.159  10.940  18.103  0.00  0.00    +0.000 HD
ENDBRANCH   6  34
TORSDOF 8
ENDMDL
