MODEL 1
REMARK VINA RESULT:      -6.1      0.000      0.000
REMARK  Name = 
REMARK  1 active torsions:
REMARK  status: ('A' for Active; 'I' for Inactive)
REMARK    1  A    between atoms: C_2  and  C_3
REMARK                            x       y       z     vdW  Elec       q    Type
REMARK                         _______ _______ _______ _____ _____    ______ ____
ROOT
ATOM      1  O   UNL     1       4.859   3.322  16.664  0.00  0.00    +0.000 OA
ATOM      2  C   UNL     1       4.530   4.290  17.349  0.00  0.00    +0.000 C 
ATOM      3  N   UNL     1       3.230   4.429  17.863  0.00  0.00    +0.000 N 
ATOM      4  C   UNL     1       2.256   3.366  17.587  0.00  0.00    +0.000 C 
ATOM      5  C   UNL     1       1.852   2.604  18.852  0.00  0.00    +0.000 C 
ATOM      6  S   UNL     1       1.127   3.699  20.129  0.00  0.00    +0.000 S 
ATOM      7  C   UNL     1       2.419   4.988  20.138  0.00  0.00    +0.000 C 
ATOM      8  C   UNL     1       2.715   5.507  18.723  0.00  0.00    +0.000 C 
ENDROOT
BRANCH   2   9
ATOM      9  C   UNL     1       5.584   5.297  17.651  0.00  0.00    +0.000 A 
ATOM     10  C   UNL     1       6.450   5.078  18.732  0.00  0.00    +0.000 A 
ATOM     11  C   UNL     1       7.423   6.015  19.077  0.00  0.00    +0.000 A 
ATOM     12  C   UNL     1       7.608   7.136  18.280  0.00  0.00    +0.000 A 
ATOM     13 CL   UNL     1       8.817   8.286  18.697  0.00  0.00    +0.000 Cl
ATOM     14  C   UNL     1       6.824   7.330  17.146  0.00  0.00    +0.000 A 
ATOM     15  C   UNL     1       5.804   6.419  16.834  0.00  0.00    +0.000 A 
ATOM     16 CL   UNL     1       4.850   6.777  15.436  0.00  0.00    +0.000 Cl
ENDBRANCH   2   9
TORSDOF 1
ENDMDL
MODEL 2
REMARK VINA RESULT:      -6.1      3.557      5.121
REMARK  Name = 
REMARK  1 active torsions:
REMARK  status: ('A' for Active; 'I' for Inactive)
REMARK    1  A    between atoms: C_2  and  C_3
REMARK                            x       y       z     vdW  Elec       q    Type
REMARK                         _______ _______ _______ _____ _____    ______ ____
ROOT
ATOM      1  O   UNL     1       2.036   4.390  17.480  0.00  0.00    +0.000 OA
ATOM      2  C   UNL     1       2.889   5.080  18.039  0.00  0.00    +0.000 C 
ATOM      3  N   UNL     1       4.257   4.773  17.965  0.00  0.00    +0.000 N 
ATOM      4  C   UNL     1       4.668   3.606  17.175  0.00  0.00    +0.000 C 
ATOM      5  C   UNL     1       5.470   3.999  15.931  0.00  0.00    +0.000 C 
ATOM      6  S   UNL     1       6.983   4.945  16.344  0.00  0.00    +0.000 S 
ATOM      7  C   UNL     1       6.229   6.187  17.449  0.00  0.00    +0.000 C 
ATOM      8  C   UNL     1       5.379   5.529  18.547  0.00  0.00    +0.000 C 
ENDROOT
BRANCH   2   9
ATOM      9  C   UNL     1       2.413   6.289  18.766  0.00  0.00    +0.000 A 
ATOM     10  C   UNL     1       2.251   7.491  18.062  0.00  0.00    +0.000 A 
ATOM     11  C   UNL     1       1.849   8.658  18.712  0.00  0.00    +0.000 A 
ATOM     12  C   UNL     1       1.507   8.610  20.056  0.00  0.00    +0.000 A 
ATOM     13 CL   UNL     1       0.998  10.046  20.855  0.00  0.00    +0.000 Cl
ATOM     14  C   UNL     1       1.568   7.408  20.755  0.00  0.00    +0.000 A 
ATOM     15  C   UNL     1       2.031   6.248  20.117  0.00  0.00    +0.000 A 
ATOM     16 CL   UNL     1       2.122   4.818  21.087  0.00  0.00    +0.000 Cl
ENDBRANCH   2   9
TORSDOF 1
ENDMDL
MODEL 3
REMARK VINA RESULT:      -6.0      2.227      3.363
REMARK  Name = 
REMARK  1 active torsions:
REMARK  status: ('A' for Active; 'I' for Inactive)
REMARK    1  A    between atoms: C_2  and  C_3
REMARK                            x       y       z     vdW  Elec       q    Type
REMARK                         _______ _______ _______ _____ _____    ______ ____
ROOT
ATOM      1  O   UNL     1       4.618   5.958  19.159  0.00  0.00    +0.000 OA
ATOM      2  C   UNL     1       4.611   4.913  18.509  0.00  0.00    +0.000 C 
ATOM      3  N   UNL     1       3.882   3.786  18.922  0.00  0.00    +0.000 N 
ATOM      4  C   UNL     1       3.091   3.882  20.155  0.00  0.00    +0.000 C 
ATOM      5  C   UNL     1       1.585   3.810  19.886  0.00  0.00    +0.000 C 
ATOM      6  S   UNL     1       1.098   2.261  19.038  0.00  0.00    +0.000 S 
ATOM      7  C   UNL     1       2.327   2.298  17.690  0.00  0.00    +0.000 C 
ATOM      8  C   UNL     1       3.754   2.495  18.226  0.00  0.00    +0.000 C 
ENDROOT
BRANCH   2   9
ATOM      9  C   UNL     1       5.377   4.903  17.232  0.00  0.00    +0.000 A 
ATOM     10  C   UNL     1       4.680   4.863  16.016  0.00  0.00    +0.000 A 
ATOM     11  C   UNL     1       5.358   4.809  14.799  0.00  0.00    +0.000 A 
ATOM     12  C   UNL     1       6.743   4.898  14.781  0.00  0.00    +0.000 A 
ATOM     13 CL   UNL     1       7.580   4.846  13.279  0.00  0.00    +0.000 Cl
ATOM     14  C   UNL     1       7.454   5.036  15.970  0.00  0.00    +0.000 A 
ATOM     15  C   UNL     1       6.777   5.028  17.198  0.00  0.00    +0.000 A 
ATOM     16 CL   UNL     1       7.754   5.148  18.620  0.00  0.00    +0.000 Cl
ENDBRANCH   2   9
TORSDOF 1
ENDMDL
MODEL 4
REMARK VINA RESULT:      -5.9      3.401      4.595
REMARK  Name = 
REMARK  1 active torsions:
REMARK  status: ('A' for Active; 'I' for Inactive)
REMARK    1  A    between atoms: C_2  and  C_3
REMARK                            x       y       z     vdW  Elec       q    Type
REMARK                         _______ _______ _______ _____ _____    ______ ____
ROOT
ATOM      1  O   UNL     1       4.841   5.988  18.171  0.00  0.00    +0.000 OA
ATOM      2  C   UNL     1       3.617   5.876  18.128  0.00  0.00    +0.000 C 
ATOM      3  N   UNL     1       2.993   4.678  17.745  0.00  0.00    +0.000 N 
ATOM      4  C   UNL     1       3.842   3.527  17.412  0.00  0.00    +0.000 C 
ATOM      5  C   UNL     1       3.698   2.387  18.424  0.00  0.00    +0.000 C 
ATOM      6  S   UNL     1       1.974   1.781  18.556  0.00  0.00    +0.000 S 
ATOM      7  C   UNL     1       1.142   3.390  18.777  0.00  0.00    +0.000 C 
ATOM      8  C   UNL     1       1.549   4.395  17.688  0.00  0.00    +0.000 C 
ENDROOT
BRANCH   2   9
ATOM      9  C   UNL     1       2.813   7.058  18.544  0.00  0.00    +0.000 A 
ATOM     10  C   UNL     1       2.626   8.112  17.638  0.00  0.00    +0.000 A 
ATOM     11  C   UNL     1       1.917   9.257  18.001  0.00  0.00    +0.000 A 
ATOM     12  C   UNL     1       1.300   9.316  19.243  0.00  0.00    +0.000 A 
ATOM     13 CL   UNL     1       0.414  10.722  19.686  0.00  0.00    +0.000 Cl
ATOM     14  C   UNL     1       1.390   8.242  20.125  0.00  0.00    +0.000 A 
ATOM     15  C   UNL     1       2.154   7.117  19.784  0.00  0.00    +0.000 A 
ATOM     16 CL   UNL     1       2.250   5.861  20.970  0.00  0.00    +0.000 Cl
ENDBRANCH   2   9
TORSDOF 1
ENDMDL
MODEL 5
REMARK VINA RESULT:      -5.9      2.577      3.241
REMARK  Name = 
REMARK  1 active torsions:
REMARK  status: ('A' for Active; 'I' for Inactive)
REMARK    1  A    between atoms: C_2  and  C_3
REMARK                            x       y       z     vdW  Elec       q    Type
REMARK                         _______ _______ _______ _____ _____    ______ ____
ROOT
ATOM      1  O   UNL     1       2.239   6.633  18.204  0.00  0.00    +0.000 OA
ATOM      2  C   UNL     1       3.105   5.803  18.477  0.00  0.00    +0.000 C 
ATOM      3  N   UNL     1       3.098   5.091  19.687  0.00  0.00    +0.000 N 
ATOM      4  C   UNL     1       2.004   5.340  20.634  0.00  0.00    +0.000 C 
ATOM      5  C   UNL     1       1.087   4.124  20.797  0.00  0.00    +0.000 C 
ATOM      6  S   UNL     1       1.990   2.639  21.376  0.00  0.00    +0.000 S 
ATOM      7  C   UNL     1       3.359   2.673  20.169  0.00  0.00    +0.000 C 
ATOM      8  C   UNL     1       4.042   4.049  20.122  0.00  0.00    +0.000 C 
ENDROOT
BRANCH   2   9
ATOM      9  C   UNL     1       4.147   5.546  17.444  0.00  0.00    +0.000 A 
ATOM     10  C   UNL     1       5.220   6.439  17.319  0.00  0.00    +0.000 A 
ATOM     11  C   UNL     1       6.195   6.261  16.337  0.00  0.00    +0.000 A 
ATOM     12  C   UNL     1       6.161   5.129  15.536  0.00  0.00    +0.000 A 
ATOM     13 CL   UNL     1       7.370   4.901  14.334  0.00  0.00    +0.000 Cl
ATOM     14  C   UNL     1       5.158   4.177  15.705  0.00  0.00    +0.000 A 
ATOM     15  C   UNL     1       4.144   4.387  16.650  0.00  0.00    +0.000 A 
ATOM     16 CL   UNL     1       2.914   3.174  16.744  0.00  0.00    +0.000 Cl
ENDBRANCH   2   9
TORSDOF 1
ENDMDL
MODEL 6
REMARK VINA RESULT:      -5.8      3.549      5.108
REMARK  Name = 
REMARK  1 active torsions:
REMARK  status: ('A' for Active; 'I' for Inactive)
REMARK    1  A    between atoms: C_2  and  C_3
REMARK                            x       y       z     vdW  Elec       q    Type
REMARK                         _______ _______ _______ _____ _____    ______ ____
ROOT
ATOM      1  O   UNL     1       2.280   3.779  17.043  0.00  0.00    +0.000 OA
ATOM      2  C   UNL     1       3.122   4.430  17.660  0.00  0.00    +0.000 C 
ATOM      3  N   UNL     1       4.498   4.283  17.419  0.00  0.00    +0.000 N 
ATOM      4  C   UNL     1       4.925   3.338  16.379  0.00  0.00    +0.000 C 
ATOM      5  C   UNL     1       5.567   4.043  15.181  0.00  0.00    +0.000 C 
ATOM      6  S   UNL     1       7.029   5.039  15.655  0.00  0.00    +0.000 S 
ATOM      7  C   UNL     1       6.285   5.960  17.044  0.00  0.00    +0.000 C 
ATOM      8  C   UNL     1       5.604   5.020  18.051  0.00  0.00    +0.000 C 
ENDROOT
BRANCH   2   9
ATOM      9  C   UNL     1       2.621   5.421  18.651  0.00  0.00    +0.000 A 
ATOM     10  C   UNL     1       2.557   6.775  18.292  0.00  0.00    +0.000 A 
ATOM     11  C   UNL     1       2.135   7.743  19.204  0.00  0.00    +0.000 A 
ATOM     12  C   UNL     1       1.674   7.353  20.453  0.00  0.00    +0.000 A 
ATOM     13 CL   UNL     1       1.141   8.544  21.573  0.00  0.00    +0.000 Cl
ATOM     14  C   UNL     1       1.637   6.005  20.800  0.00  0.00    +0.000 A 
ATOM     15  C   UNL     1       2.120   5.037  19.907  0.00  0.00    +0.000 A 
ATOM     16 CL   UNL     1       2.082   3.396  20.452  0.00  0.00    +0.000 Cl
ENDBRANCH   2   9
TORSDOF 1
ENDMDL
MODEL 7
REMARK VINA RESULT:      -5.7      2.129      3.222
REMARK  Name = 
REMARK  1 active torsions:
REMARK  status: ('A' for Active; 'I' for Inactive)
REMARK    1  A    between atoms: C_2  and  C_3
REMARK                            x       y       z     vdW  Elec       q    Type
REMARK                         _______ _______ _______ _____ _____    ______ ____
ROOT
ATOM      1  O   UNL     1       3.583   6.724  19.195  0.00  0.00    +0.000 OA
ATOM      2  C   UNL     1       3.967   5.583  18.940  0.00  0.00    +0.000 C 
ATOM      3  N   UNL     1       3.510   4.467  19.659  0.00  0.00    +0.000 N 
ATOM      4  C   UNL     1       2.525   4.683  20.727  0.00  0.00    +0.000 C 
ATOM      5  C   UNL     1       1.162   4.069  20.393  0.00  0.00    +0.000 C 
ATOM      6  S   UNL     1       1.261   2.266  20.090  0.00  0.00    +0.000 S 
ATOM      7  C   UNL     1       2.644   2.271  18.900  0.00  0.00    +0.000 C 
ATOM      8  C   UNL     1       3.853   3.053  19.436  0.00  0.00    +0.000 C 
ENDROOT
BRANCH   2   9
ATOM      9  C   UNL     1       4.912   5.425  17.801  0.00  0.00    +0.000 A 
ATOM     10  C   UNL     1       4.404   5.351  16.496  0.00  0.00    +0.000 A 
ATOM     11  C   UNL     1       5.249   5.160  15.403  0.00  0.00    +0.000 A 
ATOM     12  C   UNL     1       6.624   5.142  15.595  0.00  0.00    +0.000 A 
ATOM     13 CL   UNL     1       7.668   4.919  14.247  0.00  0.00    +0.000 Cl
ATOM     14  C   UNL     1       7.158   5.309  16.870  0.00  0.00    +0.000 A 
ATOM     15  C   UNL     1       6.306   5.439  17.977  0.00  0.00    +0.000 A 
ATOM     16 CL   UNL     1       7.067   5.585  19.523  0.00  0.00    +0.000 Cl
ENDBRANCH   2   9
TORSDOF 1
ENDMDL
MODEL 8
REMARK VINA RESULT:      -5.7      2.129      3.093
REMARK  Name = 
REMARK  1 active torsions:
REMARK  status: ('A' for Active; 'I' for Inactive)
REMARK    1  A    between atoms: C_2  and  C_3
REMARK                            x       y       z     vdW  Elec       q    Type
REMARK                         _______ _______ _______ _____ _____    ______ ____
ROOT
ATOM      1  O   UNL     1       4.589   2.776  19.167  0.00  0.00    +0.000 OA
ATOM      2  C   UNL     1       4.225   3.742  18.496  0.00  0.00    +0.000 C 
ATOM      3  N   UNL     1       3.053   4.455  18.795  0.00  0.00    +0.000 N 
ATOM      4  C   UNL     1       2.263   4.038  19.959  0.00  0.00    +0.000 C 
ATOM      5  C   UNL     1       2.273   5.086  21.076  0.00  0.00    +0.000 C 
ATOM      6  S   UNL     1       1.624   6.707  20.520  0.00  0.00    +0.000 S 
ATOM      7  C   UNL     1       2.623   6.889  19.004  0.00  0.00    +0.000 C 
ATOM      8  C   UNL     1       2.526   5.645  18.106  0.00  0.00    +0.000 C 
ENDROOT
BRANCH   2   9
ATOM      9  C   UNL     1       5.108   4.157  17.372  0.00  0.00    +0.000 A 
ATOM     10  C   UNL     1       4.755   3.808  16.060  0.00  0.00    +0.000 A 
ATOM     11  C   UNL     1       5.575   4.139  14.981  0.00  0.00    +0.000 A 
ATOM     12  C   UNL     1       6.708   4.913  15.193  0.00  0.00    +0.000 A 
ATOM     13 CL   UNL     1       7.712   5.332  13.861  0.00  0.00    +0.000 Cl
ATOM     14  C   UNL     1       7.029   5.353  16.474  0.00  0.00    +0.000 A 
ATOM     15  C   UNL     1       6.239   4.969  17.567  0.00  0.00    +0.000 A 
ATOM     16 CL   UNL     1       6.753   5.521  19.124  0.00  0.00    +0.000 Cl
ENDBRANCH   2   9
TORSDOF 1
ENDMDL
MODEL 9
REMARK VINA RESULT:      -5.7      3.169      4.813
REMARK  Name = 
REMARK  1 active torsions:
REMARK  status: ('A' for Active; 'I' for Inactive)
REMARK    1  A    between atoms: C_2  and  C_3
REMARK                            x       y       z     vdW  Elec       q    Type
REMARK                         _______ _______ _______ _____ _____    ______ ____
ROOT
ATOM      1  O   UNL     1       2.059   4.219  17.390  0.00  0.00    +0.000 OA
ATOM      2  C   UNL     1       2.871   4.736  18.157  0.00  0.00    +0.000 C 
ATOM      3  N   UNL     1       4.229   4.379  18.151  0.00  0.00    +0.000 N 
ATOM      4  C   UNL     1       4.681   3.376  17.179  0.00  0.00    +0.000 C 
ATOM      5  C   UNL     1       5.620   3.970  16.124  0.00  0.00    +0.000 C 
ATOM      6  S   UNL     1       7.112   4.732  16.864  0.00  0.00    +0.000 S 
ATOM      7  C   UNL     1       6.288   5.762  18.126  0.00  0.00    +0.000 C 
ATOM      8  C   UNL     1       5.309   4.941  18.979  0.00  0.00    +0.000 C 
ENDROOT
BRANCH   2   9
ATOM      9  C   UNL     1       2.362   5.796  19.070  0.00  0.00    +0.000 A 
ATOM     10  C   UNL     1       1.819   5.428  20.309  0.00  0.00    +0.000 A 
ATOM     11  C   UNL     1       1.292   6.385  21.177  0.00  0.00    +0.000 A 
ATOM     12  C   UNL     1       1.394   7.731  20.856  0.00  0.00    +0.000 A 
ATOM     13 CL   UNL     1       0.756   8.912  21.931  0.00  0.00    +0.000 Cl
ATOM     14  C   UNL     1       2.015   8.128  19.675  0.00  0.00    +0.000 A 
ATOM     15  C   UNL     1       2.490   7.164  18.774  0.00  0.00    +0.000 A 
ATOM     16 CL   UNL     1       3.195   7.756  17.309  0.00  0.00    +0.000 Cl
ENDBRANCH   2   9
TORSDOF 1
ENDMDL
