MODEL 1
REMARK VINA RESULT:      -7.5      0.000      0.000
REMARK  Name = 
REMARK  11 active torsions:
REMARK  status: ('A' for Active; 'I' for Inactive)
REMARK    1  A    between atoms: C_2  and  C_3
REMARK    2  A    between atoms: C_2  and  C_23
REMARK    3  A    between atoms: C_3  and  S_4
REMARK    4  A    between atoms: S_4  and  C_5
REMARK    5  A    between atoms: C_8  and  C_9
REMARK    6  A    between atoms: C_13  and  N_14
REMARK    7  A    between atoms: N_14  and  C_15
REMARK    8  A    between atoms: C_15  and  N_17
REMARK    9  A    between atoms: N_17  and  C_18
REMARK   10  A    between atoms: C_18  and  C_19
REMARK   11  A    between atoms: C_19  and  O_20
REMARK                            x       y       z     vdW  Elec       q    Type
REMARK                         _______ _______ _______ _____ _____    ______ ____
ROOT
ATOM      1  C   UNL     1       8.526   9.712  18.338  0.00  0.00    +0.000 A 
ATOM      2  C   UNL     1       9.495   9.944  19.326  0.00  0.00    +0.000 A 
ATOM      3  C   UNL     1      10.011  11.229  19.526  0.00  0.00    +0.000 A 
ATOM      4  C   UNL     1       9.554  12.300  18.755  0.00  0.00    +0.000 A 
ATOM      5  C   UNL     1       8.559  12.096  17.798  0.00  0.00    +0.000 A 
ATOM      6  C   UNL     1       8.077  10.802  17.577  0.00  0.00    +0.000 A 
ENDROOT
BRANCH   1  10
ATOM      7  C   UNL     1       6.721   6.943  17.121  0.00  0.00    +0.000 A 
ATOM      8  N   UNL     1       7.447   6.290  18.007  0.00  0.00    +0.000 NA
ATOM      9  N   UNL     1       8.246   7.230  18.627  0.00  0.00    +0.000 NA
ATOM     10  C   UNL     1       7.962   8.390  18.071  0.00  0.00    +0.000 A 
ATOM     11  O   UNL     1       7.007   8.285  17.098  0.00  0.00    +0.000 OA
BRANCH   7  12
ATOM     12  S   UNL     1       5.586   6.211  16.029  0.00  0.00    +0.000 S 
BRANCH  12  13
ATOM     13  C   UNL     1       4.856   4.909  17.068  0.00  0.00    +0.000 C 
BRANCH  13  15
ATOM     14  O   UNL     1       3.211   6.536  17.815  0.00  0.00    +0.000 OA
ATOM     15  C   UNL     1       3.626   5.380  17.827  0.00  0.00    +0.000 C 
BRANCH  15  16
ATOM     16  C   UNL     1       2.884   4.382  18.653  0.00  0.00    +0.000 A 
ATOM     17  C   UNL     1       3.418   3.827  19.822  0.00  0.00    +0.000 A 
ATOM     18  C   UNL     1       2.696   2.856  20.525  0.00  0.00    +0.000 A 
ATOM     19  C   UNL     1       1.444   2.443  20.070  0.00  0.00    +0.000 A 
ATOM     20  C   UNL     1       0.908   2.995  18.908  0.00  0.00    +0.000 A 
ATOM     21  C   UNL     1       1.628   3.957  18.198  0.00  0.00    +0.000 A 
ENDBRANCH  15  16
ENDBRANCH  13  15
ENDBRANCH  12  13
ENDBRANCH   7  12
ENDBRANCH   1  10
BRANCH   5  22
ATOM     22  N   UNL     1       8.133  13.193  17.026  0.00  0.00    +0.000 N 
ATOM     23  H   UNL     1       8.428  13.202  16.058  0.00  0.00    +0.000 HD
BRANCH  22  24
ATOM     24  C   UNL     1       7.624  14.394  17.458  0.00  0.00    +0.000 C 
ATOM     25  S   UNL     1       6.153  14.673  18.196  0.00  0.00    +0.000 S 
BRANCH  24  26
ATOM     26  N   UNL     1       8.459  15.465  17.278  0.00  0.00    +0.000 N 
ATOM     27  H   UNL     1       8.438  15.847  16.338  0.00  0.00    +0.000 HD
BRANCH  26  28
ATOM     28  C   UNL     1       9.654  15.740  18.072  0.00  0.00    +0.000 C 
BRANCH  28  29
ATOM     29  C   UNL     1      10.930  15.716  17.223  0.00  0.00    +0.000 C 
BRANCH  29  30
ATOM     30  O   UNL     1      10.615  15.969  15.856  0.00  0.00    +0.000 OA
ATOM     31  H   UNL     1      11.464  16.029  15.383  0.00  0.00    +0.000 HD
ENDBRANCH  29  30
ENDBRANCH  28  29
ENDBRANCH  26  28
ENDBRANCH  24  26
ENDBRANCH  22  24
ENDBRANCH   5  22
TORSDOF 11
ENDMDL
MODEL 2
REMARK VINA RESULT:      -7.4      5.881      8.959
REMARK  Name = 
REMARK  11 active torsions:
REMARK  status: ('A' for Active; 'I' for Inactive)
REMARK    1  A    between atoms: C_2  and  C_3
REMARK    2  A    between atoms: C_2  and  C_23
REMARK    3  A    between atoms: C_3  and  S_4
REMARK    4  A    between atoms: S_4  and  C_5
REMARK    5  A    between atoms: C_8  and  C_9
REMARK    6  A    between atoms: C_13  and  N_14
REMARK    7  A    between atoms: N_14  and  C_15
REMARK    8  A    between atoms: C_15  and  N_17
REMARK    9  A    between atoms: N_17  and  C_18
REMARK   10  A    between atoms: C_18  and  C_19
REMARK   11  A    between atoms: C_19  and  O_20
REMARK                            x       y       z     vdW  Elec       q    Type
REMARK                         _______ _______ _______ _____ _____    ______ ____
ROOT
ATOM      1  C   UNL     1       2.922   5.945  19.137  0.00  0.00    +0.000 A 
ATOM      2  C   UNL     1       2.177   4.963  19.806  0.00  0.00    +0.000 A 
ATOM      3  C   UNL     1       2.706   3.682  20.002  0.00  0.00    +0.000 A 
ATOM      4  C   UNL     1       3.989   3.373  19.547  0.00  0.00    +0.000 A 
ATOM      5  C   UNL     1       4.761   4.350  18.919  0.00  0.00    +0.000 A 
ATOM      6  C   UNL     1       4.210   5.616  18.691  0.00  0.00    +0.000 A 
ENDROOT
BRANCH   1  10
ATOM      7  C   UNL     1       1.512   9.166  19.351  0.00  0.00    +0.000 A 
ATOM      8  N   UNL     1       1.843   9.216  18.076  0.00  0.00    +0.000 NA
ATOM      9  N   UNL     1       2.424   8.000  17.775  0.00  0.00    +0.000 NA
ATOM     10  C   UNL     1       2.417   7.295  18.888  0.00  0.00    +0.000 A 
ATOM     11  O   UNL     1       1.860   7.975  19.936  0.00  0.00    +0.000 OA
BRANCH   7  12
ATOM     12  S   UNL     1       0.794  10.471  20.245  0.00  0.00    +0.000 S 
BRANCH  12  13
ATOM     13  C   UNL     1      -0.965  10.289  19.822  0.00  0.00    +0.000 C 
BRANCH  13  15
ATOM     14  O   UNL     1      -1.261  12.622  19.200  0.00  0.00    +0.000 OA
ATOM     15  C   UNL     1      -1.489  11.437  18.973  0.00  0.00    +0.000 C 
BRANCH  15  16
ATOM     16  C   UNL     1      -2.349  11.105  17.798  0.00  0.00    +0.000 A 
ATOM     17  C   UNL     1      -3.641  11.620  17.642  0.00  0.00    +0.000 A 
ATOM     18  C   UNL     1      -4.419  11.230  16.546  0.00  0.00    +0.000 A 
ATOM     19  C   UNL     1      -3.909  10.337  15.603  0.00  0.00    +0.000 A 
ATOM     20  C   UNL     1      -2.622   9.826  15.753  0.00  0.00    +0.000 A 
ATOM     21  C   UNL     1      -1.847  10.203  16.850  0.00  0.00    +0.000 A 
ENDBRANCH  15  16
ENDBRANCH  13  15
ENDBRANCH  12  13
ENDBRANCH   7  12
ENDBRANCH   1  10
BRANCH   5  22
ATOM     22  N   UNL     1       6.044   4.000  18.456  0.00  0.00    +0.000 N 
ATOM     23  H   UNL     1       6.340   3.049  18.633  0.00  0.00    +0.000 HD
BRANCH  22  24
ATOM     24  C   UNL     1       7.064   4.831  18.060  0.00  0.00    +0.000 C 
ATOM     25  S   UNL     1       7.893   5.944  18.986  0.00  0.00    +0.000 S 
BRANCH  24  26
ATOM     26  N   UNL     1       7.444   4.681  16.752  0.00  0.00    +0.000 N 
ATOM     27  H   UNL     1       8.177   5.322  16.462  0.00  0.00    +0.000 HD
BRANCH  26  28
ATOM     28  C   UNL     1       6.610   4.117  15.694  0.00  0.00    +0.000 C 
BRANCH  28  29
ATOM     29  C   UNL     1       5.460   5.053  15.305  0.00  0.00    +0.000 C 
BRANCH  29  30
ATOM     30  O   UNL     1       5.900   6.408  15.332  0.00  0.00    +0.000 OA
ATOM     31  H   UNL     1       5.233   6.905  15.841  0.00  0.00    +0.000 HD
ENDBRANCH  29  30
ENDBRANCH  28  29
ENDBRANCH  26  28
ENDBRANCH  24  26
ENDBRANCH  22  24
ENDBRANCH   5  22
TORSDOF 11
ENDMDL
MODEL 3
REMARK VINA RESULT:      -7.4      6.538      8.841
REMARK  Name = 
REMARK  11 active torsions:
REMARK  status: ('A' for Active; 'I' for Inactive)
REMARK    1  A    between atoms: C_2  and  C_3
REMARK    2  A    between atoms: C_2  and  C_23
REMARK    3  A    between atoms: C_3  and  S_4
REMARK    4  A    between atoms: S_4  and  C_5
REMARK    5  A    between atoms: C_8  and  C_9
REMARK    6  A    between atoms: C_13  and  N_14
REMARK    7  A    between atoms: N_14  and  C_15
REMARK    8  A    between atoms: C_15  and  N_17
REMARK    9  A    between atoms: N_17  and  C_18
REMARK   10  A    between atoms: C_18  and  C_19
REMARK   11  A    between atoms: C_19  and  O_20
REMARK                            x       y       z     vdW  Elec       q    Type
REMARK                         _______ _______ _______ _____ _____    ______ ____
ROOT
ATOM      1  C   UNL     1       0.341  10.260  19.593  0.00  0.00    +0.000 A 
ATOM      2  C   UNL     1       0.418  10.725  20.914  0.00  0.00    +0.000 A 
ATOM      3  C   UNL     1      -0.481  11.691  21.380  0.00  0.00    +0.000 A 
ATOM      4  C   UNL     1      -1.477  12.191  20.538  0.00  0.00    +0.000 A 
ATOM      5  C   UNL     1      -1.596  11.708  19.234  0.00  0.00    +0.000 A 
ATOM      6  C   UNL     1      -0.668  10.772  18.764  0.00  0.00    +0.000 A 
ENDROOT
BRANCH   1  10
ATOM      7  C   UNL     1       2.410   7.472  18.996  0.00  0.00    +0.000 A 
ATOM      8  N   UNL     1       2.620   8.082  17.847  0.00  0.00    +0.000 NA
ATOM      9  N   UNL     1       1.881   9.248  17.881  0.00  0.00    +0.000 NA
ATOM     10  C   UNL     1       1.262   9.266  19.044  0.00  0.00    +0.000 A 
ATOM     11  O   UNL     1       1.543   8.164  19.805  0.00  0.00    +0.000 OA
BRANCH   7  12
ATOM     12  S   UNL     1       3.068   5.927  19.439  0.00  0.00    +0.000 S 
BRANCH  12  13
ATOM     13  C   UNL     1       2.683   4.924  17.972  0.00  0.00    +0.000 C 
BRANCH  13  15
ATOM     14  O   UNL     1       3.623   2.687  18.136  0.00  0.00    +0.000 OA
ATOM     15  C   UNL     1       3.715   3.836  17.714  0.00  0.00    +0.000 C 
BRANCH  15  16
ATOM     16  C   UNL     1       4.925   4.191  16.914  0.00  0.00    +0.000 A 
ATOM     17  C   UNL     1       4.904   4.286  15.519  0.00  0.00    +0.000 A 
ATOM     18  C   UNL     1       6.083   4.570  14.821  0.00  0.00    +0.000 A 
ATOM     19  C   UNL     1       7.279   4.768  15.512  0.00  0.00    +0.000 A 
ATOM     20  C   UNL     1       7.303   4.678  16.902  0.00  0.00    +0.000 A 
ATOM     21  C   UNL     1       6.132   4.385  17.601  0.00  0.00    +0.000 A 
ENDBRANCH  15  16
ENDBRANCH  13  15
ENDBRANCH  12  13
ENDBRANCH   7  12
ENDBRANCH   1  10
BRANCH   5  22
ATOM     22  N   UNL     1      -2.599  12.246  18.406  0.00  0.00    +0.000 N 
ATOM     23  H   UNL     1      -2.865  13.205  18.589  0.00  0.00    +0.000 HD
BRANCH  22  24
ATOM     24  C   UNL     1      -3.471  11.580  17.580  0.00  0.00    +0.000 C 
ATOM     25  S   UNL     1      -4.950  10.918  17.977  0.00  0.00    +0.000 S 
BRANCH  24  26
ATOM     26  N   UNL     1      -3.065  11.494  16.274  0.00  0.00    +0.000 N 
ATOM     27  H   UNL     1      -3.381  12.267  15.695  0.00  0.00    +0.000 HD
BRANCH  26  28
ATOM     28  C   UNL     1      -2.718  10.255  15.582  0.00  0.00    +0.000 C 
BRANCH  28  29
ATOM     29  C   UNL     1      -3.442  10.122  14.238  0.00  0.00    +0.000 C 
BRANCH  29  30
ATOM     30  O   UNL     1      -2.509   9.805  13.208  0.00  0.00    +0.000 OA
ATOM     31  H   UNL     1      -2.457   8.832  13.172  0.00  0.00    +0.000 HD
ENDBRANCH  29  30
ENDBRANCH  28  29
ENDBRANCH  26  28
ENDBRANCH  24  26
ENDBRANCH  22  24
ENDBRANCH   5  22
TORSDOF 11
ENDMDL
MODEL 4
REMARK VINA RESULT:      -7.4      6.267      9.235
REMARK  Name = 
REMARK  11 active torsions:
REMARK  status: ('A' for Active; 'I' for Inactive)
REMARK    1  A    between atoms: C_2  and  C_3
REMARK    2  A    between atoms: C_2  and  C_23
REMARK    3  A    between atoms: C_3  and  S_4
REMARK    4  A    between atoms: S_4  and  C_5
REMARK    5  A    between atoms: C_8  and  C_9
REMARK    6  A    between atoms: C_13  and  N_14
REMARK    7  A    between atoms: N_14  and  C_15
REMARK    8  A    between atoms: C_15  and  N_17
REMARK    9  A    between atoms: N_17  and  C_18
REMARK   10  A    between atoms: C_18  and  C_19
REMARK   11  A    between atoms: C_19  and  O_20
REMARK                            x       y       z     vdW  Elec       q    Type
REMARK                         _______ _______ _______ _____ _____    ______ ____
ROOT
ATOM      1  C   UNL     1       2.463   5.794  19.973  0.00  0.00    +0.000 A 
ATOM      2  C   UNL     1       1.690   4.832  20.639  0.00  0.00    +0.000 A 
ATOM      3  C   UNL     1       2.142   3.513  20.753  0.00  0.00    +0.000 A 
ATOM      4  C   UNL     1       3.379   3.143  20.219  0.00  0.00    +0.000 A 
ATOM      5  C   UNL     1       4.181   4.098  19.592  0.00  0.00    +0.000 A 
ATOM      6  C   UNL     1       3.703   5.404  19.447  0.00  0.00    +0.000 A 
ENDROOT
BRANCH   1  10
ATOM      7  C   UNL     1       1.085   9.017  20.325  0.00  0.00    +0.000 A 
ATOM      8  N   UNL     1       1.659   9.210  19.155  0.00  0.00    +0.000 NA
ATOM      9  N   UNL     1       2.270   8.019  18.817  0.00  0.00    +0.000 NA
ATOM     10  C   UNL     1       2.036   7.183  19.808  0.00  0.00    +0.000 A 
ATOM     11  O   UNL     1       1.295   7.750  20.808  0.00  0.00    +0.000 OA
BRANCH   7  12
ATOM     12  S   UNL     1       0.225  10.229  21.226  0.00  0.00    +0.000 S 
BRANCH  12  13
ATOM     13  C   UNL     1       0.499  11.712  20.211  0.00  0.00    +0.000 C 
BRANCH  13  15
ATOM     14  O   UNL     1      -1.153  13.492  20.080  0.00  0.00    +0.000 OA
ATOM     15  C   UNL     1      -0.798  12.362  19.756  0.00  0.00    +0.000 C 
BRANCH  15  16
ATOM     16  C   UNL     1      -1.707  11.572  18.873  0.00  0.00    +0.000 A 
ATOM     17  C   UNL     1      -1.234  10.622  17.961  0.00  0.00    +0.000 A 
ATOM     18  C   UNL     1      -2.132   9.952  17.123  0.00  0.00    +0.000 A 
ATOM     19  C   UNL     1      -3.499  10.220  17.199  0.00  0.00    +0.000 A 
ATOM     20  C   UNL     1      -3.974  11.162  18.108  0.00  0.00    +0.000 A 
ATOM     21  C   UNL     1      -3.082  11.841  18.938  0.00  0.00    +0.000 A 
ENDBRANCH  15  16
ENDBRANCH  13  15
ENDBRANCH  12  13
ENDBRANCH   7  12
ENDBRANCH   1  10
BRANCH   5  22
ATOM     22  N   UNL     1       5.413   3.688  19.049  0.00  0.00    +0.000 N 
ATOM     23  H   UNL     1       5.955   3.039  19.604  0.00  0.00    +0.000 HD
BRANCH  22  24
ATOM     24  C   UNL     1       6.121   4.256  18.017  0.00  0.00    +0.000 C 
ATOM     25  S   UNL     1       7.450   5.259  18.121  0.00  0.00    +0.000 S 
BRANCH  24  26
ATOM     26  N   UNL     1       5.679   3.912  16.767  0.00  0.00    +0.000 N 
ATOM     27  H   UNL     1       5.712   2.914  16.580  0.00  0.00    +0.000 HD
BRANCH  26  28
ATOM     28  C   UNL     1       5.678   4.797  15.604  0.00  0.00    +0.000 C 
BRANCH  28  29
ATOM     29  C   UNL     1       6.712   4.374  14.555  0.00  0.00    +0.000 C 
BRANCH  29  30
ATOM     30  O   UNL     1       7.712   5.380  14.419  0.00  0.00    +0.000 OA
ATOM     31  H   UNL     1       8.048   5.314  13.506  0.00  0.00    +0.000 HD
ENDBRANCH  29  30
ENDBRANCH  28  29
ENDBRANCH  26  28
ENDBRANCH  24  26
ENDBRANCH  22  24
ENDBRANCH   5  22
TORSDOF 11
ENDMDL
MODEL 5
REMARK VINA RESULT:      -7.3      3.225      3.740
REMARK  Name = 
REMARK  11 active torsions:
REMARK  status: ('A' for Active; 'I' for Inactive)
REMARK    1  A    between atoms: C_2  and  C_3
REMARK    2  A    between atoms: C_2  and  C_23
REMARK    3  A    between atoms: C_3  and  S_4
REMARK    4  A    between atoms: S_4  and  C_5
REMARK    5  A    between atoms: C_8  and  C_9
REMARK    6  A    between atoms: C_13  and  N_14
REMARK    7  A    between atoms: N_14  and  C_15
REMARK    8  A    between atoms: C_15  and  N_17
REMARK    9  A    between atoms: N_17  and  C_18
REMARK   10  A    between atoms: C_18  and  C_19
REMARK   11  A    between atoms: C_19  and  O_20
REMARK                            x       y       z     vdW  Elec       q    Type
REMARK                         _______ _______ _______ _____ _____    ______ ____
ROOT
ATOM      1  C   UNL     1       9.188  10.145  18.708  0.00  0.00    +0.000 A 
ATOM      2  C   UNL     1      10.037  10.903  17.888  0.00  0.00    +0.000 A 
ATOM      3  C   UNL     1      10.757  11.981  18.415  0.00  0.00    +0.000 A 
ATOM      4  C   UNL     1      10.652  12.303  19.770  0.00  0.00    +0.000 A 
ATOM      5  C   UNL     1       9.846  11.532  20.610  0.00  0.00    +0.000 A 
ATOM      6  C   UNL     1       9.099  10.482  20.067  0.00  0.00    +0.000 A 
ENDROOT
BRANCH   1  10
ATOM      7  C   UNL     1       7.706   7.009  18.096  0.00  0.00    +0.000 A 
ATOM      8  N   UNL     1       7.027   7.690  17.195  0.00  0.00    +0.000 NA
ATOM      9  N   UNL     1       7.481   8.993  17.265  0.00  0.00    +0.000 NA
ATOM     10  C   UNL     1       8.398   9.020  18.211  0.00  0.00    +0.000 A 
ATOM     11  O   UNL     1       8.589   7.796  18.791  0.00  0.00    +0.000 OA
BRANCH   7  12
ATOM     12  S   UNL     1       7.476   5.324  18.453  0.00  0.00    +0.000 S 
BRANCH  12  13
ATOM     13  C   UNL     1       5.836   5.330  19.238  0.00  0.00    +0.000 C 
BRANCH  13  15
ATOM     14  O   UNL     1       5.046   3.884  17.449  0.00  0.00    +0.000 OA
ATOM     15  C   UNL     1       4.846   4.410  18.540  0.00  0.00    +0.000 C 
BRANCH  15  16
ATOM     16  C   UNL     1       3.540   4.144  19.214  0.00  0.00    +0.000 A 
ATOM     17  C   UNL     1       2.896   5.095  20.012  0.00  0.00    +0.000 A 
ATOM     18  C   UNL     1       1.700   4.768  20.661  0.00  0.00    +0.000 A 
ATOM     19  C   UNL     1       1.143   3.498  20.508  0.00  0.00    +0.000 A 
ATOM     20  C   UNL     1       1.779   2.549  19.712  0.00  0.00    +0.000 A 
ATOM     21  C   UNL     1       2.977   2.868  19.072  0.00  0.00    +0.000 A 
ENDBRANCH  15  16
ENDBRANCH  13  15
ENDBRANCH  12  13
ENDBRANCH   7  12
ENDBRANCH   1  10
BRANCH   5  22
ATOM     22  N   UNL     1       9.748  11.895  21.966  0.00  0.00    +0.000 N 
ATOM     23  H   UNL     1      10.499  11.584  22.569  0.00  0.00    +0.000 HD
BRANCH  22  24
ATOM     24  C   UNL     1       8.649  12.359  22.648  0.00  0.00    +0.000 C 
ATOM     25  S   UNL     1       7.976  11.738  24.043  0.00  0.00    +0.000 S 
BRANCH  24  26
ATOM     26  N   UNL     1       8.081  13.485  22.113  0.00  0.00    +0.000 N 
ATOM     27  H   UNL     1       8.655  13.938  21.408  0.00  0.00    +0.000 HD
BRANCH  26  28
ATOM     28  C   UNL     1       7.077  14.314  22.775  0.00  0.00    +0.000 C 
BRANCH  28  29
ATOM     29  C   UNL     1       5.715  14.242  22.075  0.00  0.00    +0.000 C 
BRANCH  29  30
ATOM     30  O   UNL     1       4.869  13.311  22.744  0.00  0.00    +0.000 OA
ATOM     31  H   UNL     1       4.981  12.458  22.287  0.00  0.00    +0.000 HD
ENDBRANCH  29  30
ENDBRANCH  28  29
ENDBRANCH  26  28
ENDBRANCH  24  26
ENDBRANCH  22  24
ENDBRANCH   5  22
TORSDOF 11
ENDMDL
MODEL 6
REMARK VINA RESULT:      -7.3      2.900      3.292
REMARK  Name = 
REMARK  11 active torsions:
REMARK  status: ('A' for Active; 'I' for Inactive)
REMARK    1  A    between atoms: C_2  and  C_3
REMARK    2  A    between atoms: C_2  and  C_23
REMARK    3  A    between atoms: C_3  and  S_4
REMARK    4  A    between atoms: S_4  and  C_5
REMARK    5  A    between atoms: C_8  and  C_9
REMARK    6  A    between atoms: C_13  and  N_14
REMARK    7  A    between atoms: N_14  and  C_15
REMARK    8  A    between atoms: C_15  and  N_17
REMARK    9  A    between atoms: N_17  and  C_18
REMARK   10  A    between atoms: C_18  and  C_19
REMARK   11  A    between atoms: C_19  and  O_20
REMARK                            x       y       z     vdW  Elec       q    Type
REMARK                         _______ _______ _______ _____ _____    ______ ____
ROOT
ATOM      1  C   UNL     1       9.167  10.158  18.692  0.00  0.00    +0.000 A 
ATOM      2  C   UNL     1       9.974  10.946  17.859  0.00  0.00    +0.000 A 
ATOM      3  C   UNL     1      10.693  12.026  18.382  0.00  0.00    +0.000 A 
ATOM      4  C   UNL     1      10.629  12.320  19.746  0.00  0.00    +0.000 A 
ATOM      5  C   UNL     1       9.866  11.520  20.597  0.00  0.00    +0.000 A 
ATOM      6  C   UNL     1       9.118  10.467  20.059  0.00  0.00    +0.000 A 
ENDROOT
BRANCH   1  10
ATOM      7  C   UNL     1       7.708   7.011  18.079  0.00  0.00    +0.000 A 
ATOM      8  N   UNL     1       7.003   7.693  17.199  0.00  0.00    +0.000 NA
ATOM      9  N   UNL     1       7.443   9.000  17.273  0.00  0.00    +0.000 NA
ATOM     10  C   UNL     1       8.380   9.028  18.200  0.00  0.00    +0.000 A 
ATOM     11  O   UNL     1       8.597   7.801  18.763  0.00  0.00    +0.000 OA
BRANCH   7  12
ATOM     12  S   UNL     1       7.505   5.320  18.423  0.00  0.00    +0.000 S 
BRANCH  12  13
ATOM     13  C   UNL     1       5.872   5.296  19.223  0.00  0.00    +0.000 C 
BRANCH  13  15
ATOM     14  O   UNL     1       4.927   4.486  17.133  0.00  0.00    +0.000 OA
ATOM     15  C   UNL     1       4.789   4.705  18.333  0.00  0.00    +0.000 C 
BRANCH  15  16
ATOM     16  C   UNL     1       3.468   4.387  18.952  0.00  0.00    +0.000 A 
ATOM     17  C   UNL     1       2.667   3.327  18.514  0.00  0.00    +0.000 A 
ATOM     18  C   UNL     1       1.414   3.112  19.099  0.00  0.00    +0.000 A 
ATOM     19  C   UNL     1       0.963   3.946  20.123  0.00  0.00    +0.000 A 
ATOM     20  C   UNL     1       1.759   5.000  20.564  0.00  0.00    +0.000 A 
ATOM     21  C   UNL     1       3.005   5.225  19.976  0.00  0.00    +0.000 A 
ENDBRANCH  15  16
ENDBRANCH  13  15
ENDBRANCH  12  13
ENDBRANCH   7  12
ENDBRANCH   1  10
BRANCH   5  22
ATOM     22  N   UNL     1       9.809  11.855  21.963  0.00  0.00    +0.000 N 
ATOM     23  H   UNL     1      10.510  11.433  22.559  0.00  0.00    +0.000 HD
BRANCH  22  24
ATOM     24  C   UNL     1       8.775  12.437  22.656  0.00  0.00    +0.000 C 
ATOM     25  S   UNL     1       7.786  11.730  23.798  0.00  0.00    +0.000 S 
BRANCH  24  26
ATOM     26  N   UNL     1       8.579  13.764  22.377  0.00  0.00    +0.000 N 
ATOM     27  H   UNL     1       9.346  14.361  22.671  0.00  0.00    +0.000 HD
BRANCH  26  28
ATOM     28  C   UNL     1       7.277  14.403  22.209  0.00  0.00    +0.000 C 
BRANCH  28  29
ATOM     29  C   UNL     1       7.145  15.098  20.849  0.00  0.00    +0.000 C 
BRANCH  29  30
ATOM     30  O   UNL     1       7.731  14.295  19.829  0.00  0.00    +0.000 OA
ATOM     31  H   UNL     1       8.547  13.920  20.206  0.00  0.00    +0.000 HD
ENDBRANCH  29  30
ENDBRANCH  28  29
ENDBRANCH  26  28
ENDBRANCH  24  26
ENDBRANCH  22  24
ENDBRANCH   5  22
TORSDOF 11
ENDMDL
MODEL 7
REMARK VINA RESULT:      -7.3      5.520      8.963
REMARK  Name = 
REMARK  11 active torsions:
REMARK  status: ('A' for Active; 'I' for Inactive)
REMARK    1  A    between atoms: C_2  and  C_3
REMARK    2  A    between atoms: C_2  and  C_23
REMARK    3  A    between atoms: C_3  and  S_4
REMARK    4  A    between atoms: S_4  and  C_5
REMARK    5  A    between atoms: C_8  and  C_9
REMARK    6  A    between atoms: C_13  and  N_14
REMARK    7  A    between atoms: N_14  and  C_15
REMARK    8  A    between atoms: C_15  and  N_17
REMARK    9  A    between atoms: N_17  and  C_18
REMARK   10  A    between atoms: C_18  and  C_19
REMARK   11  A    between atoms: C_19  and  O_20
REMARK                            x       y       z     vdW  Elec       q    Type
REMARK                         _______ _______ _______ _____ _____    ______ ____
ROOT
ATOM      1  C   UNL     1       2.628   5.352  18.547  0.00  0.00    +0.000 A 
ATOM      2  C   UNL     1       1.734   4.310  18.261  0.00  0.00    +0.000 A 
ATOM      3  C   UNL     1       2.192   3.118  17.689  0.00  0.00    +0.000 A 
ATOM      4  C   UNL     1       3.550   2.946  17.411  0.00  0.00    +0.000 A 
ATOM      5  C   UNL     1       4.460   3.955  17.730  0.00  0.00    +0.000 A 
ATOM      6  C   UNL     1       3.989   5.159  18.264  0.00  0.00    +0.000 A 
ENDROOT
BRANCH   1  10
ATOM      7  C   UNL     1       1.653   8.682  19.153  0.00  0.00    +0.000 A 
ATOM      8  N   UNL     1       1.566   8.256  20.397  0.00  0.00    +0.000 NA
ATOM      9  N   UNL     1       1.932   6.925  20.381  0.00  0.00    +0.000 NA
ATOM     10  C   UNL     1       2.207   6.626  19.128  0.00  0.00    +0.000 A 
ATOM     11  O   UNL     1       2.043   7.692  18.287  0.00  0.00    +0.000 OA
BRANCH   7  12
ATOM     12  S   UNL     1       1.244  10.284  18.617  0.00  0.00    +0.000 S 
BRANCH  12  13
ATOM     13  C   UNL     1      -0.309  10.590  19.510  0.00  0.00    +0.000 C 
BRANCH  13  15
ATOM     14  O   UNL     1      -0.665  12.982  19.247  0.00  0.00    +0.000 OA
ATOM     15  C   UNL     1      -1.035  11.833  19.019  0.00  0.00    +0.000 C 
BRANCH  15  16
ATOM     16  C   UNL     1      -2.287  11.648  18.226  0.00  0.00    +0.000 A 
ATOM     17  C   UNL     1      -3.557  11.905  18.754  0.00  0.00    +0.000 A 
ATOM     18  C   UNL     1      -4.697  11.661  17.978  0.00  0.00    +0.000 A 
ATOM     19  C   UNL     1      -4.571  11.171  16.678  0.00  0.00    +0.000 A 
ATOM     20  C   UNL     1      -3.308  10.918  16.148  0.00  0.00    +0.000 A 
ATOM     21  C   UNL     1      -2.170  11.149  16.921  0.00  0.00    +0.000 A 
ENDBRANCH  15  16
ENDBRANCH  13  15
ENDBRANCH  12  13
ENDBRANCH   7  12
ENDBRANCH   1  10
BRANCH   5  22
ATOM     22  N   UNL     1       5.819   3.757  17.420  0.00  0.00    +0.000 N 
ATOM     23  H   UNL     1       6.373   3.280  18.119  0.00  0.00    +0.000 HD
BRANCH  22  24
ATOM     24  C   UNL     1       6.569   4.366  16.444  0.00  0.00    +0.000 C 
ATOM     25  S   UNL     1       6.377   4.254  14.790  0.00  0.00    +0.000 S 
BRANCH  24  26
ATOM     26  N   UNL     1       7.563   5.183  16.915  0.00  0.00    +0.000 N 
ATOM     27  H   UNL     1       8.450   5.069  16.433  0.00  0.00    +0.000 HD
BRANCH  26  28
ATOM     28  C   UNL     1       7.616   5.752  18.259  0.00  0.00    +0.000 C 
BRANCH  28  29
ATOM     29  C   UNL     1       7.970   7.243  18.243  0.00  0.00    +0.000 C 
BRANCH  29  30
ATOM     30  O   UNL     1       7.419   7.865  17.085  0.00  0.00    +0.000 OA
ATOM     31  H   UNL     1       7.518   7.228  16.355  0.00  0.00    +0.000 HD
ENDBRANCH  29  30
ENDBRANCH  28  29
ENDBRANCH  26  28
ENDBRANCH  24  26
ENDBRANCH  22  24
ENDBRANCH   5  22
TORSDOF 11
ENDMDL
MODEL 8
REMARK VINA RESULT:      -7.3      6.204      9.363
REMARK  Name = 
REMARK  11 active torsions:
REMARK  status: ('A' for Active; 'I' for Inactive)
REMARK    1  A    between atoms: C_2  and  C_3
REMARK    2  A    between atoms: C_2  and  C_23
REMARK    3  A    between atoms: C_3  and  S_4
REMARK    4  A    between atoms: S_4  and  C_5
REMARK    5  A    between atoms: C_8  and  C_9
REMARK    6  A    between atoms: C_13  and  N_14
REMARK    7  A    between atoms: N_14  and  C_15
REMARK    8  A    between atoms: C_15  and  N_17
REMARK    9  A    between atoms: N_17  and  C_18
REMARK   10  A    between atoms: C_18  and  C_19
REMARK   11  A    between atoms: C_19  and  O_20
REMARK                            x       y       z     vdW  Elec       q    Type
REMARK                         _______ _______ _______ _____ _____    ______ ____
ROOT
ATOM      1  C   UNL     1       2.671   5.567  19.493  0.00  0.00    +0.000 A 
ATOM      2  C   UNL     1       1.893   4.407  19.365  0.00  0.00    +0.000 A 
ATOM      3  C   UNL     1       2.491   3.183  19.046  0.00  0.00    +0.000 A 
ATOM      4  C   UNL     1       3.874   3.099  18.870  0.00  0.00    +0.000 A 
ATOM      5  C   UNL     1       4.668   4.234  19.037  0.00  0.00    +0.000 A 
ATOM      6  C   UNL     1       4.058   5.461  19.315  0.00  0.00    +0.000 A 
ENDROOT
BRANCH   1  10
ATOM      7  C   UNL     1       1.514   8.894  19.457  0.00  0.00    +0.000 A 
ATOM      8  N   UNL     1       1.154   8.608  20.692  0.00  0.00    +0.000 NA
ATOM      9  N   UNL     1       1.541   7.302  20.920  0.00  0.00    +0.000 NA
ATOM     10  C   UNL     1       2.101   6.876  19.806  0.00  0.00    +0.000 A 
ATOM     11  O   UNL     1       2.112   7.831  18.827  0.00  0.00    +0.000 OA
BRANCH   7  12
ATOM     12  S   UNL     1       1.205  10.403  18.653  0.00  0.00    +0.000 S 
BRANCH  12  13
ATOM     13  C   UNL     1      -0.524  10.199  18.129  0.00  0.00    +0.000 C 
BRANCH  13  15
ATOM     14  O   UNL     1      -1.266  11.340  20.145  0.00  0.00    +0.000 OA
ATOM     15  C   UNL     1      -1.497  10.987  18.992  0.00  0.00    +0.000 C 
BRANCH  15  16
ATOM     16  C   UNL     1      -2.826  11.340  18.408  0.00  0.00    +0.000 A 
ATOM     17  C   UNL     1      -3.820  11.998  19.141  0.00  0.00    +0.000 A 
ATOM     18  C   UNL     1      -5.065  12.254  18.555  0.00  0.00    +0.000 A 
ATOM     19  C   UNL     1      -5.316  11.863  17.240  0.00  0.00    +0.000 A 
ATOM     20  C   UNL     1      -4.328  11.210  16.506  0.00  0.00    +0.000 A 
ATOM     21  C   UNL     1      -3.089  10.944  17.089  0.00  0.00    +0.000 A 
ENDBRANCH  15  16
ENDBRANCH  13  15
ENDBRANCH  12  13
ENDBRANCH   7  12
ENDBRANCH   1  10
BRANCH   5  22
ATOM     22  N   UNL     1       6.056   4.119  18.834  0.00  0.00    +0.000 N 
ATOM     23  H   UNL     1       6.575   3.624  19.548  0.00  0.00    +0.000 HD
BRANCH  22  24
ATOM     24  C   UNL     1       6.852   4.822  17.962  0.00  0.00    +0.000 C 
ATOM     25  S   UNL     1       7.526   6.332  18.185  0.00  0.00    +0.000 S 
BRANCH  24  26
ATOM     26  N   UNL     1       7.134   4.165  16.792  0.00  0.00    +0.000 N 
ATOM     27  H   UNL     1       7.772   3.384  16.906  0.00  0.00    +0.000 HD
BRANCH  26  28
ATOM     28  C   UNL     1       7.044   4.752  15.458  0.00  0.00    +0.000 C 
BRANCH  28  29
ATOM     29  C   UNL     1       5.876   4.176  14.650  0.00  0.00    +0.000 C 
BRANCH  29  30
ATOM     30  O   UNL     1       6.367   3.358  13.592  0.00  0.00    +0.000 OA
ATOM     31  H   UNL     1       7.255   3.061  13.861  0.00  0.00    +0.000 HD
ENDBRANCH  29  30
ENDBRANCH  28  29
ENDBRANCH  26  28
ENDBRANCH  24  26
ENDBRANCH  22  24
ENDBRANCH   5  22
TORSDOF 11
ENDMDL
MODEL 9
REMARK VINA RESULT:      -7.3      6.205      7.644
REMARK  Name = 
REMARK  11 active torsions:
REMARK  status: ('A' for Active; 'I' for Inactive)
REMARK    1  A    between atoms: C_2  and  C_3
REMARK    2  A    between atoms: C_2  and  C_23
REMARK    3  A    between atoms: C_3  and  S_4
REMARK    4  A    between atoms: S_4  and  C_5
REMARK    5  A    between atoms: C_8  and  C_9
REMARK    6  A    between atoms: C_13  and  N_14
REMARK    7  A    between atoms: N_14  and  C_15
REMARK    8  A    between atoms: C_15  and  N_17
REMARK    9  A    between atoms: N_17  and  C_18
REMARK   10  A    between atoms: C_18  and  C_19
REMARK   11  A    between atoms: C_19  and  O_20
REMARK                            x       y       z     vdW  Elec       q    Type
REMARK                         _______ _______ _______ _____ _____    ______ ____
ROOT
ATOM      1  C   UNL     1       2.008   8.236  19.122  0.00  0.00    +0.000 A 
ATOM      2  C   UNL     1       1.620   7.956  20.441  0.00  0.00    +0.000 A 
ATOM      3  C   UNL     1       0.675   8.759  21.088  0.00  0.00    +0.000 A 
ATOM      4  C   UNL     1       0.094   9.841  20.422  0.00  0.00    +0.000 A 
ATOM      5  C   UNL     1       0.436  10.108  19.096  0.00  0.00    +0.000 A 
ATOM      6  C   UNL     1       1.411   9.325  18.469  0.00  0.00    +0.000 A 
ENDROOT
BRANCH   1  10
ATOM      7  C   UNL     1       4.425   5.889  18.095  0.00  0.00    +0.000 A 
ATOM      8  N   UNL     1       4.365   6.568  16.967  0.00  0.00    +0.000 NA
ATOM      9  N   UNL     1       3.447   7.580  17.167  0.00  0.00    +0.000 NA
ATOM     10  C   UNL     1       3.002   7.444  18.400  0.00  0.00    +0.000 A 
ATOM     11  O   UNL     1       3.572   6.384  19.049  0.00  0.00    +0.000 OA
BRANCH   7  12
ATOM     12  S   UNL     1       5.396   4.471  18.355  0.00  0.00    +0.000 S 
BRANCH  12  13
ATOM     13  C   UNL     1       4.532   3.237  17.336  0.00  0.00    +0.000 C 
BRANCH  13  15
ATOM     14  O   UNL     1       2.201   3.290  16.641  0.00  0.00    +0.000 OA
ATOM     15  C   UNL     1       3.026   3.246  17.550  0.00  0.00    +0.000 C 
BRANCH  15  16
ATOM     16  C   UNL     1       2.516   3.219  18.954  0.00  0.00    +0.000 A 
ATOM     17  C   UNL     1       1.387   3.939  19.359  0.00  0.00    +0.000 A 
ATOM     18  C   UNL     1       0.989   3.915  20.700  0.00  0.00    +0.000 A 
ATOM     19  C   UNL     1       1.709   3.170  21.634  0.00  0.00    +0.000 A 
ATOM     20  C   UNL     1       2.832   2.449  21.234  0.00  0.00    +0.000 A 
ATOM     21  C   UNL     1       3.238   2.478  19.900  0.00  0.00    +0.000 A 
ENDBRANCH  15  16
ENDBRANCH  13  15
ENDBRANCH  12  13
ENDBRANCH   7  12
ENDBRANCH   1  10
BRANCH   5  22
ATOM     22  N   UNL     1      -0.154  11.216  18.460  0.00  0.00    +0.000 N 
ATOM     23  H   UNL     1       0.385  12.073  18.460  0.00  0.00    +0.000 HD
BRANCH  22  24
ATOM     24  C   UNL     1      -1.466  11.390  18.092  0.00  0.00    +0.000 C 
ATOM     25  S   UNL     1      -2.727  11.939  19.037  0.00  0.00    +0.000 S 
BRANCH  24  26
ATOM     26  N   UNL     1      -1.733  11.101  16.779  0.00  0.00    +0.000 N 
ATOM     27  H   UNL     1      -1.358  11.782  16.126  0.00  0.00    +0.000 HD
BRANCH  26  28
ATOM     28  C   UNL     1      -2.851  10.287  16.310  0.00  0.00    +0.000 C 
BRANCH  28  29
ATOM     29  C   UNL     1      -3.377  10.758  14.949  0.00  0.00    +0.000 C 
BRANCH  29  30
ATOM     30  O   UNL     1      -4.298   9.806  14.423  0.00  0.00    +0.000 OA
ATOM     31  H   UNL     1      -5.149  10.269  14.326  0.00  0.00    +0.000 HD
ENDBRANCH  29  30
ENDBRANCH  28  29
ENDBRANCH  26  28
ENDBRANCH  24  26
ENDBRANCH  22  24
ENDBRANCH   5  22
TORSDOF 11
ENDMDL
