MODEL 1
REMARK VINA RESULT:      -8.3      0.000      0.000
REMARK  Name = 
REMARK  9 active torsions:
REMARK  status: ('A' for Active; 'I' for Inactive)
REMARK    1  A    between atoms: C_1  and  C_2
REMARK    2  A    between atoms: C_5  and  C_6
REMARK    3  A    between atoms: C_6  and  O_8
REMARK    4  A    between atoms: O_8  and  C_9
REMARK    5  A    between atoms: C_9  and  C_10
REMARK    6  A    between atoms: C_14  and  C_15
REMARK    7  A    between atoms: C_17  and  C_18
REMARK    8  A    between atoms: C_21  and  S_22
REMARK    9  A    between atoms: S_22  and  N_25
REMARK                            x       y       z     vdW  Elec       q    Type
REMARK                         _______ _______ _______ _____ _____    ______ ____
ROOT
ATOM      1  C   UNL     1       3.149   2.575  20.766  0.00  0.00    +0.000 C 
ATOM      2  C   UNL     1       2.649   3.902  20.262  0.00  0.00    +0.000 A 
ATOM      3  C   UNL     1       1.489   4.412  20.867  0.00  0.00    +0.000 A 
ATOM      4  C   UNL     1       1.137   5.740  20.695  0.00  0.00    +0.000 A 
ATOM      5  C   UNL     1       1.950   6.577  19.931  0.00  0.00    +0.000 A 
ATOM      6  C   UNL     1       3.034   6.049  19.201  0.00  0.00    +0.000 A 
ATOM      7  C   UNL     1       3.384   4.698  19.348  0.00  0.00    +0.000 A 
ENDROOT
BRANCH   7   8
ATOM      8  S   UNL     1       4.724   3.932  18.426  0.00  0.00    +0.000 S 
ATOM      9  O   UNL     1       5.731   3.610  19.411  0.00  0.00    +0.000 OA
ATOM     10  O   UNL     1       4.101   2.908  17.609  0.00  0.00    +0.000 OA
BRANCH   8  11
ATOM     11  N   UNL     1       5.398   5.044  17.387  0.00  0.00    +0.000 NA
ATOM     12  C   UNL     1       6.041   6.293  17.820  0.00  0.00    +0.000 C 
ATOM     13  C   UNL     1       7.439   6.383  17.188  0.00  0.00    +0.000 C 
ATOM     14  O   UNL     1       7.445   6.130  15.769  0.00  0.00    +0.000 OA
ATOM     15  C   UNL     1       6.756   4.924  15.394  0.00  0.00    +0.000 C 
ATOM     16  C   UNL     1       5.325   4.925  15.923  0.00  0.00    +0.000 C 
ENDBRANCH   8  11
ENDBRANCH   7   8
BRANCH   5  17
ATOM     17  C   UNL     1       1.602   8.016  19.962  0.00  0.00    +0.000 C 
ATOM     18  O   UNL     1       1.980   8.820  19.121  0.00  0.00    +0.000 OA
BRANCH  17  19
ATOM     19  O   UNL     1       0.827   8.306  21.033  0.00  0.00    +0.000 OA
BRANCH  19  20
ATOM     20  C   UNL     1       1.382   9.375  21.799  0.00  0.00    +0.000 C 
BRANCH  20  21
ATOM     21  C   UNL     1       0.301   9.957  22.702  0.00  0.00    +0.000 C 
ATOM     22  O   UNL     1       0.235   9.630  23.893  0.00  0.00    +0.000 OA
ATOM     23  N   UNL     1      -0.582  10.862  22.142  0.00  0.00    +0.000 N 
ATOM     24  C   UNL     1      -1.520  11.570  23.009  0.00  0.00    +0.000 C 
ATOM     25  C   UNL     1      -1.365  13.087  22.831  0.00  0.00    +0.000 C 
ATOM     26  C   UNL     1      -2.369  13.834  23.703  0.00  0.00    +0.000 C 
ATOM     27  C   UNL     1      -1.513  13.467  21.352  0.00  0.00    +0.000 C 
ATOM     28  C   UNL     1      -0.520  12.679  20.480  0.00  0.00    +0.000 C 
ATOM     29  C   UNL     1      -0.705  13.000  19.002  0.00  0.00    +0.000 C 
ATOM     30  C   UNL     1      -0.678  11.175  20.720  0.00  0.00    +0.000 C 
ENDBRANCH  20  21
ENDBRANCH  19  20
ENDBRANCH  17  19
ENDBRANCH   5  17
TORSDOF 6
ENDMDL
MODEL 2
REMARK VINA RESULT:      -8.1      2.764      8.768
REMARK  Name = 
REMARK  9 active torsions:
REMARK  status: ('A' for Active; 'I' for Inactive)
REMARK    1  A    between atoms: C_1  and  C_2
REMARK    2  A    between atoms: C_5  and  C_6
REMARK    3  A    between atoms: C_6  and  O_8
REMARK    4  A    between atoms: O_8  and  C_9
REMARK    5  A    between atoms: C_9  and  C_10
REMARK    6  A    between atoms: C_14  and  C_15
REMARK    7  A    between atoms: C_17  and  C_18
REMARK    8  A    between atoms: C_21  and  S_22
REMARK    9  A    between atoms: S_22  and  N_25
REMARK                            x       y       z     vdW  Elec       q    Type
REMARK                         _______ _______ _______ _____ _____    ______ ____
ROOT
ATOM      1  C   UNL     1       2.091  10.542  18.344  0.00  0.00    +0.000 C 
ATOM      2  C   UNL     1       1.765   9.162  18.852  0.00  0.00    +0.000 A 
ATOM      3  C   UNL     1       2.232   8.081  18.088  0.00  0.00    +0.000 A 
ATOM      4  C   UNL     1       2.255   6.804  18.623  0.00  0.00    +0.000 A 
ATOM      5  C   UNL     1       1.828   6.597  19.934  0.00  0.00    +0.000 A 
ATOM      6  C   UNL     1       1.223   7.643  20.663  0.00  0.00    +0.000 A 
ATOM      7  C   UNL     1       1.172   8.935  20.119  0.00  0.00    +0.000 A 
ENDROOT
BRANCH   7   8
ATOM      8  S   UNL     1       0.384  10.316  20.959  0.00  0.00    +0.000 S 
ATOM      9  O   UNL     1      -0.361   9.726  22.047  0.00  0.00    +0.000 OA
ATOM     10  O   UNL     1       1.439  11.285  21.192  0.00  0.00    +0.000 OA
BRANCH   8  11
ATOM     11  N   UNL     1      -0.724  11.032  19.944  0.00  0.00    +0.000 NA
ATOM     12  C   UNL     1      -0.898  12.485  19.807  0.00  0.00    +0.000 C 
ATOM     13  C   UNL     1      -0.826  12.862  18.319  0.00  0.00    +0.000 C 
ATOM     14  O   UNL     1      -1.664  12.044  17.478  0.00  0.00    +0.000 OA
ATOM     15  C   UNL     1      -1.493  10.632  17.690  0.00  0.00    +0.000 C 
ATOM     16  C   UNL     1      -1.705  10.269  19.156  0.00  0.00    +0.000 C 
ENDBRANCH   8  11
ENDBRANCH   7   8
BRANCH   5  17
ATOM     17  C   UNL     1       2.068   5.243  20.484  0.00  0.00    +0.000 C 
ATOM     18  O   UNL     1       2.648   5.037  21.541  0.00  0.00    +0.000 OA
BRANCH  17  19
ATOM     19  O   UNL     1       1.566   4.290  19.665  0.00  0.00    +0.000 OA
BRANCH  19  20
ATOM     20  C   UNL     1       2.506   3.236  19.461  0.00  0.00    +0.000 C 
BRANCH  20  21
ATOM     21  C   UNL     1       2.952   3.236  18.004  0.00  0.00    +0.000 C 
ATOM     22  O   UNL     1       2.173   2.887  17.110  0.00  0.00    +0.000 OA
ATOM     23  N   UNL     1       4.244   3.647  17.730  0.00  0.00    +0.000 N 
ATOM     24  C   UNL     1       4.653   3.824  16.339  0.00  0.00    +0.000 C 
ATOM     25  C   UNL     1       5.188   5.247  16.122  0.00  0.00    +0.000 C 
ATOM     26  C   UNL     1       5.656   5.430  14.682  0.00  0.00    +0.000 C 
ATOM     27  C   UNL     1       6.311   5.552  17.121  0.00  0.00    +0.000 C 
ATOM     28  C   UNL     1       5.837   5.328  18.568  0.00  0.00    +0.000 C 
ATOM     29  C   UNL     1       6.966   5.562  19.564  0.00  0.00    +0.000 C 
ATOM     30  C   UNL     1       5.273   3.914  18.730  0.00  0.00    +0.000 C 
ENDBRANCH  20  21
ENDBRANCH  19  20
ENDBRANCH  17  19
ENDBRANCH   5  17
TORSDOF 6
ENDMDL
MODEL 3
REMARK VINA RESULT:      -8.1      1.638      2.091
REMARK  Name = 
REMARK  9 active torsions:
REMARK  status: ('A' for Active; 'I' for Inactive)
REMARK    1  A    between atoms: C_1  and  C_2
REMARK    2  A    between atoms: C_5  and  C_6
REMARK    3  A    between atoms: C_6  and  O_8
REMARK    4  A    between atoms: O_8  and  C_9
REMARK    5  A    between atoms: C_9  and  C_10
REMARK    6  A    between atoms: C_14  and  C_15
REMARK    7  A    between atoms: C_17  and  C_18
REMARK    8  A    between atoms: C_21  and  S_22
REMARK    9  A    between atoms: S_22  and  N_25
REMARK                            x       y       z     vdW  Elec       q    Type
REMARK                         _______ _______ _______ _____ _____    ______ ____
ROOT
ATOM      1  C   UNL     1       2.810   3.092  21.162  0.00  0.00    +0.000 C 
ATOM      2  C   UNL     1       2.532   4.277  20.275  0.00  0.00    +0.000 A 
ATOM      3  C   UNL     1       1.487   5.129  20.670  0.00  0.00    +0.000 A 
ATOM      4  C   UNL     1       1.361   6.387  20.106  0.00  0.00    +0.000 A 
ATOM      5  C   UNL     1       2.287   6.814  19.155  0.00  0.00    +0.000 A 
ATOM      6  C   UNL     1       3.251   5.921  18.644  0.00  0.00    +0.000 A 
ATOM      7  C   UNL     1       3.371   4.634  19.192  0.00  0.00    +0.000 A 
ENDROOT
BRANCH   7   8
ATOM      8  S   UNL     1       4.542   3.417  18.575  0.00  0.00    +0.000 S 
ATOM      9  O   UNL     1       5.333   3.032  19.721  0.00  0.00    +0.000 OA
ATOM     10  O   UNL     1       3.750   2.452  17.835  0.00  0.00    +0.000 OA
BRANCH   8  11
ATOM     11  N   UNL     1       5.578   4.136  17.488  0.00  0.00    +0.000 NA
ATOM     12  C   UNL     1       5.335   4.208  16.040  0.00  0.00    +0.000 C 
ATOM     13  C   UNL     1       5.480   5.666  15.579  0.00  0.00    +0.000 C 
ATOM     14  O   UNL     1       6.686   6.301  16.048  0.00  0.00    +0.000 OA
ATOM     15  C   UNL     1       6.904   6.155  17.462  0.00  0.00    +0.000 C 
ATOM     16  C   UNL     1       6.889   4.684  17.869  0.00  0.00    +0.000 C 
ENDBRANCH   8  11
ENDBRANCH   7   8
BRANCH   5  17
ATOM     17  C   UNL     1       2.189   8.236  18.752  0.00  0.00    +0.000 C 
ATOM     18  O   UNL     1       2.621   8.669  17.693  0.00  0.00    +0.000 OA
BRANCH  17  19
ATOM     19  O   UNL     1       1.570   8.969  19.706  0.00  0.00    +0.000 OA
BRANCH  19  20
ATOM     20  C   UNL     1       1.342  10.307  19.264  0.00  0.00    +0.000 C 
BRANCH  20  21
ATOM     21  C   UNL     1       0.517  11.047  20.311  0.00  0.00    +0.000 C 
ATOM     22  O   UNL     1       1.069  11.600  21.268  0.00  0.00    +0.000 OA
ATOM     23  N   UNL     1      -0.855  11.079  20.138  0.00  0.00    +0.000 N 
ATOM     24  C   UNL     1      -1.663  11.918  21.019  0.00  0.00    +0.000 C 
ATOM     25  C   UNL     1      -2.508  12.896  20.191  0.00  0.00    +0.000 C 
ATOM     26  C   UNL     1      -3.386  13.749  21.102  0.00  0.00    +0.000 C 
ATOM     27  C   UNL     1      -3.345  12.132  19.157  0.00  0.00    +0.000 C 
ATOM     28  C   UNL     1      -2.452  11.248  18.270  0.00  0.00    +0.000 C 
ATOM     29  C   UNL     1      -3.282  10.434  17.285  0.00  0.00    +0.000 C 
ATOM     30  C   UNL     1      -1.596  10.320  19.136  0.00  0.00    +0.000 C 
ENDBRANCH  20  21
ENDBRANCH  19  20
ENDBRANCH  17  19
ENDBRANCH   5  17
TORSDOF 6
ENDMDL
MODEL 4
REMARK VINA RESULT:      -8.0      2.011      3.983
REMARK  Name = 
REMARK  9 active torsions:
REMARK  status: ('A' for Active; 'I' for Inactive)
REMARK    1  A    between atoms: C_1  and  C_2
REMARK    2  A    between atoms: C_5  and  C_6
REMARK    3  A    between atoms: C_6  and  O_8
REMARK    4  A    between atoms: O_8  and  C_9
REMARK    5  A    between atoms: C_9  and  C_10
REMARK    6  A    between atoms: C_14  and  C_15
REMARK    7  A    between atoms: C_17  and  C_18
REMARK    8  A    between atoms: C_21  and  S_22
REMARK    9  A    between atoms: S_22  and  N_25
REMARK                            x       y       z     vdW  Elec       q    Type
REMARK                         _______ _______ _______ _____ _____    ______ ____
ROOT
ATOM      1  C   UNL     1       5.448   4.382  15.902  0.00  0.00    +0.000 C 
ATOM      2  C   UNL     1       4.792   5.306  16.893  0.00  0.00    +0.000 A 
ATOM      3  C   UNL     1       4.792   6.674  16.577  0.00  0.00    +0.000 A 
ATOM      4  C   UNL     1       3.958   7.548  17.255  0.00  0.00    +0.000 A 
ATOM      5  C   UNL     1       3.103   7.061  18.242  0.00  0.00    +0.000 A 
ATOM      6  C   UNL     1       3.194   5.720  18.670  0.00  0.00    +0.000 A 
ATOM      7  C   UNL     1       4.055   4.832  18.006  0.00  0.00    +0.000 A 
ENDROOT
BRANCH   7   8
ATOM      8  S   UNL     1       4.265   3.120  18.510  0.00  0.00    +0.000 S 
ATOM      9  O   UNL     1       4.047   2.340  17.313  0.00  0.00    +0.000 OA
ATOM     10  O   UNL     1       5.524   3.076  19.231  0.00  0.00    +0.000 OA
BRANCH   8  11
ATOM     11  N   UNL     1       3.068   2.700  19.588  0.00  0.00    +0.000 NA
ATOM     12  C   UNL     1       3.268   2.589  21.040  0.00  0.00    +0.000 C 
ATOM     13  C   UNL     1       2.202   3.429  21.759  0.00  0.00    +0.000 C 
ATOM     14  O   UNL     1       0.861   3.185  21.286  0.00  0.00    +0.000 OA
ATOM     15  C   UNL     1       0.733   3.253  19.856  0.00  0.00    +0.000 C 
ATOM     16  C   UNL     1       1.714   2.305  19.172  0.00  0.00    +0.000 C 
ENDBRANCH   8  11
ENDBRANCH   7   8
BRANCH   5  17
ATOM     17  C   UNL     1       2.116   8.028  18.775  0.00  0.00    +0.000 C 
ATOM     18  O   UNL     1       1.433   8.755  18.066  0.00  0.00    +0.000 OA
BRANCH  17  19
ATOM     19  O   UNL     1       2.084   7.995  20.127  0.00  0.00    +0.000 OA
BRANCH  19  20
ATOM     20  C   UNL     1       0.779   8.295  20.622  0.00  0.00    +0.000 C 
BRANCH  20  21
ATOM     21  C   UNL     1       0.806   9.653  21.315  0.00  0.00    +0.000 C 
ATOM     22  O   UNL     1       1.534   9.842  22.296  0.00  0.00    +0.000 OA
ATOM     23  N   UNL     1       0.000  10.651  20.797  0.00  0.00    +0.000 N 
ATOM     24  C   UNL     1       0.125  12.008  21.323  0.00  0.00    +0.000 C 
ATOM     25  C   UNL     1       0.420  12.993  20.183  0.00  0.00    +0.000 C 
ATOM     26  C   UNL     1       0.511  14.419  20.717  0.00  0.00    +0.000 C 
ATOM     27  C   UNL     1      -0.645  12.870  19.085  0.00  0.00    +0.000 C 
ATOM     28  C   UNL     1      -0.753  11.421  18.582  0.00  0.00    +0.000 C 
ATOM     29  C   UNL     1      -1.855  11.275  17.540  0.00  0.00    +0.000 C 
ATOM     30  C   UNL     1      -1.003  10.468  19.754  0.00  0.00    +0.000 C 
ENDBRANCH  20  21
ENDBRANCH  19  20
ENDBRANCH  17  19
ENDBRANCH   5  17
TORSDOF 6
ENDMDL
MODEL 5
REMARK VINA RESULT:      -8.0      2.002      4.255
REMARK  Name = 
REMARK  9 active torsions:
REMARK  status: ('A' for Active; 'I' for Inactive)
REMARK    1  A    between atoms: C_1  and  C_2
REMARK    2  A    between atoms: C_5  and  C_6
REMARK    3  A    between atoms: C_6  and  O_8
REMARK    4  A    between atoms: O_8  and  C_9
REMARK    5  A    between atoms: C_9  and  C_10
REMARK    6  A    between atoms: C_14  and  C_15
REMARK    7  A    between atoms: C_17  and  C_18
REMARK    8  A    between atoms: C_21  and  S_22
REMARK    9  A    between atoms: S_22  and  N_25
REMARK                            x       y       z     vdW  Elec       q    Type
REMARK                         _______ _______ _______ _____ _____    ______ ____
ROOT
ATOM      1  C   UNL     1       5.306   5.070  15.913  0.00  0.00    +0.000 C 
ATOM      2  C   UNL     1       4.599   5.864  16.980  0.00  0.00    +0.000 A 
ATOM      3  C   UNL     1       4.474   7.245  16.761  0.00  0.00    +0.000 A 
ATOM      4  C   UNL     1       3.587   7.995  17.514  0.00  0.00    +0.000 A 
ATOM      5  C   UNL     1       2.802   7.369  18.482  0.00  0.00    +0.000 A 
ATOM      6  C   UNL     1       3.018   6.016  18.812  0.00  0.00    +0.000 A 
ATOM      7  C   UNL     1       3.934   5.253  18.071  0.00  0.00    +0.000 A 
ENDROOT
BRANCH   7   8
ATOM      8  S   UNL     1       4.302   3.535  18.449  0.00  0.00    +0.000 S 
ATOM      9  O   UNL     1       4.170   2.830  17.195  0.00  0.00    +0.000 OA
ATOM     10  O   UNL     1       5.553   3.555  19.184  0.00  0.00    +0.000 OA
BRANCH   8  11
ATOM     11  N   UNL     1       3.141   2.924  19.474  0.00  0.00    +0.000 NA
ATOM     12  C   UNL     1       3.328   2.751  20.922  0.00  0.00    +0.000 C 
ATOM     13  C   UNL     1       2.162   3.426  21.662  0.00  0.00    +0.000 C 
ATOM     14  O   UNL     1       0.866   3.063  21.145  0.00  0.00    +0.000 OA
ATOM     15  C   UNL     1       0.754   3.198  19.718  0.00  0.00    +0.000 C 
ATOM     16  C   UNL     1       1.847   2.406  19.006  0.00  0.00    +0.000 C 
ENDBRANCH   8  11
ENDBRANCH   7   8
BRANCH   5  17
ATOM     17  C   UNL     1       1.750   8.209  19.100  0.00  0.00    +0.000 C 
ATOM     18  O   UNL     1       1.424   8.125  20.276  0.00  0.00    +0.000 OA
BRANCH  17  19
ATOM     19  O   UNL     1       1.211   9.058  18.194  0.00  0.00    +0.000 OA
BRANCH  19  20
ATOM     20  C   UNL     1       0.344  10.002  18.821  0.00  0.00    +0.000 C 
BRANCH  20  21
ATOM     21  C   UNL     1       1.147  11.240  19.207  0.00  0.00    +0.000 C 
ATOM     22  O   UNL     1       1.960  11.731  18.416  0.00  0.00    +0.000 OA
ATOM     23  N   UNL     1       0.919  11.787  20.457  0.00  0.00    +0.000 N 
ATOM     24  C   UNL     1       1.538  13.065  20.797  0.00  0.00    +0.000 C 
ATOM     25  C   UNL     1       0.465  14.075  21.228  0.00  0.00    +0.000 C 
ATOM     26  C   UNL     1       1.106  15.401  21.625  0.00  0.00    +0.000 C 
ATOM     27  C   UNL     1      -0.381  13.496  22.370  0.00  0.00    +0.000 C 
ATOM     28  C   UNL     1      -0.991  12.141  21.971  0.00  0.00    +0.000 C 
ATOM     29  C   UNL     1      -1.778  11.527  23.122  0.00  0.00    +0.000 C 
ATOM     30  C   UNL     1       0.107  11.180  21.506  0.00  0.00    +0.000 C 
ENDBRANCH  20  21
ENDBRANCH  19  20
ENDBRANCH  17  19
ENDBRANCH   5  17
TORSDOF 6
ENDMDL
MODEL 6
REMARK VINA RESULT:      -8.0      2.695      9.321
REMARK  Name = 
REMARK  9 active torsions:
REMARK  status: ('A' for Active; 'I' for Inactive)
REMARK    1  A    between atoms: C_1  and  C_2
REMARK    2  A    between atoms: C_5  and  C_6
REMARK    3  A    between atoms: C_6  and  O_8
REMARK    4  A    between atoms: O_8  and  C_9
REMARK    5  A    between atoms: C_9  and  C_10
REMARK    6  A    between atoms: C_14  and  C_15
REMARK    7  A    between atoms: C_17  and  C_18
REMARK    8  A    between atoms: C_21  and  S_22
REMARK    9  A    between atoms: S_22  and  N_25
REMARK                            x       y       z     vdW  Elec       q    Type
REMARK                         _______ _______ _______ _____ _____    ______ ____
ROOT
ATOM      1  C   UNL     1       1.954  11.229  18.193  0.00  0.00    +0.000 C 
ATOM      2  C   UNL     1       1.766   9.795  18.612  0.00  0.00    +0.000 A 
ATOM      3  C   UNL     1       2.380   8.818  17.812  0.00  0.00    +0.000 A 
ATOM      4  C   UNL     1       2.525   7.522  18.279  0.00  0.00    +0.000 A 
ATOM      5  C   UNL     1       2.073   7.193  19.556  0.00  0.00    +0.000 A 
ATOM      6  C   UNL     1       1.328   8.122  20.312  0.00  0.00    +0.000 A 
ATOM      7  C   UNL     1       1.153   9.431  19.836  0.00  0.00    +0.000 A 
ENDROOT
BRANCH   7   8
ATOM      8  S   UNL     1       0.183  10.665  20.712  0.00  0.00    +0.000 S 
ATOM      9  O   UNL     1      -0.558   9.930  21.711  0.00  0.00    +0.000 OA
ATOM     10  O   UNL     1       1.119  11.713  21.074  0.00  0.00    +0.000 OA
BRANCH   8  11
ATOM     11  N   UNL     1      -0.932  11.340  19.678  0.00  0.00    +0.000 NA
ATOM     12  C   UNL     1      -1.432  10.684  18.460  0.00  0.00    +0.000 C 
ATOM     13  C   UNL     1      -2.968  10.693  18.480  0.00  0.00    +0.000 C 
ATOM     14  O   UNL     1      -3.532  11.986  18.776  0.00  0.00    +0.000 OA
ATOM     15  C   UNL     1      -2.970  12.607  19.945  0.00  0.00    +0.000 C 
ATOM     16  C   UNL     1      -1.452  12.707  19.836  0.00  0.00    +0.000 C 
ENDBRANCH   8  11
ENDBRANCH   7   8
BRANCH   5  17
ATOM     17  C   UNL     1       2.442   5.844  20.043  0.00  0.00    +0.000 C 
ATOM     18  O   UNL     1       1.715   5.159  20.748  0.00  0.00    +0.000 OA
BRANCH  17  19
ATOM     19  O   UNL     1       3.674   5.491  19.608  0.00  0.00    +0.000 OA
BRANCH  19  20
ATOM     20  C   UNL     1       3.876   4.082  19.715  0.00  0.00    +0.000 C 
BRANCH  20  21
ATOM     21  C   UNL     1       4.181   3.513  18.334  0.00  0.00    +0.000 C 
ATOM     22  O   UNL     1       3.421   2.690  17.813  0.00  0.00    +0.000 OA
ATOM     23  N   UNL     1       5.323   3.962  17.695  0.00  0.00    +0.000 N 
ATOM     24  C   UNL     1       5.560   3.574  16.307  0.00  0.00    +0.000 C 
ATOM     25  C   UNL     1       5.751   4.822  15.434  0.00  0.00    +0.000 C 
ATOM     26  C   UNL     1       6.039   4.426  13.989  0.00  0.00    +0.000 C 
ATOM     27  C   UNL     1       6.865   5.707  16.008  0.00  0.00    +0.000 C 
ATOM     28  C   UNL     1       6.580   6.069  17.476  0.00  0.00    +0.000 C 
ATOM     29  C   UNL     1       7.715   6.891  18.074  0.00  0.00    +0.000 C 
ATOM     30  C   UNL     1       6.353   4.799  18.301  0.00  0.00    +0.000 C 
ENDBRANCH  20  21
ENDBRANCH  19  20
ENDBRANCH  17  19
ENDBRANCH   5  17
TORSDOF 6
ENDMDL
MODEL 7
REMARK VINA RESULT:      -7.8      1.522      2.229
REMARK  Name = 
REMARK  9 active torsions:
REMARK  status: ('A' for Active; 'I' for Inactive)
REMARK    1  A    between atoms: C_1  and  C_2
REMARK    2  A    between atoms: C_5  and  C_6
REMARK    3  A    between atoms: C_6  and  O_8
REMARK    4  A    between atoms: O_8  and  C_9
REMARK    5  A    between atoms: C_9  and  C_10
REMARK    6  A    between atoms: C_14  and  C_15
REMARK    7  A    between atoms: C_17  and  C_18
REMARK    8  A    between atoms: C_21  and  S_22
REMARK    9  A    between atoms: S_22  and  N_25
REMARK                            x       y       z     vdW  Elec       q    Type
REMARK                         _______ _______ _______ _____ _____    ______ ____
ROOT
ATOM      1  C   UNL     1       3.025   2.667  20.762  0.00  0.00    +0.000 C 
ATOM      2  C   UNL     1       2.595   4.017  20.253  0.00  0.00    +0.000 A 
ATOM      3  C   UNL     1       1.443   4.573  20.830  0.00  0.00    +0.000 A 
ATOM      4  C   UNL     1       1.152   5.916  20.657  0.00  0.00    +0.000 A 
ATOM      5  C   UNL     1       2.020   6.721  19.920  0.00  0.00    +0.000 A 
ATOM      6  C   UNL     1       3.100   6.150  19.215  0.00  0.00    +0.000 A 
ATOM      7  C   UNL     1       3.388   4.785  19.364  0.00  0.00    +0.000 A 
ENDROOT
BRANCH   7   8
ATOM      8  S   UNL     1       4.717   3.967  18.472  0.00  0.00    +0.000 S 
ATOM      9  O   UNL     1       5.742   3.716  19.460  0.00  0.00    +0.000 OA
ATOM     10  O   UNL     1       4.087   2.888  17.735  0.00  0.00    +0.000 OA
BRANCH   8  11
ATOM     11  N   UNL     1       5.368   5.012  17.351  0.00  0.00    +0.000 NA
ATOM     12  C   UNL     1       5.874   6.354  17.672  0.00  0.00    +0.000 C 
ATOM     13  C   UNL     1       7.300   6.497  17.117  0.00  0.00    +0.000 C 
ATOM     14  O   UNL     1       7.426   6.088  15.741  0.00  0.00    +0.000 OA
ATOM     15  C   UNL     1       6.866   4.791  15.470  0.00  0.00    +0.000 C 
ATOM     16  C   UNL     1       5.406   4.723  15.910  0.00  0.00    +0.000 C 
ENDBRANCH   8  11
ENDBRANCH   7   8
BRANCH   5  17
ATOM     17  C   UNL     1       1.733   8.174  19.950  0.00  0.00    +0.000 C 
ATOM     18  O   UNL     1       1.562   8.807  20.982  0.00  0.00    +0.000 OA
BRANCH  17  19
ATOM     19  O   UNL     1       1.686   8.685  18.698  0.00  0.00    +0.000 OA
BRANCH  19  20
ATOM     20  C   UNL     1       1.545  10.105  18.724  0.00  0.00    +0.000 C 
BRANCH  20  21
ATOM     21  C   UNL     1       0.099  10.471  18.408  0.00  0.00    +0.000 C 
ATOM     22  O   UNL     1      -0.613   9.703  17.752  0.00  0.00    +0.000 OA
ATOM     23  N   UNL     1      -0.376  11.678  18.890  0.00  0.00    +0.000 N 
ATOM     24  C   UNL     1      -1.797  11.986  18.757  0.00  0.00    +0.000 C 
ATOM     25  C   UNL     1      -2.401  12.305  20.132  0.00  0.00    +0.000 C 
ATOM     26  C   UNL     1      -3.876  12.669  19.998  0.00  0.00    +0.000 C 
ATOM     27  C   UNL     1      -1.605  13.426  20.814  0.00  0.00    +0.000 C 
ATOM     28  C   UNL     1      -0.113  13.063  20.910  0.00  0.00    +0.000 C 
ATOM     29  C   UNL     1       0.696  14.199  21.524  0.00  0.00    +0.000 C 
ATOM     30  C   UNL     1       0.437  12.710  19.525  0.00  0.00    +0.000 C 
ENDBRANCH  20  21
ENDBRANCH  19  20
ENDBRANCH  17  19
ENDBRANCH   5  17
TORSDOF 6
ENDMDL
MODEL 8
REMARK VINA RESULT:      -7.8      1.861      3.853
REMARK  Name = 
REMARK  9 active torsions:
REMARK  status: ('A' for Active; 'I' for Inactive)
REMARK    1  A    between atoms: C_1  and  C_2
REMARK    2  A    between atoms: C_5  and  C_6
REMARK    3  A    between atoms: C_6  and  O_8
REMARK    4  A    between atoms: O_8  and  C_9
REMARK    5  A    between atoms: C_9  and  C_10
REMARK    6  A    between atoms: C_14  and  C_15
REMARK    7  A    between atoms: C_17  and  C_18
REMARK    8  A    between atoms: C_21  and  S_22
REMARK    9  A    between atoms: S_22  and  N_25
REMARK                            x       y       z     vdW  Elec       q    Type
REMARK                         _______ _______ _______ _____ _____    ______ ____
ROOT
ATOM      1  C   UNL     1       5.597   4.491  15.991  0.00  0.00    +0.000 C 
ATOM      2  C   UNL     1       4.841   5.396  16.927  0.00  0.00    +0.000 A 
ATOM      3  C   UNL     1       4.800   6.759  16.592  0.00  0.00    +0.000 A 
ATOM      4  C   UNL     1       3.889   7.603  17.205  0.00  0.00    +0.000 A 
ATOM      5  C   UNL     1       2.997   7.089  18.147  0.00  0.00    +0.000 A 
ATOM      6  C   UNL     1       3.121   5.759  18.598  0.00  0.00    +0.000 A 
ATOM      7  C   UNL     1       4.060   4.903  18.001  0.00  0.00    +0.000 A 
ENDROOT
BRANCH   7   8
ATOM      8  S   UNL     1       4.314   3.207  18.541  0.00  0.00    +0.000 S 
ATOM      9  O   UNL     1       4.190   2.403  17.347  0.00  0.00    +0.000 OA
ATOM     10  O   UNL     1       5.534   3.226  19.326  0.00  0.00    +0.000 OA
BRANCH   8  11
ATOM     11  N   UNL     1       3.081   2.753  19.563  0.00  0.00    +0.000 NA
ATOM     12  C   UNL     1       3.216   2.650  21.024  0.00  0.00    +0.000 C 
ATOM     13  C   UNL     1       2.092   3.458  21.689  0.00  0.00    +0.000 C 
ATOM     14  O   UNL     1       0.784   3.171  21.155  0.00  0.00    +0.000 OA
ATOM     15  C   UNL     1       0.720   3.232  19.720  0.00  0.00    +0.000 C 
ATOM     16  C   UNL     1       1.761   2.314  19.086  0.00  0.00    +0.000 C 
ENDBRANCH   8  11
ENDBRANCH   7   8
BRANCH   5  17
ATOM     17  C   UNL     1       1.937   8.017  18.604  0.00  0.00    +0.000 C 
ATOM     18  O   UNL     1       1.560   8.983  17.957  0.00  0.00    +0.000 OA
BRANCH  17  19
ATOM     19  O   UNL     1       1.462   7.651  19.817  0.00  0.00    +0.000 OA
BRANCH  19  20
ATOM     20  C   UNL     1       1.697   8.665  20.793  0.00  0.00    +0.000 C 
BRANCH  20  21
ATOM     21  C   UNL     1       0.360   9.236  21.254  0.00  0.00    +0.000 C 
ATOM     22  O   UNL     1      -0.453   8.523  21.853  0.00  0.00    +0.000 OA
ATOM     23  N   UNL     1       0.107  10.569  20.986  0.00  0.00    +0.000 N 
ATOM     24  C   UNL     1      -1.081  11.196  21.558  0.00  0.00    +0.000 C 
ATOM     25  C   UNL     1      -0.686  12.436  22.373  0.00  0.00    +0.000 C 
ATOM     26  C   UNL     1      -1.925  13.121  22.941  0.00  0.00    +0.000 C 
ATOM     27  C   UNL     1       0.142  13.397  21.510  0.00  0.00    +0.000 C 
ATOM     28  C   UNL     1       1.368  12.684  20.913  0.00  0.00    +0.000 C 
ATOM     29  C   UNL     1       2.159  13.613  20.000  0.00  0.00    +0.000 C 
ATOM     30  C   UNL     1       0.933  11.431  20.147  0.00  0.00    +0.000 C 
ENDBRANCH  20  21
ENDBRANCH  19  20
ENDBRANCH  17  19
ENDBRANCH   5  17
TORSDOF 6
ENDMDL
MODEL 9
REMARK VINA RESULT:      -7.8      2.779      4.683
REMARK  Name = 
REMARK  9 active torsions:
REMARK  status: ('A' for Active; 'I' for Inactive)
REMARK    1  A    between atoms: C_1  and  C_2
REMARK    2  A    between atoms: C_5  and  C_6
REMARK    3  A    between atoms: C_6  and  O_8
REMARK    4  A    between atoms: O_8  and  C_9
REMARK    5  A    between atoms: C_9  and  C_10
REMARK    6  A    between atoms: C_14  and  C_15
REMARK    7  A    between atoms: C_17  and  C_18
REMARK    8  A    between atoms: C_21  and  S_22
REMARK    9  A    between atoms: S_22  and  N_25
REMARK                            x       y       z     vdW  Elec       q    Type
REMARK                         _______ _______ _______ _____ _____    ______ ____
ROOT
ATOM      1  C   UNL     1       5.453   5.233  15.980  0.00  0.00    +0.000 C 
ATOM      2  C   UNL     1       4.670   5.996  17.016  0.00  0.00    +0.000 A 
ATOM      3  C   UNL     1       4.506   7.373  16.796  0.00  0.00    +0.000 A 
ATOM      4  C   UNL     1       3.559   8.087  17.511  0.00  0.00    +0.000 A 
ATOM      5  C   UNL     1       2.753   7.429  18.439  0.00  0.00    +0.000 A 
ATOM      6  C   UNL     1       3.002   6.082  18.775  0.00  0.00    +0.000 A 
ATOM      7  C   UNL     1       3.978   5.356  18.074  0.00  0.00    +0.000 A 
ENDROOT
BRANCH   7   8
ATOM      8  S   UNL     1       4.390   3.650  18.463  0.00  0.00    +0.000 S 
ATOM      9  O   UNL     1       4.323   2.944  17.204  0.00  0.00    +0.000 OA
ATOM     10  O   UNL     1       5.613   3.710  19.240  0.00  0.00    +0.000 OA
BRANCH   8  11
ATOM     11  N   UNL     1       3.215   2.999  19.447  0.00  0.00    +0.000 NA
ATOM     12  C   UNL     1       3.272   3.010  20.916  0.00  0.00    +0.000 C 
ATOM     13  C   UNL     1       1.960   3.594  21.464  0.00  0.00    +0.000 C 
ATOM     14  O   UNL     1       0.780   3.004  20.883  0.00  0.00    +0.000 OA
ATOM     15  C   UNL     1       0.801   2.969  19.445  0.00  0.00    +0.000 C 
ATOM     16  C   UNL     1       2.052   2.262  18.932  0.00  0.00    +0.000 C 
ENDBRANCH   8  11
ENDBRANCH   7   8
BRANCH   5  17
ATOM     17  C   UNL     1       1.645   8.227  19.012  0.00  0.00    +0.000 C 
ATOM     18  O   UNL     1       1.462   8.365  20.213  0.00  0.00    +0.000 OA
BRANCH  17  19
ATOM     19  O   UNL     1       0.880   8.766  18.034  0.00  0.00    +0.000 OA
BRANCH  19  20
ATOM     20  C   UNL     1       0.763  10.180  18.188  0.00  0.00    +0.000 C 
BRANCH  20  21
ATOM     21  C   UNL     1      -0.514  10.497  18.958  0.00  0.00    +0.000 C 
ATOM     22  O   UNL     1      -0.460  10.882  20.131  0.00  0.00    +0.000 OA
ATOM     23  N   UNL     1      -1.717  10.346  18.292  0.00  0.00    +0.000 N 
ATOM     24  C   UNL     1      -2.947  10.801  18.934  0.00  0.00    +0.000 C 
ATOM     25  C   UNL     1      -3.680  11.800  18.029  0.00  0.00    +0.000 C 
ATOM     26  C   UNL     1      -4.987  12.250  18.674  0.00  0.00    +0.000 C 
ATOM     27  C   UNL     1      -3.919  11.186  16.643  0.00  0.00    +0.000 C 
ATOM     28  C   UNL     1      -2.598  10.704  16.019  0.00  0.00    +0.000 C 
ATOM     29  C   UNL     1      -2.834  10.031  14.673  0.00  0.00    +0.000 C 
ATOM     30  C   UNL     1      -1.879   9.744  16.972  0.00  0.00    +0.000 C 
ENDBRANCH  20  21
ENDBRANCH  19  20
ENDBRANCH  17  19
ENDBRANCH   5  17
TORSDOF 6
ENDMDL
