MODEL 1
REMARK VINA RESULT:      -8.9      0.000      0.000
REMARK  Name = 
REMARK  7 active torsions:
REMARK  status: ('A' for Active; 'I' for Inactive)
REMARK    1  A    between atoms: C_1  and  C_2
REMARK    2  A    between atoms: C_2  and  N_3
REMARK    3  A    between atoms: C_9  and  N_10
REMARK    4  A    between atoms: N_13  and  C_14
REMARK    5  A    between atoms: C_17  and  C_18
REMARK    6  A    between atoms: N_20  and  C_21
REMARK    7  A    between atoms: C_25  and  C_26
REMARK                            x       y       z     vdW  Elec       q    Type
REMARK                         _______ _______ _______ _____ _____    ______ ____
ROOT
ATOM      1  N   UNL     1       6.757   3.155  12.253  0.00  0.00    +0.000 N 
ATOM      2  C   UNL     1       5.899   3.579  13.252  0.00  0.00    +0.000 C 
ATOM      3  O   UNL     1       4.693   3.360  13.203  0.00  0.00    +0.000 OA
ATOM      4  N   UNL     1       6.544   4.263  14.261  0.00  0.00    +0.000 N 
ATOM      5  C   UNL     1       5.808   4.858  15.295  0.00  0.00    +0.000 A 
ATOM      6  C   UNL     1       5.049   4.079  16.170  0.00  0.00    +0.000 A 
ATOM      7  C   UNL     1       4.276   4.659  17.204  0.00  0.00    +0.000 A 
ATOM      8  C   UNL     1       4.284   6.066  17.272  0.00  0.00    +0.000 A 
ATOM      9  C   UNL     1       5.133   6.745  16.396  0.00  0.00    +0.000 A 
ATOM     10  N   UNL     1       5.919   6.180  15.445  0.00  0.00    +0.000 NA
ATOM     11  H   UNL     1       7.756   3.214  12.391  0.00  0.00    +0.000 HD
ATOM     12  H   UNL     1       7.308   4.847  13.955  0.00  0.00    +0.000 HD
ENDROOT
BRANCH   7  13
ATOM     13  N   UNL     1       3.533   3.808  18.008  0.00  0.00    +0.000 N 
ATOM     14  C   UNL     1       2.073   3.686  17.851  0.00  0.00    +0.000 C 
ATOM     15  C   UNL     1       1.364   3.668  19.219  0.00  0.00    +0.000 C 
ATOM     16  N   UNL     1       1.932   2.634  20.102  0.00  0.00    +0.000 NA
ATOM     17  C   UNL     1       1.189   2.521  21.345  0.00  0.00    +0.000 C 
ATOM     18  C   UNL     1       3.347   2.972  20.357  0.00  0.00    +0.000 C 
ATOM     19  C   UNL     1       4.160   2.971  19.051  0.00  0.00    +0.000 C 
ENDBRANCH   7  13
BRANCH   8  20
ATOM     20  C   UNL     1       3.498   6.887  18.259  0.00  0.00    +0.000 C 
ATOM     21  O   UNL     1       3.432   6.559  19.415  0.00  0.00    +0.000 OA
ATOM     22  N   UNL     1       2.885   8.024  17.722  0.00  0.00    +0.000 N 
ATOM     23  H   UNL     1       3.029   8.242  16.750  0.00  0.00    +0.000 HD
BRANCH  22  24
ATOM     24  C   UNL     1       2.038   8.916  18.417  0.00  0.00    +0.000 A 
ATOM     25  C   UNL     1       1.744  10.204  17.973  0.00  0.00    +0.000 A 
ATOM     26  C   UNL     1       0.927  11.049  18.721  0.00  0.00    +0.000 A 
ATOM     27  C   UNL     1       0.407  10.623  19.937  0.00  0.00    +0.000 A 
ATOM     28  C   UNL     1       0.679   9.333  20.404  0.00  0.00    +0.000 A 
ATOM     29  C   UNL     1       0.152   8.878  21.733  0.00  0.00    +0.000 C 
ATOM     30  C   UNL     1       1.475   8.475  19.625  0.00  0.00    +0.000 A 
ENDBRANCH  22  24
ENDBRANCH   8  20
BRANCH   1  32
ATOM     31  C   UNL     1       6.458   0.936  11.170  0.00  0.00    +0.000 C 
ATOM     32  C   UNL     1       6.231   2.439  11.103  0.00  0.00    +0.000 C 
ENDBRANCH   1  32
TORSDOF 4
ENDMDL
MODEL 2
REMARK VINA RESULT:      -8.8      0.815      1.313
REMARK  Name = 
REMARK  7 active torsions:
REMARK  status: ('A' for Active; 'I' for Inactive)
REMARK    1  A    between atoms: C_1  and  C_2
REMARK    2  A    between atoms: C_2  and  N_3
REMARK    3  A    between atoms: C_9  and  N_10
REMARK    4  A    between atoms: N_13  and  C_14
REMARK    5  A    between atoms: C_17  and  C_18
REMARK    6  A    between atoms: N_20  and  C_21
REMARK    7  A    between atoms: C_25  and  C_26
REMARK                            x       y       z     vdW  Elec       q    Type
REMARK                         _______ _______ _______ _____ _____    ______ ____
ROOT
ATOM      1  N   UNL     1       6.899   3.580  12.457  0.00  0.00    +0.000 N 
ATOM      2  C   UNL     1       5.980   3.917  13.435  0.00  0.00    +0.000 C 
ATOM      3  O   UNL     1       4.805   3.572  13.364  0.00  0.00    +0.000 OA
ATOM      4  N   UNL     1       6.529   4.673  14.451  0.00  0.00    +0.000 N 
ATOM      5  C   UNL     1       5.712   5.194  15.464  0.00  0.00    +0.000 A 
ATOM      6  C   UNL     1       5.022   4.344  16.330  0.00  0.00    +0.000 A 
ATOM      7  C   UNL     1       4.170   4.847  17.343  0.00  0.00    +0.000 A 
ATOM      8  C   UNL     1       4.029   6.247  17.399  0.00  0.00    +0.000 A 
ATOM      9  C   UNL     1       4.819   7.006  16.534  0.00  0.00    +0.000 A 
ATOM     10  N   UNL     1       5.680   6.521  15.604  0.00  0.00    +0.000 NA
ATOM     11  H   UNL     1       7.883   3.745  12.614  0.00  0.00    +0.000 HD
ATOM     12  H   UNL     1       7.232   5.332  14.154  0.00  0.00    +0.000 HD
ENDROOT
BRANCH   7  13
ATOM     13  N   UNL     1       3.504   3.928  18.140  0.00  0.00    +0.000 N 
ATOM     14  C   UNL     1       2.062   3.675  17.976  0.00  0.00    +0.000 C 
ATOM     15  C   UNL     1       1.352   3.585  19.341  0.00  0.00    +0.000 C 
ATOM     16  N   UNL     1       2.008   2.602  20.221  0.00  0.00    +0.000 NA
ATOM     17  C   UNL     1       1.275   2.415  21.460  0.00  0.00    +0.000 C 
ATOM     18  C   UNL     1       3.386   3.065  20.484  0.00  0.00    +0.000 C 
ATOM     19  C   UNL     1       4.201   3.145  19.181  0.00  0.00    +0.000 C 
ENDBRANCH   7  13
BRANCH   8  20
ATOM     20  C   UNL     1       3.140   6.987  18.363  0.00  0.00    +0.000 C 
ATOM     21  O   UNL     1       3.065   6.646  19.514  0.00  0.00    +0.000 OA
ATOM     22  N   UNL     1       2.445   8.068  17.811  0.00  0.00    +0.000 N 
ATOM     23  H   UNL     1       2.601   8.306  16.845  0.00  0.00    +0.000 HD
BRANCH  22  24
ATOM     24  C   UNL     1       1.499   8.876  18.481  0.00  0.00    +0.000 A 
ATOM     25  C   UNL     1       1.548   9.146  19.848  0.00  0.00    +0.000 A 
ATOM     26  C   UNL     1       0.565   9.924  20.458  0.00  0.00    +0.000 A 
ATOM     27  C   UNL     1      -0.492  10.428  19.710  0.00  0.00    +0.000 A 
ATOM     28  C   UNL     1      -0.562  10.179  18.336  0.00  0.00    +0.000 A 
ATOM     29  C   UNL     1      -1.719  10.688  17.528  0.00  0.00    +0.000 C 
ATOM     30  C   UNL     1       0.453   9.423  17.723  0.00  0.00    +0.000 A 
ENDBRANCH  22  24
ENDBRANCH   8  20
BRANCH   1  32
ATOM     31  C   UNL     1       7.149   1.444  11.208  0.00  0.00    +0.000 C 
ATOM     32  C   UNL     1       6.475   2.805  11.302  0.00  0.00    +0.000 C 
ENDBRANCH   1  32
TORSDOF 4
ENDMDL
MODEL 3
REMARK VINA RESULT:      -7.9      1.086      1.626
REMARK  Name = 
REMARK  7 active torsions:
REMARK  status: ('A' for Active; 'I' for Inactive)
REMARK    1  A    between atoms: C_1  and  C_2
REMARK    2  A    between atoms: C_2  and  N_3
REMARK    3  A    between atoms: C_9  and  N_10
REMARK    4  A    between atoms: N_13  and  C_14
REMARK    5  A    between atoms: C_17  and  C_18
REMARK    6  A    between atoms: N_20  and  C_21
REMARK    7  A    between atoms: C_25  and  C_26
REMARK                            x       y       z     vdW  Elec       q    Type
REMARK                         _______ _______ _______ _____ _____    ______ ____
ROOT
ATOM      1  N   UNL     1       6.926   2.342  11.761  0.00  0.00    +0.000 N 
ATOM      2  C   UNL     1       6.185   2.966  12.748  0.00  0.00    +0.000 C 
ATOM      3  O   UNL     1       4.959   2.946  12.747  0.00  0.00    +0.000 OA
ATOM      4  N   UNL     1       6.971   3.601  13.689  0.00  0.00    +0.000 N 
ATOM      5  C   UNL     1       6.380   4.377  14.695  0.00  0.00    +0.000 A 
ATOM      6  C   UNL     1       5.537   3.793  15.644  0.00  0.00    +0.000 A 
ATOM      7  C   UNL     1       4.907   4.560  16.653  0.00  0.00    +0.000 A 
ATOM      8  C   UNL     1       5.146   5.948  16.619  0.00  0.00    +0.000 A 
ATOM      9  C   UNL     1       6.060   6.418  15.675  0.00  0.00    +0.000 A 
ATOM     10  N   UNL     1       6.709   5.670  14.747  0.00  0.00    +0.000 NA
ATOM     11  H   UNL     1       7.926   2.245  11.869  0.00  0.00    +0.000 HD
ATOM     12  H   UNL     1       7.807   4.030  13.322  0.00  0.00    +0.000 HD
ENDROOT
BRANCH   7  13
ATOM     13  N   UNL     1       4.066   3.899  17.535  0.00  0.00    +0.000 N 
ATOM     14  C   UNL     1       2.726   3.446  17.121  0.00  0.00    +0.000 C 
ATOM     15  C   UNL     1       1.676   3.747  18.209  0.00  0.00    +0.000 C 
ATOM     16  N   UNL     1       2.086   3.202  19.514  0.00  0.00    +0.000 NA
ATOM     17  C   UNL     1       1.048   3.366  20.516  0.00  0.00    +0.000 C 
ATOM     18  C   UNL     1       3.334   3.877  19.925  0.00  0.00    +0.000 C 
ATOM     19  C   UNL     1       4.469   3.600  18.924  0.00  0.00    +0.000 C 
ENDBRANCH   7  13
BRANCH   8  20
ATOM     20  C   UNL     1       4.540   6.951  17.564  0.00  0.00    +0.000 C 
ATOM     21  O   UNL     1       5.229   7.775  18.108  0.00  0.00    +0.000 OA
ATOM     22  N   UNL     1       3.157   6.839  17.732  0.00  0.00    +0.000 N 
ATOM     23  H   UNL     1       2.656   6.145  17.203  0.00  0.00    +0.000 HD
BRANCH  22  24
ATOM     24  C   UNL     1       2.363   7.609  18.613  0.00  0.00    +0.000 A 
ATOM     25  C   UNL     1       2.149   7.275  19.949  0.00  0.00    +0.000 A 
ATOM     26  C   UNL     1       1.328   8.057  20.758  0.00  0.00    +0.000 A 
ATOM     27  C   UNL     1       0.694   9.178  20.236  0.00  0.00    +0.000 A 
ATOM     28  C   UNL     1       0.897   9.542  18.901  0.00  0.00    +0.000 A 
ATOM     29  C   UNL     1       0.188  10.729  18.320  0.00  0.00    +0.000 C 
ATOM     30  C   UNL     1       1.755   8.766  18.102  0.00  0.00    +0.000 A 
ENDBRANCH  22  24
ENDBRANCH   8  20
BRANCH   1  32
ATOM     31  C   UNL     1       5.940   0.190  10.995  0.00  0.00    +0.000 C 
ATOM     32  C   UNL     1       6.249   1.646  10.679  0.00  0.00    +0.000 C 
ENDBRANCH   1  32
TORSDOF 4
ENDMDL
MODEL 4
REMARK VINA RESULT:      -7.4      5.100      8.853
REMARK  Name = 
REMARK  7 active torsions:
REMARK  status: ('A' for Active; 'I' for Inactive)
REMARK    1  A    between atoms: C_1  and  C_2
REMARK    2  A    between atoms: C_2  and  N_3
REMARK    3  A    between atoms: C_9  and  N_10
REMARK    4  A    between atoms: N_13  and  C_14
REMARK    5  A    between atoms: C_17  and  C_18
REMARK    6  A    between atoms: N_20  and  C_21
REMARK    7  A    between atoms: C_25  and  C_26
REMARK                            x       y       z     vdW  Elec       q    Type
REMARK                         _______ _______ _______ _____ _____    ______ ____
ROOT
ATOM      1  N   UNL     1       3.299   6.698  18.818  0.00  0.00    +0.000 N 
ATOM      2  C   UNL     1       2.267   7.515  19.243  0.00  0.00    +0.000 C 
ATOM      3  O   UNL     1       1.638   7.281  20.269  0.00  0.00    +0.000 OA
ATOM      4  N   UNL     1       2.035   8.575  18.390  0.00  0.00    +0.000 N 
ATOM      5  C   UNL     1       0.951   9.436  18.612  0.00  0.00    +0.000 A 
ATOM      6  C   UNL     1       0.887  10.218  19.767  0.00  0.00    +0.000 A 
ATOM      7  C   UNL     1      -0.211  11.074  20.026  0.00  0.00    +0.000 A 
ATOM      8  C   UNL     1      -1.249  11.060  19.074  0.00  0.00    +0.000 A 
ATOM      9  C   UNL     1      -1.051  10.298  17.922  0.00  0.00    +0.000 A 
ATOM     10  N   UNL     1       0.030   9.524  17.650  0.00  0.00    +0.000 NA
ATOM     11  H   UNL     1       3.895   6.995  18.059  0.00  0.00    +0.000 HD
ATOM     12  H   UNL     1       2.158   8.365  17.412  0.00  0.00    +0.000 HD
ENDROOT
BRANCH   7  13
ATOM     13  N   UNL     1      -0.201  11.793  21.212  0.00  0.00    +0.000 N 
ATOM     14  C   UNL     1      -0.894  11.297  22.414  0.00  0.00    +0.000 C 
ATOM     15  C   UNL     1      -1.666  12.429  23.120  0.00  0.00    +0.000 C 
ATOM     16  N   UNL     1      -0.791  13.580  23.399  0.00  0.00    +0.000 NA
ATOM     17  C   UNL     1      -1.475  14.599  24.176  0.00  0.00    +0.000 C 
ATOM     18  C   UNL     1      -0.319  14.124  22.109  0.00  0.00    +0.000 C 
ATOM     19  C   UNL     1       0.511  13.081  21.340  0.00  0.00    +0.000 C 
ENDBRANCH   7  13
BRANCH   8  20
ATOM     20  C   UNL     1      -2.524  11.854  19.176  0.00  0.00    +0.000 C 
ATOM     21  O   UNL     1      -2.556  12.886  19.794  0.00  0.00    +0.000 OA
ATOM     22  N   UNL     1      -3.617  11.298  18.505  0.00  0.00    +0.000 N 
ATOM     23  H   UNL     1      -3.487  10.450  17.979  0.00  0.00    +0.000 HD
BRANCH  22  24
ATOM     24  C   UNL     1      -4.936  11.806  18.504  0.00  0.00    +0.000 A 
ATOM     25  C   UNL     1      -5.573  12.294  17.364  0.00  0.00    +0.000 A 
ATOM     26  C   UNL     1      -6.864  12.814  17.435  0.00  0.00    +0.000 A 
ATOM     27  C   UNL     1      -7.530  12.870  18.653  0.00  0.00    +0.000 A 
ATOM     28  C   UNL     1      -6.918  12.381  19.811  0.00  0.00    +0.000 A 
ATOM     29  C   UNL     1      -7.615  12.472  21.137  0.00  0.00    +0.000 C 
ATOM     30  C   UNL     1      -5.629  11.826  19.724  0.00  0.00    +0.000 A 
ENDBRANCH  22  24
ENDBRANCH   8  20
BRANCH   1  32
ATOM     31  C   UNL     1       3.046   4.235  19.053  0.00  0.00    +0.000 C 
ATOM     32  C   UNL     1       3.656   5.520  19.593  0.00  0.00    +0.000 C 
ENDBRANCH   1  32
TORSDOF 4
ENDMDL
MODEL 5
REMARK VINA RESULT:      -7.2      0.592      1.455
REMARK  Name = 
REMARK  7 active torsions:
REMARK  status: ('A' for Active; 'I' for Inactive)
REMARK    1  A    between atoms: C_1  and  C_2
REMARK    2  A    between atoms: C_2  and  N_3
REMARK    3  A    between atoms: C_9  and  N_10
REMARK    4  A    between atoms: N_13  and  C_14
REMARK    5  A    between atoms: C_17  and  C_18
REMARK    6  A    between atoms: N_20  and  C_21
REMARK    7  A    between atoms: C_25  and  C_26
REMARK                            x       y       z     vdW  Elec       q    Type
REMARK                         _______ _______ _______ _____ _____    ______ ____
ROOT
ATOM      1  N   UNL     1       6.434   3.152  12.356  0.00  0.00    +0.000 N 
ATOM      2  C   UNL     1       5.606   3.588  13.375  0.00  0.00    +0.000 C 
ATOM      3  O   UNL     1       4.408   3.330  13.389  0.00  0.00    +0.000 OA
ATOM      4  N   UNL     1       6.272   4.334  14.327  0.00  0.00    +0.000 N 
ATOM      5  C   UNL     1       5.562   4.947  15.368  0.00  0.00    +0.000 A 
ATOM      6  C   UNL     1       4.868   4.181  16.306  0.00  0.00    +0.000 A 
ATOM      7  C   UNL     1       4.121   4.778  17.350  0.00  0.00    +0.000 A 
ATOM      8  C   UNL     1       4.086   6.187  17.361  0.00  0.00    +0.000 A 
ATOM      9  C   UNL     1       4.872   6.855  16.422  0.00  0.00    +0.000 A 
ATOM     10  N   UNL     1       5.634   6.277  15.460  0.00  0.00    +0.000 NA
ATOM     11  H   UNL     1       7.435   3.248  12.447  0.00  0.00    +0.000 HD
ATOM     12  H   UNL     1       7.001   4.929  13.963  0.00  0.00    +0.000 HD
ENDROOT
BRANCH   7  13
ATOM     13  N   UNL     1       3.443   3.938  18.220  0.00  0.00    +0.000 N 
ATOM     14  C   UNL     1       1.994   3.707  18.087  0.00  0.00    +0.000 C 
ATOM     15  C   UNL     1       1.296   3.737  19.461  0.00  0.00    +0.000 C 
ATOM     16  N   UNL     1       1.939   2.809  20.407  0.00  0.00    +0.000 NA
ATOM     17  C   UNL     1       1.213   2.734  21.663  0.00  0.00    +0.000 C 
ATOM     18  C   UNL     1       3.329   3.259  20.623  0.00  0.00    +0.000 C 
ATOM     19  C   UNL     1       4.132   3.221  19.311  0.00  0.00    +0.000 C 
ENDBRANCH   7  13
BRANCH   8  20
ATOM     20  C   UNL     1       3.316   7.022  18.349  0.00  0.00    +0.000 C 
ATOM     21  O   UNL     1       3.203   6.669  19.494  0.00  0.00    +0.000 OA
ATOM     22  N   UNL     1       2.776   8.201  17.827  0.00  0.00    +0.000 N 
ATOM     23  H   UNL     1       2.956   8.437  16.865  0.00  0.00    +0.000 HD
BRANCH  22  24
ATOM     24  C   UNL     1       1.957   9.118  18.524  0.00  0.00    +0.000 A 
ATOM     25  C   UNL     1       1.043   8.743  19.507  0.00  0.00    +0.000 A 
ATOM     26  C   UNL     1       0.238   9.691  20.135  0.00  0.00    +0.000 A 
ATOM     27  C   UNL     1       0.325  11.031  19.774  0.00  0.00    +0.000 A 
ATOM     28  C   UNL     1       1.239  11.437  18.797  0.00  0.00    +0.000 A 
ATOM     29  C   UNL     1       1.312  12.875  18.376  0.00  0.00    +0.000 C 
ATOM     30  C   UNL     1       2.070  10.478  18.193  0.00  0.00    +0.000 A 
ENDBRANCH  22  24
ENDBRANCH   8  20
BRANCH   1  32
ATOM     31  C   UNL     1       4.513   2.855  10.804  0.00  0.00    +0.000 C 
ATOM     32  C   UNL     1       5.883   2.373  11.260  0.00  0.00    +0.000 C 
ENDBRANCH   1  32
TORSDOF 4
ENDMDL
MODEL 6
REMARK VINA RESULT:      -7.1      5.152      8.918
REMARK  Name = 
REMARK  7 active torsions:
REMARK  status: ('A' for Active; 'I' for Inactive)
REMARK    1  A    between atoms: C_1  and  C_2
REMARK    2  A    between atoms: C_2  and  N_3
REMARK    3  A    between atoms: C_9  and  N_10
REMARK    4  A    between atoms: N_13  and  C_14
REMARK    5  A    between atoms: C_17  and  C_18
REMARK    6  A    between atoms: N_20  and  C_21
REMARK    7  A    between atoms: C_25  and  C_26
REMARK                            x       y       z     vdW  Elec       q    Type
REMARK                         _______ _______ _______ _____ _____    ______ ____
ROOT
ATOM      1  N   UNL     1       3.360   6.998  18.187  0.00  0.00    +0.000 N 
ATOM      2  C   UNL     1       2.337   7.760  18.724  0.00  0.00    +0.000 C 
ATOM      3  O   UNL     1       1.814   7.475  19.796  0.00  0.00    +0.000 OA
ATOM      4  N   UNL     1       1.986   8.828  17.925  0.00  0.00    +0.000 N 
ATOM      5  C   UNL     1       0.893   9.636  18.266  0.00  0.00    +0.000 A 
ATOM      6  C   UNL     1       0.901  10.388  19.442  0.00  0.00    +0.000 A 
ATOM      7  C   UNL     1      -0.203  11.189  19.822  0.00  0.00    +0.000 A 
ATOM      8  C   UNL     1      -1.322  11.152  18.966  0.00  0.00    +0.000 A 
ATOM      9  C   UNL     1      -1.197  10.426  17.780  0.00  0.00    +0.000 A 
ATOM     10  N   UNL     1      -0.114   9.707  17.392  0.00  0.00    +0.000 NA
ATOM     11  H   UNL     1       3.872   7.339  17.386  0.00  0.00    +0.000 HD
ATOM     12  H   UNL     1       2.028   8.647  16.934  0.00  0.00    +0.000 HD
ENDROOT
BRANCH   7  13
ATOM     13  N   UNL     1      -0.116  11.880  21.020  0.00  0.00    +0.000 N 
ATOM     14  C   UNL     1      -0.670  11.323  22.267  0.00  0.00    +0.000 C 
ATOM     15  C   UNL     1      -1.425  12.399  23.072  0.00  0.00    +0.000 C 
ATOM     16  N   UNL     1      -0.582  13.585  23.301  0.00  0.00    +0.000 NA
ATOM     17  C   UNL     1      -1.236  14.551  24.166  0.00  0.00    +0.000 C 
ATOM     18  C   UNL     1      -0.257  14.181  21.989  0.00  0.00    +0.000 C 
ATOM     19  C   UNL     1       0.544  13.197  21.118  0.00  0.00    +0.000 C 
ENDBRANCH   7  13
BRANCH   8  20
ATOM     20  C   UNL     1      -2.614  11.887  19.202  0.00  0.00    +0.000 C 
ATOM     21  O   UNL     1      -2.644  12.865  19.903  0.00  0.00    +0.000 OA
ATOM     22  N   UNL     1      -3.726  11.347  18.549  0.00  0.00    +0.000 N 
ATOM     23  H   UNL     1      -3.599  10.549  17.949  0.00  0.00    +0.000 HD
BRANCH  22  24
ATOM     24  C   UNL     1      -5.058  11.804  18.663  0.00  0.00    +0.000 A 
ATOM     25  C   UNL     1      -5.943  11.364  19.646  0.00  0.00    +0.000 A 
ATOM     26  C   UNL     1      -7.256  11.828  19.686  0.00  0.00    +0.000 A 
ATOM     27  C   UNL     1      -7.709  12.728  18.728  0.00  0.00    +0.000 A 
ATOM     28  C   UNL     1      -6.841  13.193  17.735  0.00  0.00    +0.000 A 
ATOM     29  C   UNL     1      -7.332  14.135  16.676  0.00  0.00    +0.000 C 
ATOM     30  C   UNL     1      -5.508  12.745  17.724  0.00  0.00    +0.000 A 
ENDBRANCH  22  24
ENDBRANCH   8  20
BRANCH   1  32
ATOM     31  C   UNL     1       3.228   4.522  18.379  0.00  0.00    +0.000 C 
ATOM     32  C   UNL     1       3.832   5.820  18.895  0.00  0.00    +0.000 C 
ENDBRANCH   1  32
TORSDOF 4
ENDMDL
MODEL 7
REMARK VINA RESULT:      -7.0      3.113      6.725
REMARK  Name = 
REMARK  7 active torsions:
REMARK  status: ('A' for Active; 'I' for Inactive)
REMARK    1  A    between atoms: C_1  and  C_2
REMARK    2  A    between atoms: C_2  and  N_3
REMARK    3  A    between atoms: C_9  and  N_10
REMARK    4  A    between atoms: N_13  and  C_14
REMARK    5  A    between atoms: C_17  and  C_18
REMARK    6  A    between atoms: N_20  and  C_21
REMARK    7  A    between atoms: C_25  and  C_26
REMARK                            x       y       z     vdW  Elec       q    Type
REMARK                         _______ _______ _______ _____ _____    ______ ____
ROOT
ATOM      1  N   UNL     1       4.532   5.010  16.668  0.00  0.00    +0.000 N 
ATOM      2  C   UNL     1       4.080   6.105  17.383  0.00  0.00    +0.000 C 
ATOM      3  O   UNL     1       4.720   7.149  17.439  0.00  0.00    +0.000 OA
ATOM      4  N   UNL     1       2.873   5.875  18.013  0.00  0.00    +0.000 N 
ATOM      5  C   UNL     1       2.328   6.840  18.870  0.00  0.00    +0.000 A 
ATOM      6  C   UNL     1       1.953   8.095  18.385  0.00  0.00    +0.000 A 
ATOM      7  C   UNL     1       1.426   9.095  19.237  0.00  0.00    +0.000 A 
ATOM      8  C   UNL     1       1.342   8.766  20.604  0.00  0.00    +0.000 A 
ATOM      9  C   UNL     1       1.676   7.462  20.971  0.00  0.00    +0.000 A 
ATOM     10  N   UNL     1       2.124   6.487  20.141  0.00  0.00    +0.000 NA
ATOM     11  H   UNL     1       3.918   4.223  16.515  0.00  0.00    +0.000 HD
ATOM     12  H   UNL     1       2.755   4.940  18.371  0.00  0.00    +0.000 HD
ENDROOT
BRANCH   7  13
ATOM     13  N   UNL     1       1.106  10.320  18.671  0.00  0.00    +0.000 N 
ATOM     14  C   UNL     1       2.102  11.401  18.571  0.00  0.00    +0.000 C 
ATOM     15  C   UNL     1       1.489  12.761  18.958  0.00  0.00    +0.000 C 
ATOM     16  N   UNL     1       0.267  13.037  18.185  0.00  0.00    +0.000 NA
ATOM     17  C   UNL     1      -0.247  14.370  18.448  0.00  0.00    +0.000 C 
ATOM     18  C   UNL     1      -0.735  12.005  18.521  0.00  0.00    +0.000 C 
ATOM     19  C   UNL     1      -0.238  10.603  18.128  0.00  0.00    +0.000 C 
ENDBRANCH   7  13
BRANCH   8  20
ATOM     20  C   UNL     1       0.859   9.695  21.687  0.00  0.00    +0.000 C 
ATOM     21  O   UNL     1       1.314   9.630  22.799  0.00  0.00    +0.000 OA
ATOM     22  N   UNL     1      -0.123  10.605  21.285  0.00  0.00    +0.000 N 
ATOM     23  H   UNL     1      -0.415  10.615  20.321  0.00  0.00    +0.000 HD
BRANCH  22  24
ATOM     24  C   UNL     1      -0.788  11.531  22.120  0.00  0.00    +0.000 A 
ATOM     25  C   UNL     1      -1.873  11.196  22.930  0.00  0.00    +0.000 A 
ATOM     26  C   UNL     1      -2.508  12.162  23.708  0.00  0.00    +0.000 A 
ATOM     27  C   UNL     1      -2.078  13.483  23.672  0.00  0.00    +0.000 A 
ATOM     28  C   UNL     1      -0.988  13.846  22.875  0.00  0.00    +0.000 A 
ATOM     29  C   UNL     1      -0.540  15.276  22.802  0.00  0.00    +0.000 C 
ATOM     30  C   UNL     1      -0.331  12.857  22.120  0.00  0.00    +0.000 A 
ENDBRANCH  22  24
ENDBRANCH   8  20
BRANCH   1  32
ATOM     31  C   UNL     1       5.815   4.299  14.659  0.00  0.00    +0.000 C 
ATOM     32  C   UNL     1       5.803   5.079  15.966  0.00  0.00    +0.000 C 
ENDBRANCH   1  32
TORSDOF 4
ENDMDL
MODEL 8
REMARK VINA RESULT:      -6.9      3.488      7.228
REMARK  Name = 
REMARK  7 active torsions:
REMARK  status: ('A' for Active; 'I' for Inactive)
REMARK    1  A    between atoms: C_1  and  C_2
REMARK    2  A    between atoms: C_2  and  N_3
REMARK    3  A    between atoms: C_9  and  N_10
REMARK    4  A    between atoms: N_13  and  C_14
REMARK    5  A    between atoms: C_17  and  C_18
REMARK    6  A    between atoms: N_20  and  C_21
REMARK    7  A    between atoms: C_25  and  C_26
REMARK                            x       y       z     vdW  Elec       q    Type
REMARK                         _______ _______ _______ _____ _____    ______ ____
ROOT
ATOM      1  N   UNL     1       4.177   5.336  17.107  0.00  0.00    +0.000 N 
ATOM      2  C   UNL     1       3.735   6.452  17.794  0.00  0.00    +0.000 C 
ATOM      3  O   UNL     1       4.408   7.475  17.864  0.00  0.00    +0.000 OA
ATOM      4  N   UNL     1       2.498   6.270  18.378  0.00  0.00    +0.000 N 
ATOM      5  C   UNL     1       1.954   7.262  19.204  0.00  0.00    +0.000 A 
ATOM      6  C   UNL     1       1.640   8.523  18.693  0.00  0.00    +0.000 A 
ATOM      7  C   UNL     1       1.115   9.550  19.515  0.00  0.00    +0.000 A 
ATOM      8  C   UNL     1       0.967   9.238  20.881  0.00  0.00    +0.000 A 
ATOM      9  C   UNL     1       1.242   7.927  21.273  0.00  0.00    +0.000 A 
ATOM     10  N   UNL     1       1.689   6.929  20.470  0.00  0.00    +0.000 NA
ATOM     11  H   UNL     1       3.544   4.568  16.937  0.00  0.00    +0.000 HD
ATOM     12  H   UNL     1       2.335   5.343  18.740  0.00  0.00    +0.000 HD
ENDROOT
BRANCH   7  13
ATOM     13  N   UNL     1       0.858  10.778  18.926  0.00  0.00    +0.000 N 
ATOM     14  C   UNL     1       1.896  11.821  18.847  0.00  0.00    +0.000 C 
ATOM     15  C   UNL     1       1.321  13.207  19.199  0.00  0.00    +0.000 C 
ATOM     16  N   UNL     1       0.135  13.518  18.383  0.00  0.00    +0.000 NA
ATOM     17  C   UNL     1      -0.338  14.871  18.614  0.00  0.00    +0.000 C 
ATOM     18  C   UNL     1      -0.914  12.527  18.697  0.00  0.00    +0.000 C 
ATOM     19  C   UNL     1      -0.456  11.103  18.335  0.00  0.00    +0.000 C 
ENDBRANCH   7  13
BRANCH   8  20
ATOM     20  C   UNL     1       0.474  10.194  21.935  0.00  0.00    +0.000 C 
ATOM     21  O   UNL     1       0.793  10.053  23.087  0.00  0.00    +0.000 OA
ATOM     22  N   UNL     1      -0.348  11.220  21.460  0.00  0.00    +0.000 N 
ATOM     23  H   UNL     1      -0.528  11.283  20.471  0.00  0.00    +0.000 HD
BRANCH  22  24
ATOM     24  C   UNL     1      -0.994  12.198  22.249  0.00  0.00    +0.000 A 
ATOM     25  C   UNL     1      -0.487  13.481  22.453  0.00  0.00    +0.000 A 
ATOM     26  C   UNL     1      -1.154  14.391  23.271  0.00  0.00    +0.000 A 
ATOM     27  C   UNL     1      -2.331  14.023  23.912  0.00  0.00    +0.000 A 
ATOM     28  C   UNL     1      -2.867  12.746  23.719  0.00  0.00    +0.000 A 
ATOM     29  C   UNL     1      -4.117  12.329  24.436  0.00  0.00    +0.000 C 
ATOM     30  C   UNL     1      -2.205  11.846  22.864  0.00  0.00    +0.000 A 
ENDBRANCH  22  24
ENDBRANCH   8  20
BRANCH   1  32
ATOM     31  C   UNL     1       6.539   4.562  17.200  0.00  0.00    +0.000 C 
ATOM     32  C   UNL     1       5.476   5.355  16.454  0.00  0.00    +0.000 C 
ENDBRANCH   1  32
TORSDOF 4
ENDMDL
MODEL 9
REMARK VINA RESULT:      -6.9      2.239      8.247
REMARK  Name = 
REMARK  7 active torsions:
REMARK  status: ('A' for Active; 'I' for Inactive)
REMARK    1  A    between atoms: C_1  and  C_2
REMARK    2  A    between atoms: C_2  and  N_3
REMARK    3  A    between atoms: C_9  and  N_10
REMARK    4  A    between atoms: N_13  and  C_14
REMARK    5  A    between atoms: C_17  and  C_18
REMARK    6  A    between atoms: N_20  and  C_21
REMARK    7  A    between atoms: C_25  and  C_26
REMARK                            x       y       z     vdW  Elec       q    Type
REMARK                         _______ _______ _______ _____ _____    ______ ____
ROOT
ATOM      1  N   UNL     1      -0.652  10.541  21.460  0.00  0.00    +0.000 N 
ATOM      2  C   UNL     1       0.368   9.719  21.016  0.00  0.00    +0.000 C 
ATOM      3  O   UNL     1       1.178   9.220  21.789  0.00  0.00    +0.000 OA
ATOM      4  N   UNL     1       0.366   9.553  19.646  0.00  0.00    +0.000 N 
ATOM      5  C   UNL     1       1.398   8.841  19.019  0.00  0.00    +0.000 A 
ATOM      6  C   UNL     1       1.594   7.485  19.287  0.00  0.00    +0.000 A 
ATOM      7  C   UNL     1       2.647   6.752  18.687  0.00  0.00    +0.000 A 
ATOM      8  C   UNL     1       3.506   7.479  17.840  0.00  0.00    +0.000 A 
ATOM      9  C   UNL     1       3.178   8.811  17.585  0.00  0.00    +0.000 A 
ATOM     10  N   UNL     1       2.132   9.494  18.116  0.00  0.00    +0.000 NA
ATOM     11  H   UNL     1      -1.390  10.813  20.826  0.00  0.00    +0.000 HD
ATOM     12  H   UNL     1       0.096  10.371  19.121  0.00  0.00    +0.000 HD
ENDROOT
BRANCH   7  13
ATOM     13  N   UNL     1       2.780   5.416  19.032  0.00  0.00    +0.000 N 
ATOM     14  C   UNL     1       3.981   4.921  19.729  0.00  0.00    +0.000 C 
ATOM     15  C   UNL     1       4.462   3.585  19.130  0.00  0.00    +0.000 C 
ATOM     16  N   UNL     1       3.373   2.593  19.092  0.00  0.00    +0.000 NA
ATOM     17  C   UNL     1       3.846   1.293  18.650  0.00  0.00    +0.000 C 
ATOM     18  C   UNL     1       2.313   3.105  18.200  0.00  0.00    +0.000 C 
ATOM     19  C   UNL     1       1.728   4.423  18.737  0.00  0.00    +0.000 C 
ENDBRANCH   7  13
BRANCH   8  20
ATOM     20  C   UNL     1       4.712   6.910  17.141  0.00  0.00    +0.000 C 
ATOM     21  O   UNL     1       5.818   7.300  17.411  0.00  0.00    +0.000 OA
ATOM     22  N   UNL     1       4.430   5.922  16.193  0.00  0.00    +0.000 N 
ATOM     23  H   UNL     1       3.475   5.629  16.062  0.00  0.00    +0.000 HD
BRANCH  22  24
ATOM     24  C   UNL     1       5.371   5.283  15.355  0.00  0.00    +0.000 A 
ATOM     25  C   UNL     1       6.749   5.346  15.556  0.00  0.00    +0.000 A 
ATOM     26  C   UNL     1       7.629   4.723  14.674  0.00  0.00    +0.000 A 
ATOM     27  C   UNL     1       7.142   4.041  13.565  0.00  0.00    +0.000 A 
ATOM     28  C   UNL     1       5.764   3.954  13.343  0.00  0.00    +0.000 A 
ATOM     29  C   UNL     1       5.232   3.252  12.129  0.00  0.00    +0.000 C 
ATOM     30  C   UNL     1       4.883   4.557  14.257  0.00  0.00    +0.000 A 
ENDBRANCH  22  24
ENDBRANCH   8  20
BRANCH   1  32
ATOM     31  C   UNL     1      -1.895  11.821  23.194  0.00  0.00    +0.000 C 
ATOM     32  C   UNL     1      -0.776  10.839  22.878  0.00  0.00    +0.000 C 
ENDBRANCH   1  32
TORSDOF 4
ENDMDL
