MODEL 1
REMARK VINA RESULT:      -8.2      0.000      0.000
REMARK  Name = 
REMARK  10 active torsions:
REMARK  status: ('A' for Active; 'I' for Inactive)
REMARK    1  A    between atoms: C_1  and  O_2
REMARK    2  A    between atoms: O_2  and  C_3
REMARK    3  A    between atoms: C_7  and  N_8
REMARK    4  A    between atoms: C_9  and  C_11
REMARK    5  A    between atoms: C_11  and  N_12
REMARK    6  A    between atoms: C_13  and  C_14
REMARK    7  A    between atoms: C_14  and  C_15
REMARK    8  A    between atoms: C_14  and  C_16
REMARK    9  A    between atoms: N_23  and  C_24
REMARK   10  A    between atoms: C_24  and  C_25
REMARK                            x       y       z     vdW  Elec       q    Type
REMARK                         _______ _______ _______ _____ _____    ______ ____
ROOT
ATOM      1  N   UNL     1       1.508   9.145  19.401  0.00  0.00    +0.000 N 
ATOM      2  C   UNL     1       1.233   8.631  20.654  0.00  0.00    +0.000 A 
ATOM      3  N   UNL     1       1.392   7.377  20.941  0.00  0.00    +0.000 NA
ATOM      4  C   UNL     1       1.961   6.554  20.012  0.00  0.00    +0.000 A 
ATOM      5  C   UNL     1       2.307   6.928  18.776  0.00  0.00    +0.000 A 
ATOM      6  C   UNL     1       2.041   8.332  18.405  0.00  0.00    +0.000 A 
ATOM      7  O   UNL     1       2.304   8.732  17.271  0.00  0.00    +0.000 OA
ATOM      8  C   UNL     1       2.959   6.008  17.781  0.00  0.00    +0.000 C 
ATOM      9  N   UNL     1       3.440   4.721  18.356  0.00  0.00    +0.000 NA
ATOM     10  C   UNL     1       2.441   4.180  19.290  0.00  0.00    +0.000 C 
ATOM     11  C   UNL     1       2.206   5.140  20.461  0.00  0.00    +0.000 C 
ENDROOT
BRANCH   2  12
ATOM     12  C   UNL     1       0.650   9.521  21.769  0.00  0.00    +0.000 C 
ATOM     13  C   UNL     1      -0.753   9.052  22.153  0.00  0.00    +0.000 C 
ATOM     14  C   UNL     1       1.539   9.498  23.020  0.00  0.00    +0.000 C 
ENDBRANCH   2  12
BRANCH   1  15
ATOM     15  C   UNL     1       1.474  10.574  19.074  0.00  0.00    +0.000 C 
BRANCH  15  17
ATOM     16  N   UNL     1      -0.570  10.231  17.754  0.00  0.00    +0.000 N 
ATOM     17  C   UNL     1       0.015  10.950  18.784  0.00  0.00    +0.000 C 
ATOM     18  O   UNL     1      -0.567  11.771  19.495  0.00  0.00    +0.000 OA
ATOM     19  H   UNL     1      -0.045   9.475  17.336  0.00  0.00    +0.000 HD
BRANCH  16  24
ATOM     20  C   UNL     1      -4.278  10.485  17.755  0.00  0.00    +0.000 A 
ATOM     21  C   UNL     1      -4.536  10.821  16.426  0.00  0.00    +0.000 A 
ATOM     22  C   UNL     1      -3.492  10.919  15.515  0.00  0.00    +0.000 A 
ATOM     23  C   UNL     1      -2.178  10.714  15.937  0.00  0.00    +0.000 A 
ATOM     24  C   UNL     1      -1.894  10.414  17.273  0.00  0.00    +0.000 A 
ATOM     25  C   UNL     1      -2.957  10.282  18.178  0.00  0.00    +0.000 A 
BRANCH  20  27
ATOM     26  C   UNL     1      -6.483  11.234  18.156  0.00  0.00    +0.000 C 
ATOM     27  O   UNL     1      -5.384  10.428  18.558  0.00  0.00    +0.000 OA
ENDBRANCH  20  27
ENDBRANCH  16  24
ENDBRANCH  15  17
ENDBRANCH   1  15
BRANCH   9  28
ATOM     28  C   UNL     1       3.756   3.773  17.269  0.00  0.00    +0.000 C 
BRANCH  28  29
ATOM     29  C   UNL     1       4.998   4.103  16.459  0.00  0.00    +0.000 A 
ATOM     30  C   UNL     1       4.948   4.126  15.055  0.00  0.00    +0.000 A 
ATOM     31  C   UNL     1       6.070   4.487  14.305  0.00  0.00    +0.000 A 
ATOM     32  C   UNL     1       7.253   4.841  14.948  0.00  0.00    +0.000 A 
ATOM     33  C   UNL     1       7.323   4.807  16.339  0.00  0.00    +0.000 A 
ATOM     34  C   UNL     1       6.207   4.430  17.091  0.00  0.00    +0.000 A 
ENDBRANCH  28  29
ENDBRANCH   9  28
TORSDOF 7
ENDMDL
MODEL 2
REMARK VINA RESULT:      -8.1      0.646      1.057
REMARK  Name = 
REMARK  10 active torsions:
REMARK  status: ('A' for Active; 'I' for Inactive)
REMARK    1  A    between atoms: C_1  and  O_2
REMARK    2  A    between atoms: O_2  and  C_3
REMARK    3  A    between atoms: C_7  and  N_8
REMARK    4  A    between atoms: C_9  and  C_11
REMARK    5  A    between atoms: C_11  and  N_12
REMARK    6  A    between atoms: C_13  and  C_14
REMARK    7  A    between atoms: C_14  and  C_15
REMARK    8  A    between atoms: C_14  and  C_16
REMARK    9  A    between atoms: N_23  and  C_24
REMARK   10  A    between atoms: C_24  and  C_25
REMARK                            x       y       z     vdW  Elec       q    Type
REMARK                         _______ _______ _______ _____ _____    ______ ____
ROOT
ATOM      1  N   UNL     1       1.374   9.700  19.447  0.00  0.00    +0.000 N 
ATOM      2  C   UNL     1       1.028   9.222  20.697  0.00  0.00    +0.000 A 
ATOM      3  N   UNL     1       1.125   7.968  21.013  0.00  0.00    +0.000 NA
ATOM      4  C   UNL     1       1.696   7.105  20.123  0.00  0.00    +0.000 A 
ATOM      5  C   UNL     1       2.106   7.440  18.897  0.00  0.00    +0.000 A 
ATOM      6  C   UNL     1       1.912   8.846  18.488  0.00  0.00    +0.000 A 
ATOM      7  O   UNL     1       2.237   9.212  17.359  0.00  0.00    +0.000 OA
ATOM      8  C   UNL     1       2.759   6.476  17.945  0.00  0.00    +0.000 C 
ATOM      9  N   UNL     1       3.164   5.182  18.563  0.00  0.00    +0.000 NA
ATOM     10  C   UNL     1       2.107   4.700  19.465  0.00  0.00    +0.000 C 
ATOM     11  C   UNL     1       1.865   5.692  20.609  0.00  0.00    +0.000 C 
ENDROOT
BRANCH   2  12
ATOM     12  C   UNL     1       0.438  10.156  21.771  0.00  0.00    +0.000 C 
ATOM     13  C   UNL     1      -1.047  10.407  21.509  0.00  0.00    +0.000 C 
ATOM     14  C   UNL     1       0.599   9.561  23.176  0.00  0.00    +0.000 C 
ENDBRANCH   2  12
BRANCH   1  15
ATOM     15  C   UNL     1       1.411  11.121  19.093  0.00  0.00    +0.000 C 
BRANCH  15  17
ATOM     16  N   UNL     1      -0.700  10.526  17.986  0.00  0.00    +0.000 N 
ATOM     17  C   UNL     1       0.002  11.525  18.640  0.00  0.00    +0.000 C 
ATOM     18  O   UNL     1      -0.451  12.633  18.934  0.00  0.00    +0.000 OA
ATOM     19  H   UNL     1      -0.286   9.605  17.929  0.00  0.00    +0.000 HD
BRANCH  16  24
ATOM     20  C   UNL     1      -4.375  11.054  17.826  0.00  0.00    +0.000 A 
ATOM     21  C   UNL     1      -4.606  11.000  16.451  0.00  0.00    +0.000 A 
ATOM     22  C   UNL     1      -3.559  10.741  15.576  0.00  0.00    +0.000 A 
ATOM     23  C   UNL     1      -2.265  10.571  16.070  0.00  0.00    +0.000 A 
ATOM     24  C   UNL     1      -2.005  10.660  17.441  0.00  0.00    +0.000 A 
ATOM     25  C   UNL     1      -3.075  10.884  18.320  0.00  0.00    +0.000 A 
BRANCH  20  27
ATOM     26  C   UNL     1      -6.590  11.877  17.887  0.00  0.00    +0.000 C 
ATOM     27  O   UNL     1      -5.482  11.324  18.584  0.00  0.00    +0.000 OA
ENDBRANCH  20  27
ENDBRANCH  16  24
ENDBRANCH  15  17
ENDBRANCH   1  15
BRANCH   9  28
ATOM     28  C   UNL     1       3.484   4.200  17.508  0.00  0.00    +0.000 C 
BRANCH  28  29
ATOM     29  C   UNL     1       4.819   4.407  16.812  0.00  0.00    +0.000 A 
ATOM     30  C   UNL     1       6.002   4.525  17.562  0.00  0.00    +0.000 A 
ATOM     31  C   UNL     1       7.240   4.654  16.928  0.00  0.00    +0.000 A 
ATOM     32  C   UNL     1       7.315   4.656  15.537  0.00  0.00    +0.000 A 
ATOM     33  C   UNL     1       6.149   4.557  14.781  0.00  0.00    +0.000 A 
ATOM     34  C   UNL     1       4.907   4.444  15.413  0.00  0.00    +0.000 A 
ENDBRANCH  28  29
ENDBRANCH   9  28
TORSDOF 7
ENDMDL
MODEL 3
REMARK VINA RESULT:      -8.1      1.070      1.148
REMARK  Name = 
REMARK  10 active torsions:
REMARK  status: ('A' for Active; 'I' for Inactive)
REMARK    1  A    between atoms: C_1  and  O_2
REMARK    2  A    between atoms: O_2  and  C_3
REMARK    3  A    between atoms: C_7  and  N_8
REMARK    4  A    between atoms: C_9  and  C_11
REMARK    5  A    between atoms: C_11  and  N_12
REMARK    6  A    between atoms: C_13  and  C_14
REMARK    7  A    between atoms: C_14  and  C_15
REMARK    8  A    between atoms: C_14  and  C_16
REMARK    9  A    between atoms: N_23  and  C_24
REMARK   10  A    between atoms: C_24  and  C_25
REMARK                            x       y       z     vdW  Elec       q    Type
REMARK                         _______ _______ _______ _____ _____    ______ ____
ROOT
ATOM      1  N   UNL     1       1.170  10.043  19.790  0.00  0.00    +0.000 N 
ATOM      2  C   UNL     1       0.853   9.498  21.020  0.00  0.00    +0.000 A 
ATOM      3  N   UNL     1       0.977   8.232  21.272  0.00  0.00    +0.000 NA
ATOM      4  C   UNL     1       1.551   7.425  20.332  0.00  0.00    +0.000 A 
ATOM      5  C   UNL     1       1.936   7.829  19.118  0.00  0.00    +0.000 A 
ATOM      6  C   UNL     1       1.710   9.248  18.783  0.00  0.00    +0.000 A 
ATOM      7  O   UNL     1       2.010   9.676  17.668  0.00  0.00    +0.000 OA
ATOM      8  C   UNL     1       2.592   6.925  18.111  0.00  0.00    +0.000 C 
ATOM      9  N   UNL     1       3.031   5.610  18.658  0.00  0.00    +0.000 NA
ATOM     10  C   UNL     1       1.997   5.064  19.550  0.00  0.00    +0.000 C 
ATOM     11  C   UNL     1       1.754   5.994  20.744  0.00  0.00    +0.000 C 
ENDROOT
BRANCH   2  12
ATOM     12  C   UNL     1       0.261  10.367  22.147  0.00  0.00    +0.000 C 
ATOM     13  C   UNL     1      -1.106  10.917  21.742  0.00  0.00    +0.000 C 
ATOM     14  C   UNL     1       0.107   9.563  23.445  0.00  0.00    +0.000 C 
ENDBRANCH   2  12
BRANCH   1  15
ATOM     15  C   UNL     1       1.175  11.481  19.507  0.00  0.00    +0.000 C 
BRANCH  15  17
ATOM     16  N   UNL     1      -0.861  10.697  18.377  0.00  0.00    +0.000 N 
ATOM     17  C   UNL     1      -0.037  11.784  18.615  0.00  0.00    +0.000 C 
ATOM     18  O   UNL     1      -0.258  12.937  18.239  0.00  0.00    +0.000 OA
ATOM     19  H   UNL     1      -0.665   9.829  18.858  0.00  0.00    +0.000 HD
BRANCH  16  24
ATOM     20  C   UNL     1      -4.298  11.499  17.212  0.00  0.00    +0.000 A 
ATOM     21  C   UNL     1      -4.336  10.844  15.981  0.00  0.00    +0.000 A 
ATOM     22  C   UNL     1      -3.247  10.097  15.553  0.00  0.00    +0.000 A 
ATOM     23  C   UNL     1      -2.096  10.029  16.340  0.00  0.00    +0.000 A 
ATOM     24  C   UNL     1      -2.022  10.710  17.559  0.00  0.00    +0.000 A 
ATOM     25  C   UNL     1      -3.141  11.431  18.000  0.00  0.00    +0.000 A 
BRANCH  20  27
ATOM     26  C   UNL     1      -6.483  11.465  18.112  0.00  0.00    +0.000 C 
ATOM     27  O   UNL     1      -5.426  12.209  17.521  0.00  0.00    +0.000 OA
ENDBRANCH  20  27
ENDBRANCH  16  24
ENDBRANCH  15  17
ENDBRANCH   1  15
BRANCH   9  28
ATOM     28  C   UNL     1       3.353   4.689  17.550  0.00  0.00    +0.000 C 
BRANCH  28  29
ATOM     29  C   UNL     1       4.826   4.597  17.189  0.00  0.00    +0.000 A 
ATOM     30  C   UNL     1       5.221   4.373  15.859  0.00  0.00    +0.000 A 
ATOM     31  C   UNL     1       6.573   4.346  15.509  0.00  0.00    +0.000 A 
ATOM     32  C   UNL     1       7.549   4.554  16.480  0.00  0.00    +0.000 A 
ATOM     33  C   UNL     1       7.174   4.761  17.806  0.00  0.00    +0.000 A 
ATOM     34  C   UNL     1       5.821   4.771  18.162  0.00  0.00    +0.000 A 
ENDBRANCH  28  29
ENDBRANCH   9  28
TORSDOF 7
ENDMDL
MODEL 4
REMARK VINA RESULT:      -8.1      0.893      1.506
REMARK  Name = 
REMARK  10 active torsions:
REMARK  status: ('A' for Active; 'I' for Inactive)
REMARK    1  A    between atoms: C_1  and  O_2
REMARK    2  A    between atoms: O_2  and  C_3
REMARK    3  A    between atoms: C_7  and  N_8
REMARK    4  A    between atoms: C_9  and  C_11
REMARK    5  A    between atoms: C_11  and  N_12
REMARK    6  A    between atoms: C_13  and  C_14
REMARK    7  A    between atoms: C_14  and  C_15
REMARK    8  A    between atoms: C_14  and  C_16
REMARK    9  A    between atoms: N_23  and  C_24
REMARK   10  A    between atoms: C_24  and  C_25
REMARK                            x       y       z     vdW  Elec       q    Type
REMARK                         _______ _______ _______ _____ _____    ______ ____
ROOT
ATOM      1  N   UNL     1       1.634   9.187  19.368  0.00  0.00    +0.000 N 
ATOM      2  C   UNL     1       1.308   8.677  20.610  0.00  0.00    +0.000 A 
ATOM      3  N   UNL     1       1.422   7.418  20.896  0.00  0.00    +0.000 NA
ATOM      4  C   UNL     1       1.993   6.582  19.981  0.00  0.00    +0.000 A 
ATOM      5  C   UNL     1       2.385   6.950  18.758  0.00  0.00    +0.000 A 
ATOM      6  C   UNL     1       2.171   8.361  18.384  0.00  0.00    +0.000 A 
ATOM      7  O   UNL     1       2.479   8.757  17.260  0.00  0.00    +0.000 OA
ATOM      8  C   UNL     1       3.038   6.014  17.778  0.00  0.00    +0.000 C 
ATOM      9  N   UNL     1       3.464   4.711  18.361  0.00  0.00    +0.000 NA
ATOM     10  C   UNL     1       2.423   4.197  19.263  0.00  0.00    +0.000 C 
ATOM     11  C   UNL     1       2.183   5.160  20.432  0.00  0.00    +0.000 C 
ENDROOT
BRANCH   2  12
ATOM     12  C   UNL     1       0.720   9.580  21.712  0.00  0.00    +0.000 C 
ATOM     13  C   UNL     1      -0.766   9.282  21.916  0.00  0.00    +0.000 C 
ATOM     14  C   UNL     1       1.453   9.380  23.045  0.00  0.00    +0.000 C 
ENDBRANCH   2  12
BRANCH   1  15
ATOM     15  C   UNL     1       1.651  10.617  19.046  0.00  0.00    +0.000 C 
BRANCH  15  17
ATOM     16  N   UNL     1      -0.507  10.332  17.906  0.00  0.00    +0.000 N 
ATOM     17  C   UNL     1       0.197  11.066  18.846  0.00  0.00    +0.000 C 
ATOM     18  O   UNL     1      -0.279  11.958  19.551  0.00  0.00    +0.000 OA
ATOM     19  H   UNL     1      -0.060   9.524  17.493  0.00  0.00    +0.000 HD
BRANCH  16  24
ATOM     20  C   UNL     1      -3.565  10.414  15.795  0.00  0.00    +0.000 A 
ATOM     21  C   UNL     1      -4.501  10.949  16.680  0.00  0.00    +0.000 A 
ATOM     22  C   UNL     1      -4.117  11.329  17.959  0.00  0.00    +0.000 A 
ATOM     23  C   UNL     1      -2.798  11.142  18.374  0.00  0.00    +0.000 A 
ATOM     24  C   UNL     1      -1.852  10.571  17.517  0.00  0.00    +0.000 A 
ATOM     25  C   UNL     1      -2.241  10.225  16.214  0.00  0.00    +0.000 A 
BRANCH  20  27
ATOM     26  C   UNL     1      -3.100   9.858  13.545  0.00  0.00    +0.000 C 
ATOM     27  O   UNL     1      -4.064  10.071  14.568  0.00  0.00    +0.000 OA
ENDBRANCH  20  27
ENDBRANCH  16  24
ENDBRANCH  15  17
ENDBRANCH   1  15
BRANCH   9  28
ATOM     28  C   UNL     1       3.783   3.758  17.279  0.00  0.00    +0.000 C 
BRANCH  28  29
ATOM     29  C   UNL     1       5.023   4.090  16.466  0.00  0.00    +0.000 A 
ATOM     30  C   UNL     1       4.964   4.131  15.062  0.00  0.00    +0.000 A 
ATOM     31  C   UNL     1       6.083   4.493  14.310  0.00  0.00    +0.000 A 
ATOM     32  C   UNL     1       7.274   4.830  14.949  0.00  0.00    +0.000 A 
ATOM     33  C   UNL     1       7.353   4.777  16.339  0.00  0.00    +0.000 A 
ATOM     34  C   UNL     1       6.238   4.398  17.094  0.00  0.00    +0.000 A 
ENDBRANCH  28  29
ENDBRANCH   9  28
TORSDOF 7
ENDMDL
MODEL 5
REMARK VINA RESULT:      -7.7      4.721     10.629
REMARK  Name = 
REMARK  10 active torsions:
REMARK  status: ('A' for Active; 'I' for Inactive)
REMARK    1  A    between atoms: C_1  and  O_2
REMARK    2  A    between atoms: O_2  and  C_3
REMARK    3  A    between atoms: C_7  and  N_8
REMARK    4  A    between atoms: C_9  and  C_11
REMARK    5  A    between atoms: C_11  and  N_12
REMARK    6  A    between atoms: C_13  and  C_14
REMARK    7  A    between atoms: C_14  and  C_15
REMARK    8  A    between atoms: C_14  and  C_16
REMARK    9  A    between atoms: N_23  and  C_24
REMARK   10  A    between atoms: C_24  and  C_25
REMARK                            x       y       z     vdW  Elec       q    Type
REMARK                         _______ _______ _______ _____ _____    ______ ____
ROOT
ATOM      1  N   UNL     1       0.382  10.383  21.433  0.00  0.00    +0.000 N 
ATOM      2  C   UNL     1       0.360  11.011  20.202  0.00  0.00    +0.000 A 
ATOM      3  N   UNL     1      -0.493  11.943  19.912  0.00  0.00    +0.000 NA
ATOM      4  C   UNL     1      -1.323  12.407  20.891  0.00  0.00    +0.000 A 
ATOM      5  C   UNL     1      -1.382  11.915  22.132  0.00  0.00    +0.000 A 
ATOM      6  C   UNL     1      -0.483  10.787  22.447  0.00  0.00    +0.000 A 
ATOM      7  O   UNL     1      -0.512  10.266  23.562  0.00  0.00    +0.000 OA
ATOM      8  C   UNL     1      -2.286  12.463  23.201  0.00  0.00    +0.000 C 
ATOM      9  N   UNL     1      -2.921  13.767  22.861  0.00  0.00    +0.000 NA
ATOM     10  C   UNL     1      -3.381  13.756  21.464  0.00  0.00    +0.000 C 
ATOM     11  C   UNL     1      -2.206  13.559  20.500  0.00  0.00    +0.000 C 
ENDROOT
BRANCH   2  12
ATOM     12  C   UNL     1       1.316  10.580  19.073  0.00  0.00    +0.000 C 
ATOM     13  C   UNL     1       0.569   9.766  18.016  0.00  0.00    +0.000 C 
ATOM     14  C   UNL     1       1.961  11.797  18.396  0.00  0.00    +0.000 C 
ENDBRANCH   2  12
BRANCH   1  15
ATOM     15  C   UNL     1       1.410   9.426  21.849  0.00  0.00    +0.000 C 
BRANCH  15  17
ATOM     16  N   UNL     1       2.147   7.479  20.544  0.00  0.00    +0.000 N 
ATOM     17  C   UNL     1       1.081   8.077  21.197  0.00  0.00    +0.000 C 
ATOM     18  O   UNL     1      -0.033   7.571  21.345  0.00  0.00    +0.000 OA
ATOM     19  H   UNL     1       3.058   7.913  20.611  0.00  0.00    +0.000 HD
BRANCH  16  24
ATOM     20  C   UNL     1       1.644   3.858  19.878  0.00  0.00    +0.000 A 
ATOM     21  C   UNL     1       1.894   3.788  18.507  0.00  0.00    +0.000 A 
ATOM     22  C   UNL     1       2.275   4.925  17.807  0.00  0.00    +0.000 A 
ATOM     23  C   UNL     1       2.375   6.149  18.470  0.00  0.00    +0.000 A 
ATOM     24  C   UNL     1       2.091   6.249  19.835  0.00  0.00    +0.000 A 
ATOM     25  C   UNL     1       1.743   5.088  20.541  0.00  0.00    +0.000 A 
BRANCH  20  27
ATOM     26  C   UNL     1       1.591   2.527  21.830  0.00  0.00    +0.000 C 
ATOM     27  O   UNL     1       1.268   2.675  20.454  0.00  0.00    +0.000 OA
ENDBRANCH  20  27
ENDBRANCH  16  24
ENDBRANCH  15  17
ENDBRANCH   1  15
BRANCH   9  28
ATOM     28  C   UNL     1      -4.020  14.052  23.806  0.00  0.00    +0.000 C 
BRANCH  28  29
ATOM     29  C   UNL     1      -4.025  15.453  24.394  0.00  0.00    +0.000 A 
ATOM     30  C   UNL     1      -2.843  16.012  24.912  0.00  0.00    +0.000 A 
ATOM     31  C   UNL     1      -2.826  17.321  25.399  0.00  0.00    +0.000 A 
ATOM     32  C   UNL     1      -3.985  18.093  25.365  0.00  0.00    +0.000 A 
ATOM     33  C   UNL     1      -5.167  17.547  24.870  0.00  0.00    +0.000 A 
ATOM     34  C   UNL     1      -5.191  16.231  24.397  0.00  0.00    +0.000 A 
ENDBRANCH  28  29
ENDBRANCH   9  28
TORSDOF 7
ENDMDL
MODEL 6
REMARK VINA RESULT:      -7.6      1.608      1.772
REMARK  Name = 
REMARK  10 active torsions:
REMARK  status: ('A' for Active; 'I' for Inactive)
REMARK    1  A    between atoms: C_1  and  O_2
REMARK    2  A    between atoms: O_2  and  C_3
REMARK    3  A    between atoms: C_7  and  N_8
REMARK    4  A    between atoms: C_9  and  C_11
REMARK    5  A    between atoms: C_11  and  N_12
REMARK    6  A    between atoms: C_13  and  C_14
REMARK    7  A    between atoms: C_14  and  C_15
REMARK    8  A    between atoms: C_14  and  C_16
REMARK    9  A    between atoms: N_23  and  C_24
REMARK   10  A    between atoms: C_24  and  C_25
REMARK                            x       y       z     vdW  Elec       q    Type
REMARK                         _______ _______ _______ _____ _____    ______ ____
ROOT
ATOM      1  N   UNL     1       1.545   8.790  19.201  0.00  0.00    +0.000 N 
ATOM      2  C   UNL     1       1.346   8.344  20.494  0.00  0.00    +0.000 A 
ATOM      3  N   UNL     1       1.632   7.136  20.865  0.00  0.00    +0.000 NA
ATOM      4  C   UNL     1       2.260   6.305  19.982  0.00  0.00    +0.000 A 
ATOM      5  C   UNL     1       2.543   6.620  18.714  0.00  0.00    +0.000 A 
ATOM      6  C   UNL     1       2.134   7.960  18.251  0.00  0.00    +0.000 A 
ATOM      7  O   UNL     1       2.335   8.300  17.085  0.00  0.00    +0.000 OA
ATOM      8  C   UNL     1       3.261   5.696  17.769  0.00  0.00    +0.000 C 
ATOM      9  N   UNL     1       3.877   4.506  18.421  0.00  0.00    +0.000 NA
ATOM     10  C   UNL     1       2.954   3.942  19.417  0.00  0.00    +0.000 C 
ATOM     11  C   UNL     1       2.650   4.959  20.524  0.00  0.00    +0.000 C 
ENDROOT
BRANCH   2  12
ATOM     12  C   UNL     1       0.702   9.254  21.559  0.00  0.00    +0.000 C 
ATOM     13  C   UNL     1      -0.657   8.701  21.987  0.00  0.00    +0.000 C 
ATOM     14  C   UNL     1       1.598   9.380  22.798  0.00  0.00    +0.000 C 
ENDBRANCH   2  12
BRANCH   1  15
ATOM     15  C   UNL     1       1.365  10.181  18.775  0.00  0.00    +0.000 C 
BRANCH  15  17
ATOM     16  N   UNL     1      -0.732  11.354  19.289  0.00  0.00    +0.000 N 
ATOM     17  C   UNL     1      -0.129  10.392  18.495  0.00  0.00    +0.000 C 
ATOM     18  O   UNL     1      -0.678   9.790  17.571  0.00  0.00    +0.000 OA
ATOM     19  H   UNL     1      -0.151  11.893  19.917  0.00  0.00    +0.000 HD
BRANCH  16  24
ATOM     20  C   UNL     1      -3.984  12.832  20.315  0.00  0.00    +0.000 A 
ATOM     21  C   UNL     1      -4.794  12.508  19.226  0.00  0.00    +0.000 A 
ATOM     22  C   UNL     1      -4.283  11.761  18.172  0.00  0.00    +0.000 A 
ATOM     23  C   UNL     1      -2.946  11.362  18.186  0.00  0.00    +0.000 A 
ATOM     24  C   UNL     1      -2.106  11.709  19.249  0.00  0.00    +0.000 A 
ATOM     25  C   UNL     1      -2.641  12.432  20.325  0.00  0.00    +0.000 A 
BRANCH  20  27
ATOM     26  C   UNL     1      -5.683  14.385  20.852  0.00  0.00    +0.000 C 
ATOM     27  O   UNL     1      -4.596  13.577  21.285  0.00  0.00    +0.000 OA
ENDBRANCH  20  27
ENDBRANCH  16  24
ENDBRANCH  15  17
ENDBRANCH   1  15
BRANCH   9  28
ATOM     28  C   UNL     1       4.262   3.516  17.395  0.00  0.00    +0.000 C 
BRANCH  28  29
ATOM     29  C   UNL     1       5.321   3.979  16.410  0.00  0.00    +0.000 A 
ATOM     30  C   UNL     1       5.093   3.890  15.025  0.00  0.00    +0.000 A 
ATOM     31  C   UNL     1       6.037   4.369  14.113  0.00  0.00    +0.000 A 
ATOM     32  C   UNL     1       7.215   4.954  14.571  0.00  0.00    +0.000 A 
ATOM     33  C   UNL     1       7.462   5.034  15.940  0.00  0.00    +0.000 A 
ATOM     34  C   UNL     1       6.527   4.540  16.855  0.00  0.00    +0.000 A 
ENDBRANCH  28  29
ENDBRANCH   9  28
TORSDOF 7
ENDMDL
MODEL 7
REMARK VINA RESULT:      -7.6      3.921     10.372
REMARK  Name = 
REMARK  10 active torsions:
REMARK  status: ('A' for Active; 'I' for Inactive)
REMARK    1  A    between atoms: C_1  and  O_2
REMARK    2  A    between atoms: O_2  and  C_3
REMARK    3  A    between atoms: C_7  and  N_8
REMARK    4  A    between atoms: C_9  and  C_11
REMARK    5  A    between atoms: C_11  and  N_12
REMARK    6  A    between atoms: C_13  and  C_14
REMARK    7  A    between atoms: C_14  and  C_15
REMARK    8  A    between atoms: C_14  and  C_16
REMARK    9  A    between atoms: N_23  and  C_24
REMARK   10  A    between atoms: C_24  and  C_25
REMARK                            x       y       z     vdW  Elec       q    Type
REMARK                         _______ _______ _______ _____ _____    ______ ____
ROOT
ATOM      1  N   UNL     1       0.365  10.481  21.559  0.00  0.00    +0.000 N 
ATOM      2  C   UNL     1       0.309  11.118  20.334  0.00  0.00    +0.000 A 
ATOM      3  N   UNL     1      -0.524  12.079  20.087  0.00  0.00    +0.000 NA
ATOM      4  C   UNL     1      -1.295  12.562  21.105  0.00  0.00    +0.000 A 
ATOM      5  C   UNL     1      -1.315  12.063  22.344  0.00  0.00    +0.000 A 
ATOM      6  C   UNL     1      -0.440  10.905  22.612  0.00  0.00    +0.000 A 
ATOM      7  O   UNL     1      -0.436  10.378  23.725  0.00  0.00    +0.000 OA
ATOM      8  C   UNL     1      -2.153  12.632  23.456  0.00  0.00    +0.000 C 
ATOM      9  N   UNL     1      -2.760  13.959  23.152  0.00  0.00    +0.000 NA
ATOM     10  C   UNL     1      -3.281  13.972  21.777  0.00  0.00    +0.000 C 
ATOM     11  C   UNL     1      -2.157  13.744  20.760  0.00  0.00    +0.000 C 
ENDROOT
BRANCH   2  12
ATOM     12  C   UNL     1       1.200  10.665  19.160  0.00  0.00    +0.000 C 
ATOM     13  C   UNL     1       0.373   9.923  18.111  0.00  0.00    +0.000 C 
ATOM     14  C   UNL     1       1.890  11.862  18.491  0.00  0.00    +0.000 C 
ENDBRANCH   2  12
BRANCH   1  15
ATOM     15  C   UNL     1       1.380   9.488  21.923  0.00  0.00    +0.000 C 
BRANCH  15  17
ATOM     16  N   UNL     1       2.095   7.517  20.643  0.00  0.00    +0.000 N 
ATOM     17  C   UNL     1       1.020   8.174  21.218  0.00  0.00    +0.000 C 
ATOM     18  O   UNL     1      -0.133   7.742  21.263  0.00  0.00    +0.000 OA
ATOM     19  H   UNL     1       3.024   7.888  20.795  0.00  0.00    +0.000 HD
BRANCH  16  24
ATOM     20  C   UNL     1       1.562   3.915  19.901  0.00  0.00    +0.000 A 
ATOM     21  C   UNL     1       1.783   3.877  18.524  0.00  0.00    +0.000 A 
ATOM     22  C   UNL     1       2.154   5.029  17.844  0.00  0.00    +0.000 A 
ATOM     23  C   UNL     1       2.273   6.237  18.534  0.00  0.00    +0.000 A 
ATOM     24  C   UNL     1       2.019   6.305  19.907  0.00  0.00    +0.000 A 
ATOM     25  C   UNL     1       1.680   5.129  20.591  0.00  0.00    +0.000 A 
BRANCH  20  27
ATOM     26  C   UNL     1       1.493   2.561  21.837  0.00  0.00    +0.000 C 
ATOM     27  O   UNL     1       1.194   2.720  20.457  0.00  0.00    +0.000 OA
ENDBRANCH  20  27
ENDBRANCH  16  24
ENDBRANCH  15  17
ENDBRANCH   1  15
BRANCH   9  28
ATOM     28  C   UNL     1      -3.805  14.271  24.147  0.00  0.00    +0.000 C 
BRANCH  28  29
ATOM     29  C   UNL     1      -5.230  13.991  23.701  0.00  0.00    +0.000 A 
ATOM     30  C   UNL     1      -5.845  12.765  24.010  0.00  0.00    +0.000 A 
ATOM     31  C   UNL     1      -7.175  12.523  23.657  0.00  0.00    +0.000 A 
ATOM     32  C   UNL     1      -7.912  13.505  23.001  0.00  0.00    +0.000 A 
ATOM     33  C   UNL     1      -7.311  14.719  22.673  0.00  0.00    +0.000 A 
ATOM     34  C   UNL     1      -5.975  14.957  23.011  0.00  0.00    +0.000 A 
ENDBRANCH  28  29
ENDBRANCH   9  28
TORSDOF 7
ENDMDL
MODEL 8
REMARK VINA RESULT:      -7.4      2.716      3.868
REMARK  Name = 
REMARK  10 active torsions:
REMARK  status: ('A' for Active; 'I' for Inactive)
REMARK    1  A    between atoms: C_1  and  O_2
REMARK    2  A    between atoms: O_2  and  C_3
REMARK    3  A    between atoms: C_7  and  N_8
REMARK    4  A    between atoms: C_9  and  C_11
REMARK    5  A    between atoms: C_11  and  N_12
REMARK    6  A    between atoms: C_13  and  C_14
REMARK    7  A    between atoms: C_14  and  C_15
REMARK    8  A    between atoms: C_14  and  C_16
REMARK    9  A    between atoms: N_23  and  C_24
REMARK   10  A    between atoms: C_24  and  C_25
REMARK                            x       y       z     vdW  Elec       q    Type
REMARK                         _______ _______ _______ _____ _____    ______ ____
ROOT
ATOM      1  N   UNL     1      -0.836  11.150  19.494  0.00  0.00    +0.000 N 
ATOM      2  C   UNL     1      -0.615  11.059  20.855  0.00  0.00    +0.000 A 
ATOM      3  N   UNL     1       0.103  10.117  21.382  0.00  0.00    +0.000 NA
ATOM      4  C   UNL     1       0.761   9.249  20.558  0.00  0.00    +0.000 A 
ATOM      5  C   UNL     1       0.664   9.247  19.225  0.00  0.00    +0.000 A 
ATOM      6  C   UNL     1      -0.227  10.255  18.619  0.00  0.00    +0.000 A 
ATOM      7  O   UNL     1      -0.387  10.285  17.398  0.00  0.00    +0.000 OA
ATOM      8  C   UNL     1       1.422   8.298  18.339  0.00  0.00    +0.000 C 
ATOM      9  N   UNL     1       2.497   7.535  19.032  0.00  0.00    +0.000 NA
ATOM     10  C   UNL     1       2.022   7.070  20.343  0.00  0.00    +0.000 C 
ATOM     11  C   UNL     1       1.653   8.254  21.245  0.00  0.00    +0.000 C 
ENDROOT
BRANCH   2  12
ATOM     12  C   UNL     1      -1.275  12.048  21.837  0.00  0.00    +0.000 C 
ATOM     13  C   UNL     1      -1.637  11.345  23.145  0.00  0.00    +0.000 C 
ATOM     14  C   UNL     1      -0.344  13.227  22.149  0.00  0.00    +0.000 C 
ENDBRANCH   2  12
BRANCH   1  15
ATOM     15  C   UNL     1      -1.522  12.272  18.847  0.00  0.00    +0.000 C 
BRANCH  15  17
ATOM     16  N   UNL     1      -3.701  12.938  19.768  0.00  0.00    +0.000 N 
ATOM     17  C   UNL     1      -3.032  12.026  18.968  0.00  0.00    +0.000 C 
ATOM     18  O   UNL     1      -3.568  11.127  18.317  0.00  0.00    +0.000 OA
ATOM     19  H   UNL     1      -3.184  13.725  20.136  0.00  0.00    +0.000 HD
BRANCH  16  24
ATOM     20  C   UNL     1      -6.851  12.383  21.660  0.00  0.00    +0.000 A 
ATOM     21  C   UNL     1      -7.805  12.864  20.763  0.00  0.00    +0.000 A 
ATOM     22  C   UNL     1      -7.417  13.328  19.512  0.00  0.00    +0.000 A 
ATOM     23  C   UNL     1      -6.065  13.347  19.166  0.00  0.00    +0.000 A 
ATOM     24  C   UNL     1      -5.089  12.906  20.065  0.00  0.00    +0.000 A 
ATOM     25  C   UNL     1      -5.494  12.405  21.310  0.00  0.00    +0.000 A 
BRANCH  20  27
ATOM     26  C   UNL     1      -7.007  12.754  23.989  0.00  0.00    +0.000 C 
ATOM     27  O   UNL     1      -7.353  11.961  22.861  0.00  0.00    +0.000 OA
ENDBRANCH  20  27
ENDBRANCH  16  24
ENDBRANCH  15  17
ENDBRANCH   1  15
BRANCH   9  28
ATOM     28  C   UNL     1       2.950   6.419  18.177  0.00  0.00    +0.000 C 
BRANCH  28  29
ATOM     29  C   UNL     1       4.453   6.202  18.134  0.00  0.00    +0.000 A 
ATOM     30  C   UNL     1       5.245   6.887  17.196  0.00  0.00    +0.000 A 
ATOM     31  C   UNL     1       6.634   6.739  17.188  0.00  0.00    +0.000 A 
ATOM     32  C   UNL     1       7.252   5.914  18.125  0.00  0.00    +0.000 A 
ATOM     33  C   UNL     1       6.479   5.216  19.051  0.00  0.00    +0.000 A 
ATOM     34  C   UNL     1       5.087   5.349  19.049  0.00  0.00    +0.000 A 
ENDBRANCH  28  29
ENDBRANCH   9  28
TORSDOF 7
ENDMDL
MODEL 9
REMARK VINA RESULT:      -7.4      4.065     10.612
REMARK  Name = 
REMARK  10 active torsions:
REMARK  status: ('A' for Active; 'I' for Inactive)
REMARK    1  A    between atoms: C_1  and  O_2
REMARK    2  A    between atoms: O_2  and  C_3
REMARK    3  A    between atoms: C_7  and  N_8
REMARK    4  A    between atoms: C_9  and  C_11
REMARK    5  A    between atoms: C_11  and  N_12
REMARK    6  A    between atoms: C_13  and  C_14
REMARK    7  A    between atoms: C_14  and  C_15
REMARK    8  A    between atoms: C_14  and  C_16
REMARK    9  A    between atoms: N_23  and  C_24
REMARK   10  A    between atoms: C_24  and  C_25
REMARK                            x       y       z     vdW  Elec       q    Type
REMARK                         _______ _______ _______ _____ _____    ______ ____
ROOT
ATOM      1  N   UNL     1       0.194  10.346  21.557  0.00  0.00    +0.000 N 
ATOM      2  C   UNL     1       0.070  10.989  20.340  0.00  0.00    +0.000 A 
ATOM      3  N   UNL     1      -0.858  11.865  20.107  0.00  0.00    +0.000 NA
ATOM      4  C   UNL     1      -1.670  12.255  21.133  0.00  0.00    +0.000 A 
ATOM      5  C   UNL     1      -1.634  11.741  22.366  0.00  0.00    +0.000 A 
ATOM      6  C   UNL     1      -0.647  10.674  22.617  0.00  0.00    +0.000 A 
ATOM      7  O   UNL     1      -0.586  10.135  23.723  0.00  0.00    +0.000 OA
ATOM      8  C   UNL     1      -2.522  12.209  23.487  0.00  0.00    +0.000 C 
ATOM      9  N   UNL     1      -3.260  13.471  23.201  0.00  0.00    +0.000 NA
ATOM     10  C   UNL     1      -3.785  13.450  21.828  0.00  0.00    +0.000 C 
ATOM     11  C   UNL     1      -2.647  13.349  20.805  0.00  0.00    +0.000 C 
ENDROOT
BRANCH   2  12
ATOM     12  C   UNL     1       0.998  10.643  19.159  0.00  0.00    +0.000 C 
ATOM     13  C   UNL     1       0.210   9.971  18.034  0.00  0.00    +0.000 C 
ATOM     14  C   UNL     1       1.681  11.899  18.602  0.00  0.00    +0.000 C 
ENDBRANCH   2  12
BRANCH   1  15
ATOM     15  C   UNL     1       1.304   9.456  21.906  0.00  0.00    +0.000 C 
BRANCH  15  17
ATOM     16  N   UNL     1       2.158   7.558  20.599  0.00  0.00    +0.000 N 
ATOM     17  C   UNL     1       1.050   8.105  21.225  0.00  0.00    +0.000 C 
ATOM     18  O   UNL     1      -0.048   7.554  21.331  0.00  0.00    +0.000 OA
ATOM     19  H   UNL     1       3.048   8.027  20.702  0.00  0.00    +0.000 HD
BRANCH  16  24
ATOM     20  C   UNL     1       1.671   3.958  19.820  0.00  0.00    +0.000 A 
ATOM     21  C   UNL     1       2.106   3.896  18.496  0.00  0.00    +0.000 A 
ATOM     22  C   UNL     1       2.605   5.032  17.871  0.00  0.00    +0.000 A 
ATOM     23  C   UNL     1       2.639   6.246  18.558  0.00  0.00    +0.000 A 
ATOM     24  C   UNL     1       2.173   6.338  19.873  0.00  0.00    +0.000 A 
ATOM     25  C   UNL     1       1.705   5.178  20.508  0.00  0.00    +0.000 A 
BRANCH  20  27
ATOM     26  C   UNL     1       1.520   2.506  21.680  0.00  0.00    +0.000 C 
ATOM     27  O   UNL     1       1.194   2.778  20.323  0.00  0.00    +0.000 OA
ENDBRANCH  20  27
ENDBRANCH  16  24
ENDBRANCH  15  17
ENDBRANCH   1  15
BRANCH   9  28
ATOM     28  C   UNL     1      -4.328  13.665  24.202  0.00  0.00    +0.000 C 
BRANCH  28  29
ATOM     29  C   UNL     1      -5.537  14.447  23.719  0.00  0.00    +0.000 A 
ATOM     30  C   UNL     1      -5.462  15.841  23.548  0.00  0.00    +0.000 A 
ATOM     31  C   UNL     1      -6.550  16.559  23.048  0.00  0.00    +0.000 A 
ATOM     32  C   UNL     1      -7.724  15.895  22.700  0.00  0.00    +0.000 A 
ATOM     33  C   UNL     1      -7.819  14.517  22.879  0.00  0.00    +0.000 A 
ATOM     34  C   UNL     1      -6.737  13.797  23.396  0.00  0.00    +0.000 A 
ENDBRANCH  28  29
ENDBRANCH   9  28
TORSDOF 7
ENDMDL
