MODEL 1
REMARK VINA RESULT:      -6.9      0.000      0.000
REMARK  Name = 
REMARK  10 active torsions:
REMARK  status: ('A' for Active; 'I' for Inactive)
REMARK    1  A    between atoms: C_1  and  C_2
REMARK    2  A    between atoms: C_5  and  C_6
REMARK    3  A    between atoms: C_6  and  C_7
REMARK    4  A    between atoms: C_6  and  S_8
REMARK    5  A    between atoms: S_8  and  C_11
REMARK    6  A    between atoms: C_11  and  C_12
REMARK    7  A    between atoms: C_12  and  C_13
REMARK    8  A    between atoms: C_13  and  C_14
REMARK    9  A    between atoms: C_14  and  C_15
REMARK   10  A    between atoms: C_14  and  C_16
REMARK                            x       y       z     vdW  Elec       q    Type
REMARK                         _______ _______ _______ _____ _____    ______ ____
ROOT
ATOM      1  S   UNL     1       6.790   5.583  16.551  0.00  0.00    +0.000 S 
ATOM      2  O   UNL     1       7.639   6.745  16.352  0.00  0.00    +0.000 OA
ATOM      3  O   UNL     1       7.371   4.291  16.866  0.00  0.00    +0.000 OA
ENDROOT
BRANCH   1   4
ATOM      4  C   UNL     1       5.560   5.985  17.789  0.00  0.00    +0.000 C 
ATOM      5  C   UNL     1       4.394   6.769  17.207  0.00  0.00    +0.000 C 
BRANCH   4  10
ATOM      6  C   UNL     1       3.052   1.854  18.129  0.00  0.00    +0.000 C 
ATOM      7  C   UNL     1       4.013   2.888  18.547  0.00  0.00    +0.000 A 
ATOM      8  N   UNL     1       4.826   2.923  19.580  0.00  0.00    +0.000 NA
ATOM      9  N   UNL     1       5.538   4.102  19.478  0.00  0.00    +0.000 NA
ATOM     10  C   UNL     1       5.121   4.697  18.379  0.00  0.00    +0.000 A 
ATOM     11  O   UNL     1       4.114   4.002  17.759  0.00  0.00    +0.000 OA
ENDBRANCH   4  10
ENDBRANCH   1   4
BRANCH   1  12
ATOM     12  C   UNL     1       5.857   5.372  15.034  0.00  0.00    +0.000 C 
BRANCH  12  13
ATOM     13  C   UNL     1       6.091   3.967  14.487  0.00  0.00    +0.000 C 
BRANCH  13  14
ATOM     14  C   UNL     1       6.392   3.951  12.988  0.00  0.00    +0.000 C 
BRANCH  14  15
ATOM     15  C   UNL     1       5.654   2.813  12.253  0.00  0.00    +0.000 C 
ATOM     16  C   UNL     1       4.440   3.312  11.464  0.00  0.00    +0.000 C 
ATOM     17  C   UNL     1       6.614   2.089  11.308  0.00  0.00    +0.000 C 
ENDBRANCH  14  15
ENDBRANCH  13  14
ENDBRANCH  12  13
ENDBRANCH   1  12
TORSDOF 6
ENDMDL
MODEL 2
REMARK VINA RESULT:      -6.7      2.705      6.181
REMARK  Name = 
REMARK  10 active torsions:
REMARK  status: ('A' for Active; 'I' for Inactive)
REMARK    1  A    between atoms: C_1  and  C_2
REMARK    2  A    between atoms: C_5  and  C_6
REMARK    3  A    between atoms: C_6  and  C_7
REMARK    4  A    between atoms: C_6  and  S_8
REMARK    5  A    between atoms: S_8  and  C_11
REMARK    6  A    between atoms: C_11  and  C_12
REMARK    7  A    between atoms: C_12  and  C_13
REMARK    8  A    between atoms: C_13  and  C_14
REMARK    9  A    between atoms: C_14  and  C_15
REMARK   10  A    between atoms: C_14  and  C_16
REMARK                            x       y       z     vdW  Elec       q    Type
REMARK                         _______ _______ _______ _____ _____    ______ ____
ROOT
ATOM      1  S   UNL     1       4.196   4.070  18.216  0.00  0.00    +0.000 S 
ATOM      2  O   UNL     1       4.558   3.791  19.596  0.00  0.00    +0.000 OA
ATOM      3  O   UNL     1       3.450   5.268  17.880  0.00  0.00    +0.000 OA
ENDROOT
BRANCH   1   4
ATOM      4  C   UNL     1       5.680   4.008  17.217  0.00  0.00    +0.000 C 
ATOM      5  C   UNL     1       5.389   4.230  15.741  0.00  0.00    +0.000 C 
BRANCH   4  10
ATOM      6  C   UNL     1       7.764   8.363  17.619  0.00  0.00    +0.000 C 
ATOM      7  C   UNL     1       7.529   6.945  17.935  0.00  0.00    +0.000 A 
ATOM      8  N   UNL     1       8.055   6.186  18.872  0.00  0.00    +0.000 NA
ATOM      9  N   UNL     1       7.457   4.946  18.753  0.00  0.00    +0.000 NA
ATOM     10  C   UNL     1       6.596   5.040  17.761  0.00  0.00    +0.000 A 
ATOM     11  O   UNL     1       6.622   6.274  17.161  0.00  0.00    +0.000 OA
ENDBRANCH   4  10
ENDBRANCH   1   4
BRANCH   1  12
ATOM     12  C   UNL     1       3.212   2.677  17.659  0.00  0.00    +0.000 C 
BRANCH  12  13
ATOM     13  C   UNL     1       2.396   2.135  18.827  0.00  0.00    +0.000 C 
BRANCH  13  14
ATOM     14  C   UNL     1       1.077   2.879  19.032  0.00  0.00    +0.000 C 
BRANCH  14  15
ATOM     15  C   UNL     1       0.916   3.406  20.473  0.00  0.00    +0.000 C 
ATOM     16  C   UNL     1       1.752   2.618  21.485  0.00  0.00    +0.000 C 
ATOM     17  C   UNL     1       1.299   4.886  20.538  0.00  0.00    +0.000 C 
ENDBRANCH  14  15
ENDBRANCH  13  14
ENDBRANCH  12  13
ENDBRANCH   1  12
TORSDOF 6
ENDMDL
MODEL 3
REMARK VINA RESULT:      -6.7      2.637      5.815
REMARK  Name = 
REMARK  10 active torsions:
REMARK  status: ('A' for Active; 'I' for Inactive)
REMARK    1  A    between atoms: C_1  and  C_2
REMARK    2  A    between atoms: C_5  and  C_6
REMARK    3  A    between atoms: C_6  and  C_7
REMARK    4  A    between atoms: C_6  and  S_8
REMARK    5  A    between atoms: S_8  and  C_11
REMARK    6  A    between atoms: C_11  and  C_12
REMARK    7  A    between atoms: C_12  and  C_13
REMARK    8  A    between atoms: C_13  and  C_14
REMARK    9  A    between atoms: C_14  and  C_15
REMARK   10  A    between atoms: C_14  and  C_16
REMARK                            x       y       z     vdW  Elec       q    Type
REMARK                         _______ _______ _______ _____ _____    ______ ____
ROOT
ATOM      1  S   UNL     1       5.250   4.669  18.341  0.00  0.00    +0.000 S 
ATOM      2  O   UNL     1       6.570   4.115  18.092  0.00  0.00    +0.000 OA
ATOM      3  O   UNL     1       4.992   5.448  19.538  0.00  0.00    +0.000 OA
ENDROOT
BRANCH   1   4
ATOM      4  C   UNL     1       4.754   5.622  16.908  0.00  0.00    +0.000 C 
ATOM      5  C   UNL     1       4.657   7.109  17.213  0.00  0.00    +0.000 C 
BRANCH   4  10
ATOM      6  C   UNL     1       6.513   3.686  12.830  0.00  0.00    +0.000 C 
ATOM      7  C   UNL     1       6.542   4.480  14.069  0.00  0.00    +0.000 A 
ATOM      8  N   UNL     1       7.493   5.239  14.569  0.00  0.00    +0.000 NA
ATOM      9  N   UNL     1       6.986   5.788  15.730  0.00  0.00    +0.000 NA
ATOM     10  C   UNL     1       5.754   5.339  15.850  0.00  0.00    +0.000 A 
ATOM     11  O   UNL     1       5.419   4.461  14.850  0.00  0.00    +0.000 OA
ENDBRANCH   4  10
ENDBRANCH   1   4
BRANCH   1  12
ATOM     12  C   UNL     1       4.116   3.279  18.378  0.00  0.00    +0.000 C 
BRANCH  12  13
ATOM     13  C   UNL     1       2.779   3.700  17.777  0.00  0.00    +0.000 C 
BRANCH  13  14
ATOM     14  C   UNL     1       1.604   3.498  18.732  0.00  0.00    +0.000 C 
BRANCH  14  15
ATOM     15  C   UNL     1       1.979   3.801  20.198  0.00  0.00    +0.000 C 
ATOM     16  C   UNL     1       1.636   5.234  20.610  0.00  0.00    +0.000 C 
ATOM     17  C   UNL     1       1.273   2.819  21.135  0.00  0.00    +0.000 C 
ENDBRANCH  14  15
ENDBRANCH  13  14
ENDBRANCH  12  13
ENDBRANCH   1  12
TORSDOF 6
ENDMDL
MODEL 4
REMARK VINA RESULT:      -6.6      2.647      5.940
REMARK  Name = 
REMARK  10 active torsions:
REMARK  status: ('A' for Active; 'I' for Inactive)
REMARK    1  A    between atoms: C_1  and  C_2
REMARK    2  A    between atoms: C_5  and  C_6
REMARK    3  A    between atoms: C_6  and  C_7
REMARK    4  A    between atoms: C_6  and  S_8
REMARK    5  A    between atoms: S_8  and  C_11
REMARK    6  A    between atoms: C_11  and  C_12
REMARK    7  A    between atoms: C_12  and  C_13
REMARK    8  A    between atoms: C_13  and  C_14
REMARK    9  A    between atoms: C_14  and  C_15
REMARK   10  A    between atoms: C_14  and  C_16
REMARK                            x       y       z     vdW  Elec       q    Type
REMARK                         _______ _______ _______ _____ _____    ______ ____
ROOT
ATOM      1  S   UNL     1       4.914   4.570  18.665  0.00  0.00    +0.000 S 
ATOM      2  O   UNL     1       6.292   4.235  18.348  0.00  0.00    +0.000 OA
ATOM      3  O   UNL     1       4.592   5.273  19.892  0.00  0.00    +0.000 OA
ENDROOT
BRANCH   1   4
ATOM      4  C   UNL     1       4.214   5.463  17.280  0.00  0.00    +0.000 C 
ATOM      5  C   UNL     1       3.908   6.912  17.627  0.00  0.00    +0.000 C 
BRANCH   4  10
ATOM      6  C   UNL     1       6.235   3.648  13.269  0.00  0.00    +0.000 C 
ATOM      7  C   UNL     1       6.099   4.555  14.420  0.00  0.00    +0.000 A 
ATOM      8  N   UNL     1       6.815   5.604  14.763  0.00  0.00    +0.000 NA
ATOM      9  N   UNL     1       6.234   6.117  15.906  0.00  0.00    +0.000 NA
ATOM     10  C   UNL     1       5.194   5.355  16.172  0.00  0.00    +0.000 A 
ATOM     11  O   UNL     1       5.074   4.309  15.292  0.00  0.00    +0.000 OA
ENDBRANCH   4  10
ENDBRANCH   1   4
BRANCH   1  12
ATOM     12  C   UNL     1       4.014   3.019  18.709  0.00  0.00    +0.000 C 
BRANCH  12  13
ATOM     13  C   UNL     1       2.543   3.278  18.396  0.00  0.00    +0.000 C 
BRANCH  13  14
ATOM     14  C   UNL     1       1.595   2.376  19.185  0.00  0.00    +0.000 C 
BRANCH  14  15
ATOM     15  C   UNL     1       1.106   3.037  20.491  0.00  0.00    +0.000 C 
ATOM     16  C   UNL     1       1.935   2.621  21.708  0.00  0.00    +0.000 C 
ATOM     17  C   UNL     1       1.132   4.560  20.352  0.00  0.00    +0.000 C 
ENDBRANCH  14  15
ENDBRANCH  13  14
ENDBRANCH  12  13
ENDBRANCH   1  12
TORSDOF 6
ENDMDL
MODEL 5
REMARK VINA RESULT:      -6.5      1.339      1.637
REMARK  Name = 
REMARK  10 active torsions:
REMARK  status: ('A' for Active; 'I' for Inactive)
REMARK    1  A    between atoms: C_1  and  C_2
REMARK    2  A    between atoms: C_5  and  C_6
REMARK    3  A    between atoms: C_6  and  C_7
REMARK    4  A    between atoms: C_6  and  S_8
REMARK    5  A    between atoms: S_8  and  C_11
REMARK    6  A    between atoms: C_11  and  C_12
REMARK    7  A    between atoms: C_12  and  C_13
REMARK    8  A    between atoms: C_13  and  C_14
REMARK    9  A    between atoms: C_14  and  C_15
REMARK   10  A    between atoms: C_14  and  C_16
REMARK                            x       y       z     vdW  Elec       q    Type
REMARK                         _______ _______ _______ _____ _____    ______ ____
ROOT
ATOM      1  S   UNL     1       7.035   4.865  16.099  0.00  0.00    +0.000 S 
ATOM      2  O   UNL     1       7.527   5.747  15.054  0.00  0.00    +0.000 OA
ATOM      3  O   UNL     1       7.959   4.214  17.009  0.00  0.00    +0.000 OA
ENDROOT
BRANCH   1   4
ATOM      4  C   UNL     1       5.803   5.748  17.053  0.00  0.00    +0.000 C 
ATOM      5  C   UNL     1       5.039   6.758  16.211  0.00  0.00    +0.000 C 
BRANCH   4  10
ATOM      6  C   UNL     1       4.394   2.264  20.110  0.00  0.00    +0.000 C 
ATOM      7  C   UNL     1       4.284   3.177  18.961  0.00  0.00    +0.000 A 
ATOM      8  N   UNL     1       3.284   3.379  18.130  0.00  0.00    +0.000 NA
ATOM      9  N   UNL     1       3.691   4.373  17.262  0.00  0.00    +0.000 NA
ATOM     10  C   UNL     1       4.906   4.720  17.634  0.00  0.00    +0.000 A 
ATOM     11  O   UNL     1       5.367   3.966  18.683  0.00  0.00    +0.000 OA
ENDBRANCH   4  10
ENDBRANCH   1   4
BRANCH   1  12
ATOM     12  C   UNL     1       6.122   3.561  15.272  0.00  0.00    +0.000 C 
BRANCH  12  13
ATOM     13  C   UNL     1       5.666   4.054  13.902  0.00  0.00    +0.000 C 
BRANCH  13  14
ATOM     14  C   UNL     1       6.583   3.601  12.767  0.00  0.00    +0.000 C 
BRANCH  14  15
ATOM     15  C   UNL     1       5.798   3.031  11.568  0.00  0.00    +0.000 C 
ATOM     16  C   UNL     1       5.962   1.517  11.421  0.00  0.00    +0.000 C 
ATOM     17  C   UNL     1       4.313   3.372  11.701  0.00  0.00    +0.000 C 
ENDBRANCH  14  15
ENDBRANCH  13  14
ENDBRANCH  12  13
ENDBRANCH   1  12
TORSDOF 6
ENDMDL
MODEL 6
REMARK VINA RESULT:      -6.5      2.883      6.025
REMARK  Name = 
REMARK  10 active torsions:
REMARK  status: ('A' for Active; 'I' for Inactive)
REMARK    1  A    between atoms: C_1  and  C_2
REMARK    2  A    between atoms: C_5  and  C_6
REMARK    3  A    between atoms: C_6  and  C_7
REMARK    4  A    between atoms: C_6  and  S_8
REMARK    5  A    between atoms: S_8  and  C_11
REMARK    6  A    between atoms: C_11  and  C_12
REMARK    7  A    between atoms: C_12  and  C_13
REMARK    8  A    between atoms: C_13  and  C_14
REMARK    9  A    between atoms: C_14  and  C_15
REMARK   10  A    between atoms: C_14  and  C_16
REMARK                            x       y       z     vdW  Elec       q    Type
REMARK                         _______ _______ _______ _____ _____    ______ ____
ROOT
ATOM      1  S   UNL     1       4.818   4.118  17.916  0.00  0.00    +0.000 S 
ATOM      2  O   UNL     1       3.956   3.159  17.247  0.00  0.00    +0.000 OA
ATOM      3  O   UNL     1       5.496   3.765  19.149  0.00  0.00    +0.000 OA
ENDROOT
BRANCH   1   4
ATOM      4  C   UNL     1       6.028   4.712  16.736  0.00  0.00    +0.000 C 
ATOM      5  C   UNL     1       5.377   5.322  15.504  0.00  0.00    +0.000 C 
BRANCH   4  10
ATOM      6  C   UNL     1       8.003   9.020  17.739  0.00  0.00    +0.000 C 
ATOM      7  C   UNL     1       7.759   7.577  17.898  0.00  0.00    +0.000 A 
ATOM      8  N   UNL     1       8.203   6.737  18.807  0.00  0.00    +0.000 NA
ATOM      9  N   UNL     1       7.637   5.510  18.516  0.00  0.00    +0.000 NA
ATOM     10  C   UNL     1       6.873   5.693  17.459  0.00  0.00    +0.000 A 
ATOM     11  O   UNL     1       6.939   6.977  16.982  0.00  0.00    +0.000 OA
ENDBRANCH   4  10
ENDBRANCH   1   4
BRANCH   1  12
ATOM     12  C   UNL     1       3.798   5.548  18.280  0.00  0.00    +0.000 C 
BRANCH  12  13
ATOM     13  C   UNL     1       2.348   5.105  18.452  0.00  0.00    +0.000 C 
BRANCH  13  14
ATOM     14  C   UNL     1       1.955   4.897  19.914  0.00  0.00    +0.000 C 
BRANCH  14  15
ATOM     15  C   UNL     1       0.997   3.702  20.101  0.00  0.00    +0.000 C 
ATOM     16  C   UNL     1       1.000   2.751  18.902  0.00  0.00    +0.000 C 
ATOM     17  C   UNL     1       1.365   2.927  21.367  0.00  0.00    +0.000 C 
ENDBRANCH  14  15
ENDBRANCH  13  14
ENDBRANCH  12  13
ENDBRANCH   1  12
TORSDOF 6
ENDMDL
MODEL 7
REMARK VINA RESULT:      -6.5      2.630      5.523
REMARK  Name = 
REMARK  10 active torsions:
REMARK  status: ('A' for Active; 'I' for Inactive)
REMARK    1  A    between atoms: C_1  and  C_2
REMARK    2  A    between atoms: C_5  and  C_6
REMARK    3  A    between atoms: C_6  and  C_7
REMARK    4  A    between atoms: C_6  and  S_8
REMARK    5  A    between atoms: S_8  and  C_11
REMARK    6  A    between atoms: C_11  and  C_12
REMARK    7  A    between atoms: C_12  and  C_13
REMARK    8  A    between atoms: C_13  and  C_14
REMARK    9  A    between atoms: C_14  and  C_15
REMARK   10  A    between atoms: C_14  and  C_16
REMARK                            x       y       z     vdW  Elec       q    Type
REMARK                         _______ _______ _______ _____ _____    ______ ____
ROOT
ATOM      1  S   UNL     1       7.031   5.532  17.674  0.00  0.00    +0.000 S 
ATOM      2  O   UNL     1       7.899   4.389  17.449  0.00  0.00    +0.000 OA
ATOM      3  O   UNL     1       7.573   6.878  17.677  0.00  0.00    +0.000 OA
ENDROOT
BRANCH   1   4
ATOM      4  C   UNL     1       5.675   5.453  16.507  0.00  0.00    +0.000 C 
ATOM      5  C   UNL     1       4.897   6.758  16.441  0.00  0.00    +0.000 C 
BRANCH   4  10
ATOM      6  C   UNL     1       6.010   3.246  12.208  0.00  0.00    +0.000 C 
ATOM      7  C   UNL     1       6.435   4.120  13.313  0.00  0.00    +0.000 A 
ATOM      8  N   UNL     1       7.484   4.906  13.417  0.00  0.00    +0.000 NA
ATOM      9  N   UNL     1       7.383   5.533  14.644  0.00  0.00    +0.000 NA
ATOM     10  C   UNL     1       6.270   5.097  15.196  0.00  0.00    +0.000 A 
ATOM     11  O   UNL     1       5.637   4.157  14.423  0.00  0.00    +0.000 OA
ENDBRANCH   4  10
ENDBRANCH   1   4
BRANCH   1  12
ATOM     12  C   UNL     1       6.267   5.281  19.278  0.00  0.00    +0.000 C 
BRANCH  12  13
ATOM     13  C   UNL     1       5.036   4.394  19.118  0.00  0.00    +0.000 C 
BRANCH  13  14
ATOM     14  C   UNL     1       3.771   5.016  19.710  0.00  0.00    +0.000 C 
BRANCH  14  15
ATOM     15  C   UNL     1       2.500   4.220  19.347  0.00  0.00    +0.000 C 
ATOM     16  C   UNL     1       1.353   4.460  20.332  0.00  0.00    +0.000 C 
ATOM     17  C   UNL     1       2.041   4.577  17.932  0.00  0.00    +0.000 C 
ENDBRANCH  14  15
ENDBRANCH  13  14
ENDBRANCH  12  13
ENDBRANCH   1  12
TORSDOF 6
ENDMDL
MODEL 8
REMARK VINA RESULT:      -6.5      1.366      1.626
REMARK  Name = 
REMARK  10 active torsions:
REMARK  status: ('A' for Active; 'I' for Inactive)
REMARK    1  A    between atoms: C_1  and  C_2
REMARK    2  A    between atoms: C_5  and  C_6
REMARK    3  A    between atoms: C_6  and  C_7
REMARK    4  A    between atoms: C_6  and  S_8
REMARK    5  A    between atoms: S_8  and  C_11
REMARK    6  A    between atoms: C_11  and  C_12
REMARK    7  A    between atoms: C_12  and  C_13
REMARK    8  A    between atoms: C_13  and  C_14
REMARK    9  A    between atoms: C_14  and  C_15
REMARK   10  A    between atoms: C_14  and  C_16
REMARK                            x       y       z     vdW  Elec       q    Type
REMARK                         _______ _______ _______ _____ _____    ______ ____
ROOT
ATOM      1  S   UNL     1       6.382   5.294  16.253  0.00  0.00    +0.000 S 
ATOM      2  O   UNL     1       5.097   5.972  16.273  0.00  0.00    +0.000 OA
ATOM      3  O   UNL     1       7.564   5.972  15.756  0.00  0.00    +0.000 OA
ENDROOT
BRANCH   1   4
ATOM      4  C   UNL     1       6.719   4.667  17.896  0.00  0.00    +0.000 C 
ATOM      5  C   UNL     1       7.686   5.556  18.663  0.00  0.00    +0.000 C 
BRANCH   4  10
ATOM      6  C   UNL     1       2.514   2.639  19.192  0.00  0.00    +0.000 C 
ATOM      7  C   UNL     1       3.550   3.683  19.142  0.00  0.00    +0.000 A 
ATOM      8  N   UNL     1       3.623   4.837  19.770  0.00  0.00    +0.000 NA
ATOM      9  N   UNL     1       4.823   5.410  19.397  0.00  0.00    +0.000 NA
ATOM     10  C   UNL     1       5.407   4.558  18.580  0.00  0.00    +0.000 A 
ATOM     11  O   UNL     1       4.631   3.454  18.335  0.00  0.00    +0.000 OA
ENDBRANCH   4  10
ENDBRANCH   1   4
BRANCH   1  12
ATOM     12  C   UNL     1       6.165   3.828  15.242  0.00  0.00    +0.000 C 
BRANCH  12  13
ATOM     13  C   UNL     1       5.558   4.225  13.900  0.00  0.00    +0.000 C 
BRANCH  13  14
ATOM     14  C   UNL     1       6.252   3.563  12.710  0.00  0.00    +0.000 C 
BRANCH  14  15
ATOM     15  C   UNL     1       5.337   2.556  11.982  0.00  0.00    +0.000 C 
ATOM     16  C   UNL     1       4.259   3.241  11.139  0.00  0.00    +0.000 C 
ATOM     17  C   UNL     1       6.172   1.635  11.091  0.00  0.00    +0.000 C 
ENDBRANCH  14  15
ENDBRANCH  13  14
ENDBRANCH  12  13
ENDBRANCH   1  12
TORSDOF 6
ENDMDL
MODEL 9
REMARK VINA RESULT:      -6.4      2.623      5.713
REMARK  Name = 
REMARK  10 active torsions:
REMARK  status: ('A' for Active; 'I' for Inactive)
REMARK    1  A    between atoms: C_1  and  C_2
REMARK    2  A    between atoms: C_5  and  C_6
REMARK    3  A    between atoms: C_6  and  C_7
REMARK    4  A    between atoms: C_6  and  S_8
REMARK    5  A    between atoms: S_8  and  C_11
REMARK    6  A    between atoms: C_11  and  C_12
REMARK    7  A    between atoms: C_12  and  C_13
REMARK    8  A    between atoms: C_13  and  C_14
REMARK    9  A    between atoms: C_14  and  C_15
REMARK   10  A    between atoms: C_14  and  C_16
REMARK                            x       y       z     vdW  Elec       q    Type
REMARK                         _______ _______ _______ _____ _____    ______ ____
ROOT
ATOM      1  S   UNL     1       5.154   4.462  17.891  0.00  0.00    +0.000 S 
ATOM      2  O   UNL     1       4.550   3.283  17.294  0.00  0.00    +0.000 OA
ATOM      3  O   UNL     1       6.479   4.392  18.478  0.00  0.00    +0.000 OA
ENDROOT
BRANCH   1   4
ATOM      4  C   UNL     1       5.117   5.789  16.690  0.00  0.00    +0.000 C 
ATOM      5  C   UNL     1       5.558   7.116  17.287  0.00  0.00    +0.000 C 
BRANCH   4  10
ATOM      6  C   UNL     1       6.325   3.579  12.551  0.00  0.00    +0.000 C 
ATOM      7  C   UNL     1       6.540   4.386  13.763  0.00  0.00    +0.000 A 
ATOM      8  N   UNL     1       7.610   5.032  14.173  0.00  0.00    +0.000 NA
ATOM      9  N   UNL     1       7.260   5.660  15.353  0.00  0.00    +0.000 NA
ATOM     10  C   UNL     1       5.995   5.367  15.571  0.00  0.00    +0.000 A 
ATOM     11  O   UNL     1       5.484   4.519  14.622  0.00  0.00    +0.000 OA
ENDBRANCH   4  10
ENDBRANCH   1   4
BRANCH   1  12
ATOM     12  C   UNL     1       4.042   4.995  19.194  0.00  0.00    +0.000 C 
BRANCH  12  13
ATOM     13  C   UNL     1       2.721   5.444  18.579  0.00  0.00    +0.000 C 
BRANCH  13  14
ATOM     14  C   UNL     1       1.636   4.369  18.640  0.00  0.00    +0.000 C 
BRANCH  14  15
ATOM     15  C   UNL     1       1.971   3.254  19.652  0.00  0.00    +0.000 C 
ATOM     16  C   UNL     1       1.194   3.396  20.963  0.00  0.00    +0.000 C 
ATOM     17  C   UNL     1       1.686   1.883  19.037  0.00  0.00    +0.000 C 
ENDBRANCH  14  15
ENDBRANCH  13  14
ENDBRANCH  12  13
ENDBRANCH   1  12
TORSDOF 6
ENDMDL
