MODEL 1
REMARK VINA RESULT:      -7.3      0.000      0.000
REMARK  Name = 
REMARK  5 active torsions:
REMARK  status: ('A' for Active; 'I' for Inactive)
REMARK    1  A    between atoms: C_1  and  C_2
REMARK    2  A    between atoms: C_5  and  C_7
REMARK    3  A    between atoms: C_12  and  C_13
REMARK    4  A    between atoms: C_14  and  S_15
REMARK    5  A    between atoms: S_15  and  C_16
REMARK                            x       y       z     vdW  Elec       q    Type
REMARK                         _______ _______ _______ _____ _____    ______ ____
ROOT
ATOM      1  C   UNL     1       2.402   3.606  17.017  0.00  0.00    +0.000 C 
ATOM      2  C   UNL     1       3.704   4.319  17.040  0.00  0.00    +0.000 A 
ATOM      3  N   UNL     1       4.470   4.313  15.949  0.00  0.00    +0.000 NA
ATOM      4  N   UNL     1       5.574   5.056  16.260  0.00  0.00    +0.000 N 
ATOM      5  C   UNL     1       6.607   5.203  15.284  0.00  0.00    +0.000 C 
ATOM      6  O   UNL     1       7.546   5.935  15.590  0.00  0.00    +0.000 OA
ATOM      7  C   UNL     1       5.470   5.570  17.557  0.00  0.00    +0.000 A 
ATOM      8  C   UNL     1       6.454   6.486  18.198  0.00  0.00    +0.000 C 
ATOM      9  C   UNL     1       4.312   5.037  18.087  0.00  0.00    +0.000 A 
ENDROOT
BRANCH   5  10
ATOM     10  C   UNL     1       6.565   4.511  13.999  0.00  0.00    +0.000 A 
ATOM     11  C   UNL     1       5.800   3.478  13.487  0.00  0.00    +0.000 A 
ATOM     12  C   UNL     1       6.277   3.207  12.180  0.00  0.00    +0.000 A 
ATOM     13  C   UNL     1       7.289   4.106  11.955  0.00  0.00    +0.000 A 
ATOM     14  O   UNL     1       7.479   4.889  13.046  0.00  0.00    +0.000 OA
ENDBRANCH   5  10
BRANCH   9  15
ATOM     15  S   UNL     1       3.684   5.258  19.699  0.00  0.00    +0.000 S 
BRANCH  15  16
ATOM     16  C   UNL     1       2.654   6.723  19.611  0.00  0.00    +0.000 A 
ATOM     17  C   UNL     1       2.569   7.551  18.484  0.00  0.00    +0.000 A 
ATOM     18  C   UNL     1       1.800   8.720  18.512  0.00  0.00    +0.000 A 
ATOM     19  C   UNL     1       1.107   9.071  19.666  0.00  0.00    +0.000 A 
ATOM     20 CL   UNL     1       0.192  10.527  19.708  0.00  0.00    +0.000 Cl
ATOM     21  C   UNL     1       1.162   8.252  20.790  0.00  0.00    +0.000 A 
ATOM     22  C   UNL     1       1.933   7.083  20.760  0.00  0.00    +0.000 A 
ENDBRANCH  15  16
ENDBRANCH   9  15
TORSDOF 3
ENDMDL
MODEL 2
REMARK VINA RESULT:      -7.2      0.188      1.041
REMARK  Name = 
REMARK  5 active torsions:
REMARK  status: ('A' for Active; 'I' for Inactive)
REMARK    1  A    between atoms: C_1  and  C_2
REMARK    2  A    between atoms: C_5  and  C_7
REMARK    3  A    between atoms: C_12  and  C_13
REMARK    4  A    between atoms: C_14  and  S_15
REMARK    5  A    between atoms: S_15  and  C_16
REMARK                            x       y       z     vdW  Elec       q    Type
REMARK                         _______ _______ _______ _____ _____    ______ ____
ROOT
ATOM      1  C   UNL     1       2.410   3.528  17.002  0.00  0.00    +0.000 C 
ATOM      2  C   UNL     1       3.694   4.273  17.019  0.00  0.00    +0.000 A 
ATOM      3  N   UNL     1       4.461   4.274  15.928  0.00  0.00    +0.000 NA
ATOM      4  N   UNL     1       5.547   5.046  16.234  0.00  0.00    +0.000 N 
ATOM      5  C   UNL     1       6.578   5.209  15.258  0.00  0.00    +0.000 C 
ATOM      6  O   UNL     1       7.498   5.966  15.557  0.00  0.00    +0.000 OA
ATOM      7  C   UNL     1       5.430   5.570  17.526  0.00  0.00    +0.000 A 
ATOM      8  C   UNL     1       6.391   6.515  18.159  0.00  0.00    +0.000 C 
ATOM      9  C   UNL     1       4.284   5.014  18.060  0.00  0.00    +0.000 A 
ENDROOT
BRANCH   5  10
ATOM     10  C   UNL     1       6.553   4.503  13.979  0.00  0.00    +0.000 A 
ATOM     11  C   UNL     1       5.803   3.457  13.471  0.00  0.00    +0.000 A 
ATOM     12  C   UNL     1       6.294   3.180  12.171  0.00  0.00    +0.000 A 
ATOM     13  C   UNL     1       7.298   4.087  11.945  0.00  0.00    +0.000 A 
ATOM     14  O   UNL     1       7.471   4.883  13.030  0.00  0.00    +0.000 OA
ENDBRANCH   5  10
BRANCH   9  15
ATOM     15  S   UNL     1       3.649   5.236  19.669  0.00  0.00    +0.000 S 
BRANCH  15  16
ATOM     16  C   UNL     1       2.714   6.763  19.605  0.00  0.00    +0.000 A 
ATOM     17  C   UNL     1       1.947   7.254  20.669  0.00  0.00    +0.000 A 
ATOM     18  C   UNL     1       1.183   8.418  20.523  0.00  0.00    +0.000 A 
ATOM     19  C   UNL     1       1.180   9.102  19.312  0.00  0.00    +0.000 A 
ATOM     20 CL   UNL     1       0.211  10.512  19.125  0.00  0.00    +0.000 Cl
ATOM     21  C   UNL     1       1.949   8.642  18.248  0.00  0.00    +0.000 A 
ATOM     22  C   UNL     1       2.713   7.477  18.396  0.00  0.00    +0.000 A 
ENDBRANCH  15  16
ENDBRANCH   9  15
TORSDOF 3
ENDMDL
MODEL 3
REMARK VINA RESULT:      -7.2      4.886      6.463
REMARK  Name = 
REMARK  5 active torsions:
REMARK  status: ('A' for Active; 'I' for Inactive)
REMARK    1  A    between atoms: C_1  and  C_2
REMARK    2  A    between atoms: C_5  and  C_7
REMARK    3  A    between atoms: C_12  and  C_13
REMARK    4  A    between atoms: C_14  and  S_15
REMARK    5  A    between atoms: S_15  and  C_16
REMARK                            x       y       z     vdW  Elec       q    Type
REMARK                         _______ _______ _______ _____ _____    ______ ____
ROOT
ATOM      1  C   UNL     1       0.042   8.600  22.204  0.00  0.00    +0.000 C 
ATOM      2  C   UNL     1       0.842   8.264  21.000  0.00  0.00    +0.000 A 
ATOM      3  N   UNL     1       1.290   7.018  20.840  0.00  0.00    +0.000 NA
ATOM      4  N   UNL     1       1.964   7.010  19.651  0.00  0.00    +0.000 N 
ATOM      5  C   UNL     1       2.594   5.802  19.221  0.00  0.00    +0.000 C 
ATOM      6  O   UNL     1       3.128   5.829  18.114  0.00  0.00    +0.000 OA
ATOM      7  C   UNL     1       1.895   8.266  19.039  0.00  0.00    +0.000 A 
ATOM      8  C   UNL     1       2.451   8.597  17.697  0.00  0.00    +0.000 C 
ATOM      9  C   UNL     1       1.246   9.092  19.935  0.00  0.00    +0.000 A 
ENDROOT
BRANCH   5  10
ATOM     10  C   UNL     1       2.620   4.601  20.053  0.00  0.00    +0.000 A 
ATOM     11  C   UNL     1       1.824   4.123  21.079  0.00  0.00    +0.000 A 
ATOM     12  C   UNL     1       2.404   2.913  21.533  0.00  0.00    +0.000 A 
ATOM     13  C   UNL     1       3.507   2.704  20.745  0.00  0.00    +0.000 A 
ATOM     14  O   UNL     1       3.654   3.718  19.856  0.00  0.00    +0.000 OA
ENDBRANCH   5  10
BRANCH   9  15
ATOM     15  S   UNL     1       0.922  10.797  19.763  0.00  0.00    +0.000 S 
BRANCH  15  16
ATOM     16  C   UNL     1      -0.685  10.898  18.977  0.00  0.00    +0.000 A 
ATOM     17  C   UNL     1      -1.030  10.203  17.811  0.00  0.00    +0.000 A 
ATOM     18  C   UNL     1      -2.282  10.387  17.212  0.00  0.00    +0.000 A 
ATOM     19  C   UNL     1      -3.201  11.267  17.774  0.00  0.00    +0.000 A 
ATOM     20 CL   UNL     1      -4.724  11.517  17.014  0.00  0.00    +0.000 Cl
ATOM     21  C   UNL     1      -2.886  11.953  18.942  0.00  0.00    +0.000 A 
ATOM     22  C   UNL     1      -1.633  11.768  19.541  0.00  0.00    +0.000 A 
ENDBRANCH  15  16
ENDBRANCH   9  15
TORSDOF 3
ENDMDL
MODEL 4
REMARK VINA RESULT:      -7.1      4.932      6.566
REMARK  Name = 
REMARK  5 active torsions:
REMARK  status: ('A' for Active; 'I' for Inactive)
REMARK    1  A    between atoms: C_1  and  C_2
REMARK    2  A    between atoms: C_5  and  C_7
REMARK    3  A    between atoms: C_12  and  C_13
REMARK    4  A    between atoms: C_14  and  S_15
REMARK    5  A    between atoms: S_15  and  C_16
REMARK                            x       y       z     vdW  Elec       q    Type
REMARK                         _______ _______ _______ _____ _____    ______ ____
ROOT
ATOM      1  C   UNL     1       0.045   8.700  22.211  0.00  0.00    +0.000 C 
ATOM      2  C   UNL     1       0.829   8.315  21.011  0.00  0.00    +0.000 A 
ATOM      3  N   UNL     1       1.199   7.043  20.854  0.00  0.00    +0.000 NA
ATOM      4  N   UNL     1       1.877   6.992  19.668  0.00  0.00    +0.000 N 
ATOM      5  C   UNL     1       2.432   5.747  19.241  0.00  0.00    +0.000 C 
ATOM      6  O   UNL     1       2.973   5.741  18.138  0.00  0.00    +0.000 OA
ATOM      7  C   UNL     1       1.890   8.250  19.055  0.00  0.00    +0.000 A 
ATOM      8  C   UNL     1       2.472   8.545  17.717  0.00  0.00    +0.000 C 
ATOM      9  C   UNL     1       1.289   9.115  19.948  0.00  0.00    +0.000 A 
ENDROOT
BRANCH   5  10
ATOM     10  C   UNL     1       2.380   4.548  20.074  0.00  0.00    +0.000 A 
ATOM     11  C   UNL     1       1.400   3.961  20.856  0.00  0.00    +0.000 A 
ATOM     12  C   UNL     1       1.980   2.825  21.475  0.00  0.00    +0.000 A 
ATOM     13  C   UNL     1       3.272   2.765  21.018  0.00  0.00    +0.000 A 
ATOM     14  O   UNL     1       3.529   3.802  20.182  0.00  0.00    +0.000 OA
ENDBRANCH   5  10
BRANCH   9  15
ATOM     15  S   UNL     1       1.073  10.837  19.773  0.00  0.00    +0.000 S 
BRANCH  15  16
ATOM     16  C   UNL     1      -0.571  11.043  19.092  0.00  0.00    +0.000 A 
ATOM     17  C   UNL     1      -1.536  11.906  19.627  0.00  0.00    +0.000 A 
ATOM     18  C   UNL     1      -2.826  11.962  19.085  0.00  0.00    +0.000 A 
ATOM     19  C   UNL     1      -3.162  11.157  18.002  0.00  0.00    +0.000 A 
ATOM     20 CL   UNL     1      -4.758  11.202  17.362  0.00  0.00    +0.000 Cl
ATOM     21  C   UNL     1      -2.213  10.306  17.443  0.00  0.00    +0.000 A 
ATOM     22  C   UNL     1      -0.923  10.252  17.986  0.00  0.00    +0.000 A 
ENDBRANCH  15  16
ENDBRANCH   9  15
TORSDOF 3
ENDMDL
MODEL 5
REMARK VINA RESULT:      -6.7      4.128      7.835
REMARK  Name = 
REMARK  5 active torsions:
REMARK  status: ('A' for Active; 'I' for Inactive)
REMARK    1  A    between atoms: C_1  and  C_2
REMARK    2  A    between atoms: C_5  and  C_7
REMARK    3  A    between atoms: C_12  and  C_13
REMARK    4  A    between atoms: C_14  and  S_15
REMARK    5  A    between atoms: S_15  and  C_16
REMARK                            x       y       z     vdW  Elec       q    Type
REMARK                         _______ _______ _______ _____ _____    ______ ____
ROOT
ATOM      1  C   UNL     1       2.091   3.381  21.736  0.00  0.00    +0.000 C 
ATOM      2  C   UNL     1       2.205   4.490  20.756  0.00  0.00    +0.000 A 
ATOM      3  N   UNL     1       1.783   5.708  21.097  0.00  0.00    +0.000 NA
ATOM      4  N   UNL     1       2.031   6.508  20.017  0.00  0.00    +0.000 N 
ATOM      5  C   UNL     1       1.650   7.884  20.072  0.00  0.00    +0.000 C 
ATOM      6  O   UNL     1       1.956   8.574  19.102  0.00  0.00    +0.000 OA
ATOM      7  C   UNL     1       2.662   5.781  19.001  0.00  0.00    +0.000 A 
ATOM      8  C   UNL     1       3.147   6.350  17.714  0.00  0.00    +0.000 C 
ATOM      9  C   UNL     1       2.703   4.472  19.439  0.00  0.00    +0.000 A 
ENDROOT
BRANCH   5  10
ATOM     10  C   UNL     1       0.919   8.441  21.207  0.00  0.00    +0.000 A 
ATOM     11  C   UNL     1      -0.423   8.561  21.523  0.00  0.00    +0.000 A 
ATOM     12  C   UNL     1      -0.505   9.257  22.755  0.00  0.00    +0.000 A 
ATOM     13  C   UNL     1       0.789   9.501  23.137  0.00  0.00    +0.000 A 
ATOM     14  O   UNL     1       1.656   9.024  22.209  0.00  0.00    +0.000 OA
ENDBRANCH   5  10
BRANCH   9  15
ATOM     15  S   UNL     1       3.313   3.084  18.577  0.00  0.00    +0.000 S 
BRANCH  15  16
ATOM     16  C   UNL     1       4.658   3.704  17.568  0.00  0.00    +0.000 A 
ATOM     17  C   UNL     1       5.839   4.247  18.090  0.00  0.00    +0.000 A 
ATOM     18  C   UNL     1       6.818   4.779  17.242  0.00  0.00    +0.000 A 
ATOM     19  C   UNL     1       6.626   4.772  15.865  0.00  0.00    +0.000 A 
ATOM     20 CL   UNL     1       7.814   5.459  14.829  0.00  0.00    +0.000 Cl
ATOM     21  C   UNL     1       5.468   4.220  15.324  0.00  0.00    +0.000 A 
ATOM     22  C   UNL     1       4.490   3.688  16.174  0.00  0.00    +0.000 A 
ENDBRANCH  15  16
ENDBRANCH   9  15
TORSDOF 3
ENDMDL
MODEL 6
REMARK VINA RESULT:      -6.7      1.093      1.639
REMARK  Name = 
REMARK  5 active torsions:
REMARK  status: ('A' for Active; 'I' for Inactive)
REMARK    1  A    between atoms: C_1  and  C_2
REMARK    2  A    between atoms: C_5  and  C_7
REMARK    3  A    between atoms: C_12  and  C_13
REMARK    4  A    between atoms: C_14  and  S_15
REMARK    5  A    between atoms: S_15  and  C_16
REMARK                            x       y       z     vdW  Elec       q    Type
REMARK                         _______ _______ _______ _____ _____    ______ ____
ROOT
ATOM      1  C   UNL     1       2.749   3.272  17.115  0.00  0.00    +0.000 C 
ATOM      2  C   UNL     1       3.988   3.974  16.695  0.00  0.00    +0.000 A 
ATOM      3  N   UNL     1       4.437   3.816  15.449  0.00  0.00    +0.000 NA
ATOM      4  N   UNL     1       5.561   4.588  15.354  0.00  0.00    +0.000 N 
ATOM      5  C   UNL     1       6.293   4.597  14.127  0.00  0.00    +0.000 C 
ATOM      6  O   UNL     1       7.256   5.358  14.072  0.00  0.00    +0.000 OA
ATOM      7  C   UNL     1       5.790   5.273  16.553  0.00  0.00    +0.000 A 
ATOM      8  C   UNL     1       6.880   6.260  16.781  0.00  0.00    +0.000 C 
ATOM      9  C   UNL     1       4.831   4.822  17.438  0.00  0.00    +0.000 A 
ENDROOT
BRANCH   5  10
ATOM     10  C   UNL     1       5.932   3.738  13.002  0.00  0.00    +0.000 A 
ATOM     11  C   UNL     1       4.806   3.617  12.206  0.00  0.00    +0.000 A 
ATOM     12  C   UNL     1       5.040   2.548  11.306  0.00  0.00    +0.000 A 
ATOM     13  C   UNL     1       6.304   2.092  11.583  0.00  0.00    +0.000 A 
ATOM     14  O   UNL     1       6.848   2.793  12.608  0.00  0.00    +0.000 OA
ENDBRANCH   5  10
BRANCH   9  15
ATOM     15  S   UNL     1       4.646   5.261  19.116  0.00  0.00    +0.000 S 
BRANCH  15  16
ATOM     16  C   UNL     1       3.454   6.599  19.128  0.00  0.00    +0.000 A 
ATOM     17  C   UNL     1       2.534   6.815  20.162  0.00  0.00    +0.000 A 
ATOM     18  C   UNL     1       1.582   7.838  20.070  0.00  0.00    +0.000 A 
ATOM     19  C   UNL     1       1.544   8.656  18.945  0.00  0.00    +0.000 A 
ATOM     20 CL   UNL     1       0.350   9.888  18.821  0.00  0.00    +0.000 Cl
ATOM     21  C   UNL     1       2.461   8.470  17.916  0.00  0.00    +0.000 A 
ATOM     22  C   UNL     1       3.412   7.446  18.009  0.00  0.00    +0.000 A 
ENDBRANCH  15  16
ENDBRANCH   9  15
TORSDOF 3
ENDMDL
MODEL 7
REMARK VINA RESULT:      -6.6      7.461     11.107
REMARK  Name = 
REMARK  5 active torsions:
REMARK  status: ('A' for Active; 'I' for Inactive)
REMARK    1  A    between atoms: C_1  and  C_2
REMARK    2  A    between atoms: C_5  and  C_7
REMARK    3  A    between atoms: C_12  and  C_13
REMARK    4  A    between atoms: C_14  and  S_15
REMARK    5  A    between atoms: S_15  and  C_16
REMARK                            x       y       z     vdW  Elec       q    Type
REMARK                         _______ _______ _______ _____ _____    ______ ____
ROOT
ATOM      1  C   UNL     1      -1.891  10.161  17.166  0.00  0.00    +0.000 C 
ATOM      2  C   UNL     1      -1.992  11.092  18.318  0.00  0.00    +0.000 A 
ATOM      3  N   UNL     1      -3.196  11.399  18.805  0.00  0.00    +0.000 NA
ATOM      4  N   UNL     1      -2.972  12.245  19.855  0.00  0.00    +0.000 N 
ATOM      5  C   UNL     1      -4.091  12.778  20.565  0.00  0.00    +0.000 C 
ATOM      6  O   UNL     1      -3.834  13.478  21.542  0.00  0.00    +0.000 OA
ATOM      7  C   UNL     1      -1.599  12.431  20.052  0.00  0.00    +0.000 A 
ATOM      8  C   UNL     1      -0.991  13.226  21.154  0.00  0.00    +0.000 C 
ATOM      9  C   UNL     1      -0.972  11.758  19.023  0.00  0.00    +0.000 A 
ENDROOT
BRANCH   5  10
ATOM     10  C   UNL     1      -5.467  12.524  20.148  0.00  0.00    +0.000 A 
ATOM     11  C   UNL     1      -6.280  13.032  19.150  0.00  0.00    +0.000 A 
ATOM     12  C   UNL     1      -7.551  12.422  19.291  0.00  0.00    +0.000 A 
ATOM     13  C   UNL     1      -7.439  11.556  20.348  0.00  0.00    +0.000 A 
ATOM     14  O   UNL     1      -6.192  11.615  20.879  0.00  0.00    +0.000 OA
ENDBRANCH   5  10
BRANCH   9  15
ATOM     15  S   UNL     1       0.740  11.681  18.694  0.00  0.00    +0.000 S 
BRANCH  15  16
ATOM     16  C   UNL     1       1.218   9.992  19.056  0.00  0.00    +0.000 A 
ATOM     17  C   UNL     1       1.040   9.381  20.303  0.00  0.00    +0.000 A 
ATOM     18  C   UNL     1       1.504   8.081  20.536  0.00  0.00    +0.000 A 
ATOM     19  C   UNL     1       2.150   7.380  19.523  0.00  0.00    +0.000 A 
ATOM     20 CL   UNL     1       2.751   5.796  19.824  0.00  0.00    +0.000 Cl
ATOM     21  C   UNL     1       2.320   7.962  18.270  0.00  0.00    +0.000 A 
ATOM     22  C   UNL     1       1.855   9.262  18.040  0.00  0.00    +0.000 A 
ENDBRANCH  15  16
ENDBRANCH   9  15
TORSDOF 3
ENDMDL
MODEL 8
REMARK VINA RESULT:      -6.6      3.878      7.319
REMARK  Name = 
REMARK  5 active torsions:
REMARK  status: ('A' for Active; 'I' for Inactive)
REMARK    1  A    between atoms: C_1  and  C_2
REMARK    2  A    between atoms: C_5  and  C_7
REMARK    3  A    between atoms: C_12  and  C_13
REMARK    4  A    between atoms: C_14  and  S_15
REMARK    5  A    between atoms: S_15  and  C_16
REMARK                            x       y       z     vdW  Elec       q    Type
REMARK                         _______ _______ _______ _____ _____    ______ ____
ROOT
ATOM      1  C   UNL     1       1.976   4.788  20.859  0.00  0.00    +0.000 C 
ATOM      2  C   UNL     1       2.497   5.704  19.814  0.00  0.00    +0.000 A 
ATOM      3  N   UNL     1       1.884   6.870  19.604  0.00  0.00    +0.000 NA
ATOM      4  N   UNL     1       2.591   7.493  18.613  0.00  0.00    +0.000 N 
ATOM      5  C   UNL     1       2.147   8.767  18.142  0.00  0.00    +0.000 C 
ATOM      6  O   UNL     1       2.855   9.314  17.300  0.00  0.00    +0.000 OA
ATOM      7  C   UNL     1       3.691   6.717  18.232  0.00  0.00    +0.000 A 
ATOM      8  C   UNL     1       4.721   7.121  17.235  0.00  0.00    +0.000 C 
ATOM      9  C   UNL     1       3.590   5.537  18.942  0.00  0.00    +0.000 A 
ENDROOT
BRANCH   5  10
ATOM     10  C   UNL     1       0.911   9.383  18.619  0.00  0.00    +0.000 A 
ATOM     11  C   UNL     1      -0.290   9.720  18.019  0.00  0.00    +0.000 A 
ATOM     12  C   UNL     1      -1.089  10.352  19.003  0.00  0.00    +0.000 A 
ATOM     13  C   UNL     1      -0.346  10.342  20.156  0.00  0.00    +0.000 A 
ATOM     14  O   UNL     1       0.864   9.771  19.936  0.00  0.00    +0.000 OA
ENDBRANCH   5  10
BRANCH   9  15
ATOM     15  S   UNL     1       4.637   4.146  18.841  0.00  0.00    +0.000 S 
BRANCH  15  16
ATOM     16  C   UNL     1       5.490   4.305  17.274  0.00  0.00    +0.000 A 
ATOM     17  C   UNL     1       6.835   4.677  17.151  0.00  0.00    +0.000 A 
ATOM     18  C   UNL     1       7.417   4.852  15.890  0.00  0.00    +0.000 A 
ATOM     19  C   UNL     1       6.660   4.656  14.740  0.00  0.00    +0.000 A 
ATOM     20 CL   UNL     1       7.369   4.908  13.193  0.00  0.00    +0.000 Cl
ATOM     21  C   UNL     1       5.327   4.268  14.839  0.00  0.00    +0.000 A 
ATOM     22  C   UNL     1       4.747   4.093  16.102  0.00  0.00    +0.000 A 
ENDBRANCH  15  16
ENDBRANCH   9  15
TORSDOF 3
ENDMDL
MODEL 9
REMARK VINA RESULT:      -6.5      4.821      6.615
REMARK  Name = 
REMARK  5 active torsions:
REMARK  status: ('A' for Active; 'I' for Inactive)
REMARK    1  A    between atoms: C_1  and  C_2
REMARK    2  A    between atoms: C_5  and  C_7
REMARK    3  A    between atoms: C_12  and  C_13
REMARK    4  A    between atoms: C_14  and  S_15
REMARK    5  A    between atoms: S_15  and  C_16
REMARK                            x       y       z     vdW  Elec       q    Type
REMARK                         _______ _______ _______ _____ _____    ______ ____
ROOT
ATOM      1  C   UNL     1      -0.153   8.697  22.216  0.00  0.00    +0.000 C 
ATOM      2  C   UNL     1       0.617   8.855  20.957  0.00  0.00    +0.000 A 
ATOM      3  N   UNL     1       1.271   7.806  20.456  0.00  0.00    +0.000 NA
ATOM      4  N   UNL     1       1.858   8.245  19.303  0.00  0.00    +0.000 N 
ATOM      5  C   UNL     1       2.667   7.339  18.550  0.00  0.00    +0.000 C 
ATOM      6  O   UNL     1       3.117   7.763  17.488  0.00  0.00    +0.000 OA
ATOM      7  C   UNL     1       1.526   9.582  19.060  0.00  0.00    +0.000 A 
ATOM      8  C   UNL     1       1.926  10.359  17.855  0.00  0.00    +0.000 C 
ATOM      9  C   UNL     1       0.797   9.998  20.156  0.00  0.00    +0.000 A 
ENDROOT
BRANCH   5  10
ATOM     10  C   UNL     1       2.962   5.988  19.020  0.00  0.00    +0.000 A 
ATOM     11  C   UNL     1       4.070   5.389  19.595  0.00  0.00    +0.000 A 
ATOM     12  C   UNL     1       3.761   4.018  19.777  0.00  0.00    +0.000 A 
ATOM     13  C   UNL     1       2.475   3.859  19.328  0.00  0.00    +0.000 A 
ATOM     14  O   UNL     1       1.986   5.035  18.861  0.00  0.00    +0.000 OA
ENDBRANCH   5  10
BRANCH   9  15
ATOM     15  S   UNL     1       0.160  11.593  20.462  0.00  0.00    +0.000 S 
BRANCH  15  16
ATOM     16  C   UNL     1      -1.441  11.629  19.658  0.00  0.00    +0.000 A 
ATOM     17  C   UNL     1      -2.513  12.420  20.089  0.00  0.00    +0.000 A 
ATOM     18  C   UNL     1      -3.759  12.342  19.455  0.00  0.00    +0.000 A 
ATOM     19  C   UNL     1      -3.944  11.474  18.384  0.00  0.00    +0.000 A 
ATOM     20 CL   UNL     1      -5.486  11.356  17.631  0.00  0.00    +0.000 Cl
ATOM     21  C   UNL     1      -2.886  10.693  17.928  0.00  0.00    +0.000 A 
ATOM     22  C   UNL     1      -1.640  10.773  18.563  0.00  0.00    +0.000 A 
ENDBRANCH  15  16
ENDBRANCH   9  15
TORSDOF 3
ENDMDL
