MODEL 1
REMARK VINA RESULT:      -5.9      0.000      0.000
REMARK  Name = 
REMARK  0 active torsions:
REMARK  status: ('A' for Active; 'I' for Inactive)
REMARK                            x       y       z     vdW  Elec       q    Type
REMARK                         _______ _______ _______ _____ _____    ______ ____
ROOT
ATOM      1  O   UNL     1       7.438   5.915  15.932  0.00  0.00    +0.000 OA
ATOM      2  C   UNL     1       6.451   5.582  16.586  0.00  0.00    +0.000 C 
ATOM      3  C   UNL     1       5.271   4.902  15.934  0.00  0.00    +0.000 C 
ATOM      4  C   UNL     1       4.775   3.747  16.800  0.00  0.00    +0.000 C 
ATOM      5  C   UNL     1       4.460   4.171  18.251  0.00  0.00    +0.000 C 
ATOM      6  C   UNL     1       5.745   4.790  18.859  0.00  0.00    +0.000 C 
ATOM      7  C   UNL     1       6.306   5.958  18.044  0.00  0.00    +0.000 C 
ATOM      8  S   UNL     1       3.110   5.416  18.375  0.00  0.00    +0.000 S 
ATOM      9  C   UNL     1       1.725   4.481  17.674  0.00  0.00    +0.000 C 
ATOM     10  C   UNL     1       1.391   3.230  18.472  0.00  0.00    +0.000 C 
ATOM     11  C   UNL     1       2.485   2.171  18.482  0.00  0.00    +0.000 C 
ATOM     12  S   UNL     1       4.024   2.713  19.282  0.00  0.00    +0.000 S 
ENDROOT
TORSDOF 0
ENDMDL
MODEL 2
REMARK VINA RESULT:      -5.7      1.525      2.157
REMARK  Name = 
REMARK  0 active torsions:
REMARK  status: ('A' for Active; 'I' for Inactive)
REMARK                            x       y       z     vdW  Elec       q    Type
REMARK                         _______ _______ _______ _____ _____    ______ ____
ROOT
ATOM      1  O   UNL     1       7.576   6.561  16.616  0.00  0.00    +0.000 OA
ATOM      2  C   UNL     1       6.541   5.991  16.956  0.00  0.00    +0.000 C 
ATOM      3  C   UNL     1       6.573   4.783  17.861  0.00  0.00    +0.000 C 
ATOM      4  C   UNL     1       5.475   4.879  18.918  0.00  0.00    +0.000 C 
ATOM      5  C   UNL     1       4.072   5.103  18.313  0.00  0.00    +0.000 C 
ATOM      6  C   UNL     1       4.119   6.397  17.462  0.00  0.00    +0.000 C 
ATOM      7  C   UNL     1       5.198   6.379  16.378  0.00  0.00    +0.000 C 
ATOM      8  S   UNL     1       3.512   3.724  17.231  0.00  0.00    +0.000 S 
ATOM      9  C   UNL     1       3.478   2.356  18.418  0.00  0.00    +0.000 C 
ATOM     10  C   UNL     1       2.501   2.587  19.560  0.00  0.00    +0.000 C 
ATOM     11  C   UNL     1       2.850   3.757  20.470  0.00  0.00    +0.000 C 
ATOM     12  S   UNL     1       2.823   5.370  19.634  0.00  0.00    +0.000 S 
ENDROOT
TORSDOF 0
ENDMDL
MODEL 3
REMARK VINA RESULT:      -5.6      3.285      5.063
REMARK  Name = 
REMARK  0 active torsions:
REMARK  status: ('A' for Active; 'I' for Inactive)
REMARK                            x       y       z     vdW  Elec       q    Type
REMARK                         _______ _______ _______ _____ _____    ______ ____
ROOT
ATOM      1  O   UNL     1       1.241   2.269  22.312  0.00  0.00    +0.000 OA
ATOM      2  C   UNL     1       1.805   2.910  21.427  0.00  0.00    +0.000 C 
ATOM      3  C   UNL     1       3.268   2.703  21.119  0.00  0.00    +0.000 C 
ATOM      4  C   UNL     1       3.495   2.667  19.609  0.00  0.00    +0.000 C 
ATOM      5  C   UNL     1       2.928   3.906  18.883  0.00  0.00    +0.000 C 
ATOM      6  C   UNL     1       1.414   3.996  19.201  0.00  0.00    +0.000 C 
ATOM      7  C   UNL     1       1.104   4.036  20.698  0.00  0.00    +0.000 C 
ATOM      8  S   UNL     1       3.719   5.485  19.402  0.00  0.00    +0.000 S 
ATOM      9  C   UNL     1       5.433   5.185  18.899  0.00  0.00    +0.000 C 
ATOM     10  C   UNL     1       5.581   4.966  17.402  0.00  0.00    +0.000 C 
ATOM     11  C   UNL     1       4.896   3.714  16.871  0.00  0.00    +0.000 C 
ATOM     12  S   UNL     1       3.089   3.730  17.061  0.00  0.00    +0.000 S 
ENDROOT
TORSDOF 0
ENDMDL
MODEL 4
REMARK VINA RESULT:      -5.5      1.568      2.716
REMARK  Name = 
REMARK  0 active torsions:
REMARK  status: ('A' for Active; 'I' for Inactive)
REMARK                            x       y       z     vdW  Elec       q    Type
REMARK                         _______ _______ _______ _____ _____    ______ ____
ROOT
ATOM      1  O   UNL     1       6.991   5.765  17.410  0.00  0.00    +0.000 OA
ATOM      2  C   UNL     1       6.046   5.093  17.818  0.00  0.00    +0.000 C 
ATOM      3  C   UNL     1       5.536   5.233  19.232  0.00  0.00    +0.000 C 
ATOM      4  C   UNL     1       4.009   5.248  19.250  0.00  0.00    +0.000 C 
ATOM      5  C   UNL     1       3.385   4.030  18.536  0.00  0.00    +0.000 C 
ATOM      6  C   UNL     1       3.908   4.009  17.078  0.00  0.00    +0.000 C 
ATOM      7  C   UNL     1       5.435   3.994  16.976  0.00  0.00    +0.000 C 
ATOM      8  S   UNL     1       3.811   2.421  19.323  0.00  0.00    +0.000 S 
ATOM      9  C   UNL     1       3.073   2.641  20.962  0.00  0.00    +0.000 C 
ATOM     10  C   UNL     1       1.566   2.843  20.911  0.00  0.00    +0.000 C 
ATOM     11  C   UNL     1       1.118   4.120  20.213  0.00  0.00    +0.000 C 
ATOM     12  S   UNL     1       1.555   4.185  18.451  0.00  0.00    +0.000 S 
ENDROOT
TORSDOF 0
ENDMDL
MODEL 5
REMARK VINA RESULT:      -5.5      2.882      4.904
REMARK  Name = 
REMARK  0 active torsions:
REMARK  status: ('A' for Active; 'I' for Inactive)
REMARK                            x       y       z     vdW  Elec       q    Type
REMARK                         _______ _______ _______ _____ _____    ______ ____
ROOT
ATOM      1  O   UNL     1       0.195   1.947  18.819  0.00  0.00    +0.000 OA
ATOM      2  C   UNL     1       1.143   2.729  18.863  0.00  0.00    +0.000 C 
ATOM      3  C   UNL     1       2.153   2.800  17.744  0.00  0.00    +0.000 C 
ATOM      4  C   UNL     1       2.489   4.254  17.420  0.00  0.00    +0.000 C 
ATOM      5  C   UNL     1       2.948   5.058  18.656  0.00  0.00    +0.000 C 
ATOM      6  C   UNL     1       1.823   4.986  19.719  0.00  0.00    +0.000 C 
ATOM      7  C   UNL     1       1.427   3.557  20.097  0.00  0.00    +0.000 C 
ATOM      8  S   UNL     1       4.496   4.415  19.415  0.00  0.00    +0.000 S 
ATOM      9  C   UNL     1       5.662   4.638  18.046  0.00  0.00    +0.000 C 
ATOM     10  C   UNL     1       5.818   6.094  17.633  0.00  0.00    +0.000 C 
ATOM     11  C   UNL     1       4.561   6.731  17.057  0.00  0.00    +0.000 C 
ATOM     12  S   UNL     1       3.182   6.832  18.236  0.00  0.00    +0.000 S 
ENDROOT
TORSDOF 0
ENDMDL
MODEL 6
REMARK VINA RESULT:      -5.5      1.321      1.503
REMARK  Name = 
REMARK  0 active torsions:
REMARK  status: ('A' for Active; 'I' for Inactive)
REMARK                            x       y       z     vdW  Elec       q    Type
REMARK                         _______ _______ _______ _____ _____    ______ ____
ROOT
ATOM      1  O   UNL     1       7.712   7.467  16.831  0.00  0.00    +0.000 OA
ATOM      2  C   UNL     1       6.803   6.799  17.320  0.00  0.00    +0.000 C 
ATOM      3  C   UNL     1       5.373   6.968  16.864  0.00  0.00    +0.000 C 
ATOM      4  C   UNL     1       4.700   5.608  16.700  0.00  0.00    +0.000 C 
ATOM      5  C   UNL     1       4.796   4.730  17.967  0.00  0.00    +0.000 C 
ATOM      6  C   UNL     1       6.296   4.553  18.315  0.00  0.00    +0.000 C 
ATOM      7  C   UNL     1       7.043   5.877  18.495  0.00  0.00    +0.000 C 
ATOM      8  S   UNL     1       3.949   5.458  19.429  0.00  0.00    +0.000 S 
ATOM      9  C   UNL     1       2.240   5.523  18.832  0.00  0.00    +0.000 C 
ATOM     10  C   UNL     1       1.676   4.150  18.500  0.00  0.00    +0.000 C 
ATOM     11  C   UNL     1       2.366   3.441  17.342  0.00  0.00    +0.000 C 
ATOM     12  S   UNL     1       4.113   3.052  17.656  0.00  0.00    +0.000 S 
ENDROOT
TORSDOF 0
ENDMDL
MODEL 7
REMARK VINA RESULT:      -5.5      2.607      4.671
REMARK  Name = 
REMARK  0 active torsions:
REMARK  status: ('A' for Active; 'I' for Inactive)
REMARK                            x       y       z     vdW  Elec       q    Type
REMARK                         _______ _______ _______ _____ _____    ______ ____
ROOT
ATOM      1  O   UNL     1       0.950   2.676  18.156  0.00  0.00    +0.000 OA
ATOM      2  C   UNL     1       1.957   3.381  18.196  0.00  0.00    +0.000 C 
ATOM      3  C   UNL     1       3.299   2.858  17.745  0.00  0.00    +0.000 C 
ATOM      4  C   UNL     1       4.029   3.907  16.911  0.00  0.00    +0.000 C 
ATOM      5  C   UNL     1       4.158   5.268  17.629  0.00  0.00    +0.000 C 
ATOM      6  C   UNL     1       2.732   5.757  17.989  0.00  0.00    +0.000 C 
ATOM      7  C   UNL     1       1.934   4.756  18.827  0.00  0.00    +0.000 C 
ATOM      8  S   UNL     1       5.145   5.186  19.181  0.00  0.00    +0.000 S 
ATOM      9  C   UNL     1       6.752   4.658  18.531  0.00  0.00    +0.000 C 
ATOM     10  C   UNL     1       7.352   5.656  17.553  0.00  0.00    +0.000 C 
ATOM     11  C   UNL     1       6.560   5.839  16.265  0.00  0.00    +0.000 C 
ATOM     12  S   UNL     1       4.898   6.530  16.517  0.00  0.00    +0.000 S 
ENDROOT
TORSDOF 0
ENDMDL
MODEL 8
REMARK VINA RESULT:      -5.4      1.842      2.421
REMARK  Name = 
REMARK  0 active torsions:
REMARK  status: ('A' for Active; 'I' for Inactive)
REMARK                            x       y       z     vdW  Elec       q    Type
REMARK                         _______ _______ _______ _____ _____    ______ ____
ROOT
ATOM      1  O   UNL     1       5.202   6.597  15.883  0.00  0.00    +0.000 OA
ATOM      2  C   UNL     1       4.735   5.840  16.732  0.00  0.00    +0.000 C 
ATOM      3  C   UNL     1       3.629   6.288  17.658  0.00  0.00    +0.000 C 
ATOM      4  C   UNL     1       2.574   5.193  17.798  0.00  0.00    +0.000 C 
ATOM      5  C   UNL     1       3.166   3.835  18.230  0.00  0.00    +0.000 C 
ATOM      6  C   UNL     1       4.236   3.424  17.187  0.00  0.00    +0.000 C 
ATOM      7  C   UNL     1       5.332   4.474  16.988  0.00  0.00    +0.000 C 
ATOM      8  S   UNL     1       3.967   3.878  19.887  0.00  0.00    +0.000 S 
ATOM      9  C   UNL     1       2.554   4.315  20.934  0.00  0.00    +0.000 C 
ATOM     10  C   UNL     1       1.443   3.278  20.890  0.00  0.00    +0.000 C 
ATOM     11  C   UNL     1       0.768   3.124  19.534  0.00  0.00    +0.000 C 
ATOM     12  S   UNL     1       1.877   2.525  18.226  0.00  0.00    +0.000 S 
ENDROOT
TORSDOF 0
ENDMDL
MODEL 9
REMARK VINA RESULT:      -5.4      1.645      2.738
REMARK  Name = 
REMARK  0 active torsions:
REMARK  status: ('A' for Active; 'I' for Inactive)
REMARK                            x       y       z     vdW  Elec       q    Type
REMARK                         _______ _______ _______ _____ _____    ______ ____
ROOT
ATOM      1  O   UNL     1       8.000   4.515  16.803  0.00  0.00    +0.000 OA
ATOM      2  C   UNL     1       6.835   4.489  17.196  0.00  0.00    +0.000 C 
ATOM      3  C   UNL     1       6.500   4.603  18.664  0.00  0.00    +0.000 C 
ATOM      4  C   UNL     1       5.313   5.539  18.870  0.00  0.00    +0.000 C 
ATOM      5  C   UNL     1       4.078   5.143  18.032  0.00  0.00    +0.000 C 
ATOM      6  C   UNL     1       4.499   5.122  16.540  0.00  0.00    +0.000 C 
ATOM      7  C   UNL     1       5.688   4.204  16.252  0.00  0.00    +0.000 C 
ATOM      8  S   UNL     1       3.402   3.486  18.460  0.00  0.00    +0.000 S 
ATOM      9  C   UNL     1       2.934   3.749  20.190  0.00  0.00    +0.000 C 
ATOM     10  C   UNL     1       1.879   4.832  20.360  0.00  0.00    +0.000 C 
ATOM     11  C   UNL     1       2.331   6.230  19.961  0.00  0.00    +0.000 C 
ATOM     12  S   UNL     1       2.742   6.394  18.199  0.00  0.00    +0.000 S 
ENDROOT
TORSDOF 0
ENDMDL
