MODEL 1
REMARK VINA RESULT:      -7.7      0.000      0.000
REMARK  Name = 
REMARK  5 active torsions:
REMARK  status: ('A' for Active; 'I' for Inactive)
REMARK    1  A    between atoms: C_1  and  C_2
REMARK    2  A    between atoms: C_2  and  C_3
REMARK    3  A    between atoms: C_3  and  C_4
REMARK    4  A    between atoms: C_4  and  N_5
REMARK    5  A    between atoms: C_6  and  C_8
REMARK                            x       y       z     vdW  Elec       q    Type
REMARK                         _______ _______ _______ _____ _____    ______ ____
ROOT
ATOM      1  C   UNL     1       5.204   6.152  16.308  0.00  0.00    +0.000 C 
ATOM      2  C   UNL     1       4.541   5.705  17.392  0.00  0.00    +0.000 C 
ATOM      3  S   UNL     1       4.905   4.197  18.144  0.00  0.00    +0.000 S 
ATOM      4  C   UNL     1       3.646   4.026  19.369  0.00  0.00    +0.000 A 
ATOM      5  C   UNL     1       3.644   2.846  20.129  0.00  0.00    +0.000 A 
ATOM      6  C   UNL     1       2.694   2.640  21.130  0.00  0.00    +0.000 A 
ATOM      7  C   UNL     1       1.730   3.610  21.375  0.00  0.00    +0.000 A 
ATOM      8  C   UNL     1       1.723   4.788  20.626  0.00  0.00    +0.000 A 
ATOM      9  C   UNL     1       2.684   5.000  19.627  0.00  0.00    +0.000 A 
ATOM     10  N   UNL     1       2.656   6.213  18.933  0.00  0.00    +0.000 N 
ATOM     11  C   UNL     1       3.490   6.624  17.935  0.00  0.00    +0.000 C 
ATOM     12  O   UNL     1       3.341   7.764  17.486  0.00  0.00    +0.000 OA
ATOM     13  H   UNL     1       1.957   6.900  19.187  0.00  0.00    +0.000 HD
ENDROOT
BRANCH   1  15
ATOM     14  N   UNL     1       5.664   4.580  14.580  0.00  0.00    +0.000 N 
ATOM     15  C   UNL     1       6.200   5.328  15.595  0.00  0.00    +0.000 C 
ATOM     16  O   UNL     1       7.383   5.333  15.913  0.00  0.00    +0.000 OA
ATOM     17  H   UNL     1       4.660   4.538  14.461  0.00  0.00    +0.000 HD
BRANCH  14  18
ATOM     18  C   UNL     1       6.508   3.773  13.719  0.00  0.00    +0.000 C 
BRANCH  18  19
ATOM     19  C   UNL     1       6.108   3.884  12.249  0.00  0.00    +0.000 C 
BRANCH  19  21
ATOM     20  C   UNL     1       3.941   3.271  11.106  0.00  0.00    +0.000 C 
ATOM     21  C   UNL     1       5.182   2.746  11.810  0.00  0.00    +0.000 C 
ENDBRANCH  19  21
ENDBRANCH  18  19
ENDBRANCH  14  18
ENDBRANCH   1  15
TORSDOF 4
ENDMDL
MODEL 2
REMARK VINA RESULT:      -7.6      1.731      1.957
REMARK  Name = 
REMARK  5 active torsions:
REMARK  status: ('A' for Active; 'I' for Inactive)
REMARK    1  A    between atoms: C_1  and  C_2
REMARK    2  A    between atoms: C_2  and  C_3
REMARK    3  A    between atoms: C_3  and  C_4
REMARK    4  A    between atoms: C_4  and  N_5
REMARK    5  A    between atoms: C_6  and  C_8
REMARK                            x       y       z     vdW  Elec       q    Type
REMARK                         _______ _______ _______ _____ _____    ______ ____
ROOT
ATOM      1  C   UNL     1       6.226   5.234  16.999  0.00  0.00    +0.000 C 
ATOM      2  C   UNL     1       5.238   4.724  17.759  0.00  0.00    +0.000 C 
ATOM      3  S   UNL     1       3.855   3.947  17.083  0.00  0.00    +0.000 S 
ATOM      4  C   UNL     1       2.820   3.646  18.480  0.00  0.00    +0.000 A 
ATOM      5  C   UNL     1       1.569   3.057  18.239  0.00  0.00    +0.000 A 
ATOM      6  C   UNL     1       0.697   2.770  19.289  0.00  0.00    +0.000 A 
ATOM      7  C   UNL     1       1.065   3.077  20.594  0.00  0.00    +0.000 A 
ATOM      8  C   UNL     1       2.308   3.662  20.846  0.00  0.00    +0.000 A 
ATOM      9  C   UNL     1       3.188   3.941  19.791  0.00  0.00    +0.000 A 
ATOM     10  N   UNL     1       4.434   4.492  20.102  0.00  0.00    +0.000 N 
ATOM     11  C   UNL     1       5.434   4.835  19.240  0.00  0.00    +0.000 C 
ATOM     12  O   UNL     1       6.494   5.253  19.717  0.00  0.00    +0.000 OA
ATOM     13  H   UNL     1       4.664   4.651  21.075  0.00  0.00    +0.000 HD
ENDROOT
BRANCH   1  15
ATOM     14  N   UNL     1       6.615   4.162  14.909  0.00  0.00    +0.000 N 
ATOM     15  C   UNL     1       6.141   5.291  15.526  0.00  0.00    +0.000 C 
ATOM     16  O   UNL     1       5.690   6.270  14.945  0.00  0.00    +0.000 OA
ATOM     17  H   UNL     1       7.082   3.450  15.453  0.00  0.00    +0.000 HD
BRANCH  14  18
ATOM     18  C   UNL     1       6.534   4.008  13.469  0.00  0.00    +0.000 C 
BRANCH  18  19
ATOM     19  C   UNL     1       5.121   3.660  13.004  0.00  0.00    +0.000 C 
BRANCH  19  21
ATOM     20  C   UNL     1       3.745   3.203  10.936  0.00  0.00    +0.000 C 
ATOM     21  C   UNL     1       5.103   3.046  11.602  0.00  0.00    +0.000 C 
ENDBRANCH  19  21
ENDBRANCH  18  19
ENDBRANCH  14  18
ENDBRANCH   1  15
TORSDOF 4
ENDMDL
MODEL 3
REMARK VINA RESULT:      -7.5      1.982      6.695
REMARK  Name = 
REMARK  5 active torsions:
REMARK  status: ('A' for Active; 'I' for Inactive)
REMARK    1  A    between atoms: C_1  and  C_2
REMARK    2  A    between atoms: C_2  and  C_3
REMARK    3  A    between atoms: C_3  and  C_4
REMARK    4  A    between atoms: C_4  and  N_5
REMARK    5  A    between atoms: C_6  and  C_8
REMARK                            x       y       z     vdW  Elec       q    Type
REMARK                         _______ _______ _______ _____ _____    ______ ____
ROOT
ATOM      1  C   UNL     1       5.716   5.374  18.551  0.00  0.00    +0.000 C 
ATOM      2  C   UNL     1       5.976   5.233  17.237  0.00  0.00    +0.000 C 
ATOM      3  S   UNL     1       4.990   4.278  16.194  0.00  0.00    +0.000 S 
ATOM      4  C   UNL     1       5.867   4.288  14.663  0.00  0.00    +0.000 A 
ATOM      5  C   UNL     1       5.328   3.536  13.608  0.00  0.00    +0.000 A 
ATOM      6  C   UNL     1       5.950   3.504  12.360  0.00  0.00    +0.000 A 
ATOM      7  C   UNL     1       7.125   4.218  12.157  0.00  0.00    +0.000 A 
ATOM      8  C   UNL     1       7.670   4.971  13.199  0.00  0.00    +0.000 A 
ATOM      9  C   UNL     1       7.039   5.011  14.451  0.00  0.00    +0.000 A 
ATOM     10  N   UNL     1       7.605   5.810  15.448  0.00  0.00    +0.000 N 
ATOM     11  C   UNL     1       7.159   5.996  16.724  0.00  0.00    +0.000 C 
ATOM     12  O   UNL     1       7.767   6.795  17.441  0.00  0.00    +0.000 OA
ATOM     13  H   UNL     1       8.437   6.344  15.227  0.00  0.00    +0.000 HD
ENDROOT
BRANCH   1  15
ATOM     14  N   UNL     1       4.913   3.275  19.339  0.00  0.00    +0.000 N 
ATOM     15  C   UNL     1       4.647   4.616  19.231  0.00  0.00    +0.000 C 
ATOM     16  O   UNL     1       3.632   5.164  19.641  0.00  0.00    +0.000 OA
ATOM     17  H   UNL     1       5.717   2.882  18.867  0.00  0.00    +0.000 HD
BRANCH  14  18
ATOM     18  C   UNL     1       4.012   2.389  20.051  0.00  0.00    +0.000 C 
BRANCH  18  19
ATOM     19  C   UNL     1       2.917   1.829  19.144  0.00  0.00    +0.000 C 
BRANCH  19  21
ATOM     20  C   UNL     1       1.449   2.820  20.944  0.00  0.00    +0.000 C 
ATOM     21  C   UNL     1       1.533   2.386  19.489  0.00  0.00    +0.000 C 
ENDBRANCH  19  21
ENDBRANCH  18  19
ENDBRANCH  14  18
ENDBRANCH   1  15
TORSDOF 4
ENDMDL
MODEL 4
REMARK VINA RESULT:      -7.5      1.918      6.817
REMARK  Name = 
REMARK  5 active torsions:
REMARK  status: ('A' for Active; 'I' for Inactive)
REMARK    1  A    between atoms: C_1  and  C_2
REMARK    2  A    between atoms: C_2  and  C_3
REMARK    3  A    between atoms: C_3  and  C_4
REMARK    4  A    between atoms: C_4  and  N_5
REMARK    5  A    between atoms: C_6  and  C_8
REMARK                            x       y       z     vdW  Elec       q    Type
REMARK                         _______ _______ _______ _____ _____    ______ ____
ROOT
ATOM      1  C   UNL     1       5.687   5.497  18.715  0.00  0.00    +0.000 C 
ATOM      2  C   UNL     1       5.942   5.329  17.403  0.00  0.00    +0.000 C 
ATOM      3  S   UNL     1       4.948   4.356  16.383  0.00  0.00    +0.000 S 
ATOM      4  C   UNL     1       5.820   4.333  14.849  0.00  0.00    +0.000 A 
ATOM      5  C   UNL     1       5.275   3.561  13.811  0.00  0.00    +0.000 A 
ATOM      6  C   UNL     1       5.892   3.502  12.561  0.00  0.00    +0.000 A 
ATOM      7  C   UNL     1       7.068   4.209  12.340  0.00  0.00    +0.000 A 
ATOM      8  C   UNL     1       7.619   4.981  13.365  0.00  0.00    +0.000 A 
ATOM      9  C   UNL     1       6.993   5.048  14.618  0.00  0.00    +0.000 A 
ATOM     10  N   UNL     1       7.566   5.865  15.596  0.00  0.00    +0.000 N 
ATOM     11  C   UNL     1       7.124   6.078  16.870  0.00  0.00    +0.000 C 
ATOM     12  O   UNL     1       7.738   6.890  17.568  0.00  0.00    +0.000 OA
ATOM     13  H   UNL     1       8.397   6.392  15.361  0.00  0.00    +0.000 HD
ENDROOT
BRANCH   1  15
ATOM     14  N   UNL     1       3.596   5.556  19.852  0.00  0.00    +0.000 N 
ATOM     15  C   UNL     1       4.619   4.755  19.414  0.00  0.00    +0.000 C 
ATOM     16  O   UNL     1       4.677   3.543  19.574  0.00  0.00    +0.000 OA
ATOM     17  H   UNL     1       3.682   6.562  19.788  0.00  0.00    +0.000 HD
BRANCH  14  18
ATOM     18  C   UNL     1       2.422   4.989  20.487  0.00  0.00    +0.000 C 
BRANCH  18  19
ATOM     19  C   UNL     1       1.499   4.300  19.484  0.00  0.00    +0.000 C 
BRANCH  19  21
ATOM     20  C   UNL     1       1.456   2.637  21.385  0.00  0.00    +0.000 C 
ATOM     21  C   UNL     1       1.113   2.885  19.924  0.00  0.00    +0.000 C 
ENDBRANCH  19  21
ENDBRANCH  18  19
ENDBRANCH  14  18
ENDBRANCH   1  15
TORSDOF 4
ENDMDL
MODEL 5
REMARK VINA RESULT:      -7.5      2.000      6.547
REMARK  Name = 
REMARK  5 active torsions:
REMARK  status: ('A' for Active; 'I' for Inactive)
REMARK    1  A    between atoms: C_1  and  C_2
REMARK    2  A    between atoms: C_2  and  C_3
REMARK    3  A    between atoms: C_3  and  C_4
REMARK    4  A    between atoms: C_4  and  N_5
REMARK    5  A    between atoms: C_6  and  C_8
REMARK                            x       y       z     vdW  Elec       q    Type
REMARK                         _______ _______ _______ _____ _____    ______ ____
ROOT
ATOM      1  C   UNL     1       5.942   5.155  18.466  0.00  0.00    +0.000 C 
ATOM      2  C   UNL     1       6.129   5.046  17.136  0.00  0.00    +0.000 C 
ATOM      3  S   UNL     1       5.138   4.049  16.139  0.00  0.00    +0.000 S 
ATOM      4  C   UNL     1       5.919   4.129  14.558  0.00  0.00    +0.000 A 
ATOM      5  C   UNL     1       5.361   3.361  13.525  0.00  0.00    +0.000 A 
ATOM      6  C   UNL     1       5.907   3.381  12.241  0.00  0.00    +0.000 A 
ATOM      7  C   UNL     1       7.024   4.165  11.980  0.00  0.00    +0.000 A 
ATOM      8  C   UNL     1       7.587   4.935  13.000  0.00  0.00    +0.000 A 
ATOM      9  C   UNL     1       7.031   4.922  14.288  0.00  0.00    +0.000 A 
ATOM     10  N   UNL     1       7.611   5.740  15.262  0.00  0.00    +0.000 N 
ATOM     11  C   UNL     1       7.232   5.883  16.565  0.00  0.00    +0.000 C 
ATOM     12  O   UNL     1       7.836   6.708  17.258  0.00  0.00    +0.000 OA
ATOM     13  H   UNL     1       8.395   6.325  15.001  0.00  0.00    +0.000 HD
ENDROOT
BRANCH   1  15
ATOM     14  N   UNL     1       3.828   5.011  19.553  0.00  0.00    +0.000 N 
ATOM     15  C   UNL     1       4.962   4.327  19.196  0.00  0.00    +0.000 C 
ATOM     16  O   UNL     1       5.176   3.147  19.446  0.00  0.00    +0.000 OA
ATOM     17  H   UNL     1       3.781   6.012  19.417  0.00  0.00    +0.000 HD
BRANCH  14  18
ATOM     18  C   UNL     1       2.722   4.336  20.204  0.00  0.00    +0.000 C 
BRANCH  18  19
ATOM     19  C   UNL     1       1.424   4.453  19.407  0.00  0.00    +0.000 C 
BRANCH  19  21
ATOM     20  C   UNL     1       1.961   2.337  18.136  0.00  0.00    +0.000 C 
ATOM     21  C   UNL     1       1.524   3.790  18.031  0.00  0.00    +0.000 C 
ENDBRANCH  19  21
ENDBRANCH  18  19
ENDBRANCH  14  18
ENDBRANCH   1  15
TORSDOF 4
ENDMDL
MODEL 6
REMARK VINA RESULT:      -7.3      2.124      2.601
REMARK  Name = 
REMARK  5 active torsions:
REMARK  status: ('A' for Active; 'I' for Inactive)
REMARK    1  A    between atoms: C_1  and  C_2
REMARK    2  A    between atoms: C_2  and  C_3
REMARK    3  A    between atoms: C_3  and  C_4
REMARK    4  A    between atoms: C_4  and  N_5
REMARK    5  A    between atoms: C_6  and  C_8
REMARK                            x       y       z     vdW  Elec       q    Type
REMARK                         _______ _______ _______ _____ _____    ______ ____
ROOT
ATOM      1  C   UNL     1       7.276   4.567  15.737  0.00  0.00    +0.000 C 
ATOM      2  C   UNL     1       6.254   4.411  16.601  0.00  0.00    +0.000 C 
ATOM      3  S   UNL     1       4.635   4.125  16.080  0.00  0.00    +0.000 S 
ATOM      4  C   UNL     1       3.699   4.185  17.575  0.00  0.00    +0.000 A 
ATOM      5  C   UNL     1       2.307   4.037  17.468  0.00  0.00    +0.000 A 
ATOM      6  C   UNL     1       1.495   4.054  18.603  0.00  0.00    +0.000 A 
ATOM      7  C   UNL     1       2.068   4.230  19.857  0.00  0.00    +0.000 A 
ATOM      8  C   UNL     1       3.451   4.378  19.975  0.00  0.00    +0.000 A 
ATOM      9  C   UNL     1       4.268   4.350  18.835  0.00  0.00    +0.000 A 
ATOM     10  N   UNL     1       5.650   4.464  19.013  0.00  0.00    +0.000 N 
ATOM     11  C   UNL     1       6.619   4.458  18.053  0.00  0.00    +0.000 C 
ATOM     12  O   UNL     1       7.797   4.509  18.417  0.00  0.00    +0.000 OA
ATOM     13  H   UNL     1       6.012   4.544  19.955  0.00  0.00    +0.000 HD
ENDROOT
BRANCH   1  15
ATOM     14  N   UNL     1       6.514   3.507  13.746  0.00  0.00    +0.000 N 
ATOM     15  C   UNL     1       7.071   4.641  14.277  0.00  0.00    +0.000 C 
ATOM     16  O   UNL     1       7.387   5.634  13.633  0.00  0.00    +0.000 OA
ATOM     17  H   UNL     1       6.396   2.686  14.324  0.00  0.00    +0.000 HD
BRANCH  14  18
ATOM     18  C   UNL     1       6.166   3.433  12.339  0.00  0.00    +0.000 C 
BRANCH  18  19
ATOM     19  C   UNL     1       4.683   3.138  12.126  0.00  0.00    +0.000 C 
BRANCH  19  21
ATOM     20  C   UNL     1       3.167   3.291  10.111  0.00  0.00    +0.000 C 
ATOM     21  C   UNL     1       4.050   4.061  11.081  0.00  0.00    +0.000 C 
ENDBRANCH  19  21
ENDBRANCH  18  19
ENDBRANCH  14  18
ENDBRANCH   1  15
TORSDOF 4
ENDMDL
MODEL 7
REMARK VINA RESULT:      -7.2      0.894      1.304
REMARK  Name = 
REMARK  5 active torsions:
REMARK  status: ('A' for Active; 'I' for Inactive)
REMARK    1  A    between atoms: C_1  and  C_2
REMARK    2  A    between atoms: C_2  and  C_3
REMARK    3  A    between atoms: C_3  and  C_4
REMARK    4  A    between atoms: C_4  and  N_5
REMARK    5  A    between atoms: C_6  and  C_8
REMARK                            x       y       z     vdW  Elec       q    Type
REMARK                         _______ _______ _______ _____ _____    ______ ____
ROOT
ATOM      1  C   UNL     1       5.018   6.416  16.650  0.00  0.00    +0.000 C 
ATOM      2  C   UNL     1       4.325   5.875  17.671  0.00  0.00    +0.000 C 
ATOM      3  S   UNL     1       4.758   4.370  18.391  0.00  0.00    +0.000 S 
ATOM      4  C   UNL     1       3.441   4.053  19.522  0.00  0.00    +0.000 A 
ATOM      5  C   UNL     1       3.483   2.845  20.236  0.00  0.00    +0.000 A 
ATOM      6  C   UNL     1       2.491   2.526  21.163  0.00  0.00    +0.000 A 
ATOM      7  C   UNL     1       1.438   3.408  21.377  0.00  0.00    +0.000 A 
ATOM      8  C   UNL     1       1.386   4.612  20.672  0.00  0.00    +0.000 A 
ATOM      9  C   UNL     1       2.390   4.938  19.749  0.00  0.00    +0.000 A 
ATOM     10  N   UNL     1       2.310   6.173  19.099  0.00  0.00    +0.000 N 
ATOM     11  C   UNL     1       3.171   6.687  18.175  0.00  0.00    +0.000 C 
ATOM     12  O   UNL     1       2.961   7.830  17.758  0.00  0.00    +0.000 OA
ATOM     13  H   UNL     1       1.544   6.793  19.330  0.00  0.00    +0.000 HD
ENDROOT
BRANCH   1  15
ATOM     14  N   UNL     1       5.696   4.678  15.171  0.00  0.00    +0.000 N 
ATOM     15  C   UNL     1       6.121   5.701  15.978  0.00  0.00    +0.000 C 
ATOM     16  O   UNL     1       7.292   6.016  16.152  0.00  0.00    +0.000 OA
ATOM     17  H   UNL     1       4.722   4.404  15.177  0.00  0.00    +0.000 HD
BRANCH  14  18
ATOM     18  C   UNL     1       6.636   3.919  14.368  0.00  0.00    +0.000 C 
BRANCH  18  19
ATOM     19  C   UNL     1       6.134   3.703  12.942  0.00  0.00    +0.000 C 
BRANCH  19  21
ATOM     20  C   UNL     1       7.955   5.396  12.496  0.00  0.00    +0.000 C 
ATOM     21  C   UNL     1       7.072   4.314  11.896  0.00  0.00    +0.000 C 
ENDBRANCH  19  21
ENDBRANCH  18  19
ENDBRANCH  14  18
ENDBRANCH   1  15
TORSDOF 4
ENDMDL
MODEL 8
REMARK VINA RESULT:      -7.2      2.092      3.022
REMARK  Name = 
REMARK  5 active torsions:
REMARK  status: ('A' for Active; 'I' for Inactive)
REMARK    1  A    between atoms: C_1  and  C_2
REMARK    2  A    between atoms: C_2  and  C_3
REMARK    3  A    between atoms: C_3  and  C_4
REMARK    4  A    between atoms: C_4  and  N_5
REMARK    5  A    between atoms: C_6  and  C_8
REMARK                            x       y       z     vdW  Elec       q    Type
REMARK                         _______ _______ _______ _____ _____    ______ ____
ROOT
ATOM      1  C   UNL     1       6.164   4.417  17.114  0.00  0.00    +0.000 C 
ATOM      2  C   UNL     1       5.155   5.114  17.673  0.00  0.00    +0.000 C 
ATOM      3  S   UNL     1       4.402   6.449  16.884  0.00  0.00    +0.000 S 
ATOM      4  C   UNL     1       3.303   7.091  18.106  0.00  0.00    +0.000 A 
ATOM      5  C   UNL     1       2.571   8.241  17.772  0.00  0.00    +0.000 A 
ATOM      6  C   UNL     1       1.667   8.802  18.674  0.00  0.00    +0.000 A 
ATOM      7  C   UNL     1       1.494   8.224  19.926  0.00  0.00    +0.000 A 
ATOM      8  C   UNL     1       2.217   7.080  20.269  0.00  0.00    +0.000 A 
ATOM      9  C   UNL     1       3.117   6.509  19.358  0.00  0.00    +0.000 A 
ATOM     10  N   UNL     1       3.787   5.343  19.738  0.00  0.00    +0.000 N 
ATOM     11  C   UNL     1       4.695   4.627  19.013  0.00  0.00    +0.000 C 
ATOM     12  O   UNL     1       5.133   3.582  19.501  0.00  0.00    +0.000 OA
ATOM     13  H   UNL     1       3.586   4.942  20.645  0.00  0.00    +0.000 HD
ENDROOT
BRANCH   1  15
ATOM     14  N   UNL     1       6.383   4.083  14.767  0.00  0.00    +0.000 N 
ATOM     15  C   UNL     1       6.796   4.824  15.844  0.00  0.00    +0.000 C 
ATOM     16  O   UNL     1       7.612   5.737  15.795  0.00  0.00    +0.000 OA
ATOM     17  H   UNL     1       5.801   3.268  14.910  0.00  0.00    +0.000 HD
BRANCH  14  18
ATOM     18  C   UNL     1       6.838   4.396  13.425  0.00  0.00    +0.000 C 
BRANCH  18  19
ATOM     19  C   UNL     1       6.280   3.425  12.386  0.00  0.00    +0.000 C 
BRANCH  19  21
ATOM     20  C   UNL     1       4.154   3.370  11.024  0.00  0.00    +0.000 C 
ATOM     21  C   UNL     1       4.751   3.348  12.422  0.00  0.00    +0.000 C 
ENDBRANCH  19  21
ENDBRANCH  18  19
ENDBRANCH  14  18
ENDBRANCH   1  15
TORSDOF 4
ENDMDL
MODEL 9
REMARK VINA RESULT:      -7.2      1.918      2.254
REMARK  Name = 
REMARK  5 active torsions:
REMARK  status: ('A' for Active; 'I' for Inactive)
REMARK    1  A    between atoms: C_1  and  C_2
REMARK    2  A    between atoms: C_2  and  C_3
REMARK    3  A    between atoms: C_3  and  C_4
REMARK    4  A    between atoms: C_4  and  N_5
REMARK    5  A    between atoms: C_6  and  C_8
REMARK                            x       y       z     vdW  Elec       q    Type
REMARK                         _______ _______ _______ _____ _____    ______ ____
ROOT
ATOM      1  C   UNL     1       7.128   4.852  16.616  0.00  0.00    +0.000 C 
ATOM      2  C   UNL     1       6.002   4.616  17.315  0.00  0.00    +0.000 C 
ATOM      3  S   UNL     1       4.548   4.063  16.571  0.00  0.00    +0.000 S 
ATOM      4  C   UNL     1       3.367   4.098  17.883  0.00  0.00    +0.000 A 
ATOM      5  C   UNL     1       2.046   3.745  17.569  0.00  0.00    +0.000 A 
ATOM      6  C   UNL     1       1.055   3.729  18.551  0.00  0.00    +0.000 A 
ATOM      7  C   UNL     1       1.375   4.078  19.858  0.00  0.00    +0.000 A 
ATOM      8  C   UNL     1       2.686   4.430  20.182  0.00  0.00    +0.000 A 
ATOM      9  C   UNL     1       3.685   4.435  19.196  0.00  0.00    +0.000 A 
ATOM     10  N   UNL     1       4.988   4.759  19.582  0.00  0.00    +0.000 N 
ATOM     11  C   UNL     1       6.101   4.821  18.795  0.00  0.00    +0.000 C 
ATOM     12  O   UNL     1       7.182   5.067  19.338  0.00  0.00    +0.000 OA
ATOM     13  H   UNL     1       5.169   4.959  20.558  0.00  0.00    +0.000 HD
ENDROOT
BRANCH   1  15
ATOM     14  N   UNL     1       6.518   3.700  14.623  0.00  0.00    +0.000 N 
ATOM     15  C   UNL     1       7.171   4.789  15.141  0.00  0.00    +0.000 C 
ATOM     16  O   UNL     1       7.748   5.641  14.478  0.00  0.00    +0.000 OA
ATOM     17  H   UNL     1       6.173   2.979  15.242  0.00  0.00    +0.000 HD
BRANCH  14  18
ATOM     18  C   UNL     1       6.388   3.519  13.190  0.00  0.00    +0.000 C 
BRANCH  18  19
ATOM     19  C   UNL     1       4.954   3.732  12.709  0.00  0.00    +0.000 C 
BRANCH  19  21
ATOM     20  C   UNL     1       5.631   1.767  11.274  0.00  0.00    +0.000 C 
ATOM     21  C   UNL     1       4.620   2.884  11.479  0.00  0.00    +0.000 C 
ENDBRANCH  19  21
ENDBRANCH  18  19
ENDBRANCH  14  18
ENDBRANCH   1  15
TORSDOF 4
ENDMDL
