MODEL 1
REMARK VINA RESULT:      -6.7      0.000      0.000
REMARK  Name = 
REMARK  6 active torsions:
REMARK  status: ('A' for Active; 'I' for Inactive)
REMARK    1  A    between atoms: C_1  and  C_2
REMARK    2  A    between atoms: C_2  and  C_3
REMARK    3  A    between atoms: C_4  and  C_5
REMARK    4  A    between atoms: C_6  and  N_7
REMARK    5  A    between atoms: N_7  and  C_8
REMARK    6  A    between atoms: N_23  and  C_24
REMARK                            x       y       z     vdW  Elec       q    Type
REMARK                         _______ _______ _______ _____ _____    ______ ____
ROOT
ATOM      1  C   UNL     1      -1.549  11.515  20.986  0.00  0.00    +0.000 C 
ATOM      2  C   UNL     1      -0.145  11.419  20.300  0.00  0.00    +0.000 C 
ATOM      3  C   UNL     1       1.037  11.295  21.273  0.00  0.00    +0.000 C 
ATOM      4  C   UNL     1      -0.214  10.222  19.323  0.00  0.00    +0.000 C 
ATOM      5  C   UNL     1      -1.391  10.392  18.376  0.00  0.00    +0.000 A 
ATOM      6  C   UNL     1      -1.353   9.711  17.127  0.00  0.00    +0.000 A 
ATOM      7  C   UNL     1      -2.397   9.792  16.212  0.00  0.00    +0.000 A 
ATOM      8  C   UNL     1      -3.529  10.501  16.554  0.00  0.00    +0.000 A 
ATOM      9  C   UNL     1      -3.593  11.155  17.788  0.00  0.00    +0.000 A 
ATOM     10  C   UNL     1      -2.529  11.166  18.712  0.00  0.00    +0.000 A 
ATOM     11  N   UNL     1      -2.556  11.972  19.948  0.00  0.00    +0.000 N 
ATOM     12  C   UNL     1      -3.548  12.966  20.095  0.00  0.00    +0.000 C 
ATOM     13  O   UNL     1      -4.566  13.057  19.411  0.00  0.00    +0.000 OA
ATOM     14  N   UNL     1      -3.297  13.968  21.014  0.00  0.00    +0.000 N 
ATOM     15  H   UNL     1      -2.338  14.280  21.034  0.00  0.00    +0.000 HD
ENDROOT
BRANCH  14  16
ATOM     16  C   UNL     1      -4.286  14.912  21.397  0.00  0.00    +0.000 A 
ATOM     17  C   UNL     1      -5.277  14.618  22.341  0.00  0.00    +0.000 A 
ATOM     18  C   UNL     1      -6.264  15.557  22.652  0.00  0.00    +0.000 A 
ATOM     19 CL   UNL     1      -7.485  15.177  23.809  0.00  0.00    +0.000 Cl
ATOM     20  C   UNL     1      -6.271  16.802  22.035  0.00  0.00    +0.000 A 
ATOM     21  C   UNL     1      -5.269  17.103  21.119  0.00  0.00    +0.000 A 
ATOM     22 CL   UNL     1      -5.279  18.631  20.324  0.00  0.00    +0.000 Cl
ATOM     23  C   UNL     1      -4.267  16.177  20.817  0.00  0.00    +0.000 A 
ENDBRANCH  14  16
BRANCH   1  25
ATOM     24  C   UNL     1      -2.474  11.758  23.428  0.00  0.00    +0.000 C 
ATOM     25  C   UNL     1      -1.482  12.225  22.366  0.00  0.00    +0.000 C 
ENDBRANCH   1  25
BRANCH   4  26
ATOM     26  N   UNL     1       1.032  10.075  18.548  0.00  0.00    +0.000 N 
ATOM     27  H   UNL     1       1.548  10.942  18.449  0.00  0.00    +0.000 HD
BRANCH  26  28
ATOM     28  C   UNL     1       1.818   8.926  18.562  0.00  0.00    +0.000 A 
ATOM     29  C   UNL     1       2.694   8.568  17.532  0.00  0.00    +0.000 A 
ATOM     30  C   UNL     1       3.387   7.351  17.557  0.00  0.00    +0.000 A 
ATOM     31  C   UNL     1       3.246   6.487  18.638  0.00  0.00    +0.000 A 
ATOM     32  C   UNL     1       2.455   6.866  19.715  0.00  0.00    +0.000 A 
ATOM     33  C   UNL     1       1.765   8.085  19.684  0.00  0.00    +0.000 A 
ENDBRANCH  26  28
ENDBRANCH   4  26
TORSDOF 4
ENDMDL
MODEL 2
REMARK VINA RESULT:      -6.6      0.831      1.546
REMARK  Name = 
REMARK  6 active torsions:
REMARK  status: ('A' for Active; 'I' for Inactive)
REMARK    1  A    between atoms: C_1  and  C_2
REMARK    2  A    between atoms: C_2  and  C_3
REMARK    3  A    between atoms: C_4  and  C_5
REMARK    4  A    between atoms: C_6  and  N_7
REMARK    5  A    between atoms: N_7  and  C_8
REMARK    6  A    between atoms: N_23  and  C_24
REMARK                            x       y       z     vdW  Elec       q    Type
REMARK                         _______ _______ _______ _____ _____    ______ ____
ROOT
ATOM      1  C   UNL     1      -1.622  11.842  20.959  0.00  0.00    +0.000 C 
ATOM      2  C   UNL     1      -0.283  11.648  20.170  0.00  0.00    +0.000 C 
ATOM      3  C   UNL     1       0.966  11.508  21.054  0.00  0.00    +0.000 C 
ATOM      4  C   UNL     1      -0.484  10.415  19.259  0.00  0.00    +0.000 C 
ATOM      5  C   UNL     1      -1.724  10.602  18.399  0.00  0.00    +0.000 A 
ATOM      6  C   UNL     1      -1.816   9.867  17.185  0.00  0.00    +0.000 A 
ATOM      7  C   UNL     1      -2.926   9.960  16.350  0.00  0.00    +0.000 A 
ATOM      8  C   UNL     1      -3.994  10.736  16.746  0.00  0.00    +0.000 A 
ATOM      9  C   UNL     1      -3.929  11.446  17.949  0.00  0.00    +0.000 A 
ATOM     10  C   UNL     1      -2.795  11.443  18.787  0.00  0.00    +0.000 A 
ATOM     11  N   UNL     1      -2.688  12.302  19.982  0.00  0.00    +0.000 N 
ATOM     12  C   UNL     1      -3.619  13.349  20.159  0.00  0.00    +0.000 C 
ATOM     13  O   UNL     1      -4.683  13.460  19.553  0.00  0.00    +0.000 OA
ATOM     14  N   UNL     1      -3.250  14.376  21.008  0.00  0.00    +0.000 N 
ATOM     15  H   UNL     1      -2.279  14.641  20.939  0.00  0.00    +0.000 HD
ENDROOT
BRANCH  14  16
ATOM     16  C   UNL     1      -4.161  15.382  21.423  0.00  0.00    +0.000 A 
ATOM     17  C   UNL     1      -4.890  16.156  20.511  0.00  0.00    +0.000 A 
ATOM     18  C   UNL     1      -5.738  17.172  20.958  0.00  0.00    +0.000 A 
ATOM     19 CL   UNL     1      -6.621  18.123  19.823  0.00  0.00    +0.000 Cl
ATOM     20  C   UNL     1      -5.877  17.426  22.318  0.00  0.00    +0.000 A 
ATOM     21  C   UNL     1      -5.174  16.638  23.223  0.00  0.00    +0.000 A 
ATOM     22 CL   UNL     1      -5.313  16.958  24.910  0.00  0.00    +0.000 Cl
ATOM     23  C   UNL     1      -4.340  15.607  22.785  0.00  0.00    +0.000 A 
ENDBRANCH  14  16
BRANCH   1  25
ATOM     24  C   UNL     1      -2.213  12.116  23.499  0.00  0.00    +0.000 C 
ATOM     25  C   UNL     1      -1.414  12.605  22.294  0.00  0.00    +0.000 C 
ENDBRANCH   1  25
BRANCH   4  26
ATOM     26  N   UNL     1       0.688  10.174  18.397  0.00  0.00    +0.000 N 
ATOM     27  H   UNL     1       1.150  11.027  18.101  0.00  0.00    +0.000 HD
BRANCH  26  28
ATOM     28  C   UNL     1       1.526   9.071  18.525  0.00  0.00    +0.000 A 
ATOM     29  C   UNL     1       2.448   8.674  17.551  0.00  0.00    +0.000 A 
ATOM     30  C   UNL     1       3.196   7.498  17.693  0.00  0.00    +0.000 A 
ATOM     31  C   UNL     1       3.063   6.718  18.836  0.00  0.00    +0.000 A 
ATOM     32  C   UNL     1       2.223   7.143  19.859  0.00  0.00    +0.000 A 
ATOM     33  C   UNL     1       1.480   8.320  19.710  0.00  0.00    +0.000 A 
ENDBRANCH  26  28
ENDBRANCH   4  26
TORSDOF 4
ENDMDL
MODEL 3
REMARK VINA RESULT:      -6.5      7.226      9.304
REMARK  Name = 
REMARK  6 active torsions:
REMARK  status: ('A' for Active; 'I' for Inactive)
REMARK    1  A    between atoms: C_1  and  C_2
REMARK    2  A    between atoms: C_2  and  C_3
REMARK    3  A    between atoms: C_4  and  C_5
REMARK    4  A    between atoms: C_6  and  N_7
REMARK    5  A    between atoms: N_7  and  C_8
REMARK    6  A    between atoms: N_23  and  C_24
REMARK                            x       y       z     vdW  Elec       q    Type
REMARK                         _______ _______ _______ _____ _____    ______ ____
ROOT
ATOM      1  C   UNL     1       7.053  15.544  21.004  0.00  0.00    +0.000 C 
ATOM      2  C   UNL     1       8.316  14.779  20.481  0.00  0.00    +0.000 C 
ATOM      3  C   UNL     1       9.264  15.624  19.617  0.00  0.00    +0.000 C 
ATOM      4  C   UNL     1       9.030  14.206  21.727  0.00  0.00    +0.000 C 
ATOM      5  C   UNL     1       8.058  13.372  22.546  0.00  0.00    +0.000 A 
ATOM      6  C   UNL     1       8.590  12.380  23.415  0.00  0.00    +0.000 A 
ATOM      7  C   UNL     1       7.773  11.589  24.217  0.00  0.00    +0.000 A 
ATOM      8  C   UNL     1       6.414  11.820  24.216  0.00  0.00    +0.000 A 
ATOM      9  C   UNL     1       5.877  12.809  23.386  0.00  0.00    +0.000 A 
ATOM     10  C   UNL     1       6.657  13.580  22.500  0.00  0.00    +0.000 A 
ATOM     11  N   UNL     1       6.063  14.522  21.533  0.00  0.00    +0.000 N 
ATOM     12  C   UNL     1       4.673  14.470  21.291  0.00  0.00    +0.000 C 
ATOM     13  O   UNL     1       3.852  13.895  22.001  0.00  0.00    +0.000 OA
ATOM     14  N   UNL     1       4.224  15.028  20.108  0.00  0.00    +0.000 N 
ATOM     15  H   UNL     1       4.827  14.860  19.317  0.00  0.00    +0.000 HD
ENDROOT
BRANCH  14  16
ATOM     16  C   UNL     1       2.844  15.215  19.833  0.00  0.00    +0.000 A 
ATOM     17  C   UNL     1       2.052  14.214  19.256  0.00  0.00    +0.000 A 
ATOM     18  C   UNL     1       0.709  14.456  18.953  0.00  0.00    +0.000 A 
ATOM     19 CL   UNL     1      -0.251  13.218  18.233  0.00  0.00    +0.000 Cl
ATOM     20  C   UNL     1       0.137  15.693  19.228  0.00  0.00    +0.000 A 
ATOM     21  C   UNL     1       0.917  16.675  19.827  0.00  0.00    +0.000 A 
ATOM     22 CL   UNL     1       0.232  18.222  20.148  0.00  0.00    +0.000 Cl
ATOM     23  C   UNL     1       2.255  16.435  20.152  0.00  0.00    +0.000 A 
ENDBRANCH  14  16
BRANCH   1  25
ATOM     24  C   UNL     1       6.235  18.004  20.612  0.00  0.00    +0.000 C 
ATOM     25  C   UNL     1       6.579  16.642  20.015  0.00  0.00    +0.000 C 
ENDBRANCH   1  25
BRANCH   4  26
ATOM     26  N   UNL     1      10.201  13.388  21.360  0.00  0.00    +0.000 N 
ATOM     27  H   UNL     1      10.720  13.048  22.162  0.00  0.00    +0.000 HD
BRANCH  26  28
ATOM     28  C   UNL     1      10.243  12.559  20.244  0.00  0.00    +0.000 A 
ATOM     29  C   UNL     1      11.094  12.761  19.152  0.00  0.00    +0.000 A 
ATOM     30  C   UNL     1      11.023  11.949  18.014  0.00  0.00    +0.000 A 
ATOM     31  C   UNL     1      10.124  10.889  17.965  0.00  0.00    +0.000 A 
ATOM     32  C   UNL     1       9.336  10.611  19.075  0.00  0.00    +0.000 A 
ATOM     33  C   UNL     1       9.413  11.427  20.210  0.00  0.00    +0.000 A 
ENDBRANCH  26  28
ENDBRANCH   4  26
TORSDOF 4
ENDMDL
MODEL 4
REMARK VINA RESULT:      -6.5      5.446      9.434
REMARK  Name = 
REMARK  6 active torsions:
REMARK  status: ('A' for Active; 'I' for Inactive)
REMARK    1  A    between atoms: C_1  and  C_2
REMARK    2  A    between atoms: C_2  and  C_3
REMARK    3  A    between atoms: C_4  and  C_5
REMARK    4  A    between atoms: C_6  and  N_7
REMARK    5  A    between atoms: N_7  and  C_8
REMARK    6  A    between atoms: N_23  and  C_24
REMARK                            x       y       z     vdW  Elec       q    Type
REMARK                         _______ _______ _______ _____ _____    ______ ____
ROOT
ATOM      1  C   UNL     1       1.191  10.414  18.978  0.00  0.00    +0.000 C 
ATOM      2  C   UNL     1       1.782  11.817  19.346  0.00  0.00    +0.000 C 
ATOM      3  C   UNL     1       2.438  12.563  18.174  0.00  0.00    +0.000 C 
ATOM      4  C   UNL     1       0.625  12.631  19.971  0.00  0.00    +0.000 C 
ATOM      5  C   UNL     1       0.013  11.860  21.129  0.00  0.00    +0.000 A 
ATOM      6  C   UNL     1      -0.691  12.590  22.126  0.00  0.00    +0.000 A 
ATOM      7  C   UNL     1      -1.301  11.961  23.207  0.00  0.00    +0.000 A 
ATOM      8  C   UNL     1      -1.278  10.584  23.276  0.00  0.00    +0.000 A 
ATOM      9  C   UNL     1      -0.613   9.850  22.290  0.00  0.00    +0.000 A 
ATOM     10  C   UNL     1       0.086  10.448  21.221  0.00  0.00    +0.000 A 
ATOM     11  N   UNL     1       0.898   9.668  20.267  0.00  0.00    +0.000 N 
ATOM     12  C   UNL     1       1.210   8.325  20.570  0.00  0.00    +0.000 C 
ATOM     13  O   UNL     1       0.651   7.645  21.428  0.00  0.00    +0.000 OA
ATOM     14  N   UNL     1       2.295   7.773  19.916  0.00  0.00    +0.000 N 
ATOM     15  H   UNL     1       3.074   8.403  19.802  0.00  0.00    +0.000 HD
ENDROOT
BRANCH  14  16
ATOM     16  C   UNL     1       2.596   6.387  19.981  0.00  0.00    +0.000 A 
ATOM     17  C   UNL     1       1.814   5.483  20.711  0.00  0.00    +0.000 A 
ATOM     18  C   UNL     1       2.174   4.136  20.793  0.00  0.00    +0.000 A 
ATOM     19 CL   UNL     1       1.208   3.037  21.705  0.00  0.00    +0.000 Cl
ATOM     20  C   UNL     1       3.311   3.669  20.144  0.00  0.00    +0.000 A 
ATOM     21  C   UNL     1       4.071   4.563  19.395  0.00  0.00    +0.000 A 
ATOM     22 CL   UNL     1       5.498   4.008  18.607  0.00  0.00    +0.000 Cl
ATOM     23  C   UNL     1       3.706   5.907  19.291  0.00  0.00    +0.000 A 
ENDBRANCH  14  16
BRANCH   1  25
ATOM     24  C   UNL     1       1.365   8.471  17.227  0.00  0.00    +0.000 C 
ATOM     25  C   UNL     1       1.991   9.717  17.845  0.00  0.00    +0.000 C 
ENDBRANCH   1  25
BRANCH   4  26
ATOM     26  N   UNL     1       1.076  13.955  20.438  0.00  0.00    +0.000 N 
ATOM     27  H   UNL     1       1.936  13.919  20.976  0.00  0.00    +0.000 HD
BRANCH  26  28
ATOM     28  C   UNL     1       0.886  15.133  19.722  0.00  0.00    +0.000 A 
ATOM     29  C   UNL     1      -0.351  15.548  19.217  0.00  0.00    +0.000 A 
ATOM     30  C   UNL     1      -0.464  16.694  18.420  0.00  0.00    +0.000 A 
ATOM     31  C   UNL     1       0.657  17.471  18.148  0.00  0.00    +0.000 A 
ATOM     32  C   UNL     1       1.878  17.130  18.717  0.00  0.00    +0.000 A 
ATOM     33  C   UNL     1       1.983  15.982  19.514  0.00  0.00    +0.000 A 
ENDBRANCH  26  28
ENDBRANCH   4  26
TORSDOF 4
ENDMDL
MODEL 5
REMARK VINA RESULT:      -6.4      7.206      9.330
REMARK  Name = 
REMARK  6 active torsions:
REMARK  status: ('A' for Active; 'I' for Inactive)
REMARK    1  A    between atoms: C_1  and  C_2
REMARK    2  A    between atoms: C_2  and  C_3
REMARK    3  A    between atoms: C_4  and  C_5
REMARK    4  A    between atoms: C_6  and  N_7
REMARK    5  A    between atoms: N_7  and  C_8
REMARK    6  A    between atoms: N_23  and  C_24
REMARK                            x       y       z     vdW  Elec       q    Type
REMARK                         _______ _______ _______ _____ _____    ______ ____
ROOT
ATOM      1  C   UNL     1       7.076  15.553  21.015  0.00  0.00    +0.000 C 
ATOM      2  C   UNL     1       8.321  14.771  20.475  0.00  0.00    +0.000 C 
ATOM      3  C   UNL     1       9.275  15.606  19.607  0.00  0.00    +0.000 C 
ATOM      4  C   UNL     1       9.038  14.179  21.711  0.00  0.00    +0.000 C 
ATOM      5  C   UNL     1       8.060  13.355  22.533  0.00  0.00    +0.000 A 
ATOM      6  C   UNL     1       8.583  12.348  23.391  0.00  0.00    +0.000 A 
ATOM      7  C   UNL     1       7.761  11.566  24.196  0.00  0.00    +0.000 A 
ATOM      8  C   UNL     1       6.406  11.818  24.209  0.00  0.00    +0.000 A 
ATOM      9  C   UNL     1       5.878  12.822  23.391  0.00  0.00    +0.000 A 
ATOM     10  C   UNL     1       6.662  13.586  22.502  0.00  0.00    +0.000 A 
ATOM     11  N   UNL     1       6.075  14.544  21.547  0.00  0.00    +0.000 N 
ATOM     12  C   UNL     1       4.682  14.516  21.317  0.00  0.00    +0.000 C 
ATOM     13  O   UNL     1       3.858  13.949  22.032  0.00  0.00    +0.000 OA
ATOM     14  N   UNL     1       4.231  15.088  20.142  0.00  0.00    +0.000 N 
ATOM     15  H   UNL     1       4.824  14.917  19.344  0.00  0.00    +0.000 HD
ENDROOT
BRANCH  14  16
ATOM     16  C   UNL     1       2.852  15.300  19.882  0.00  0.00    +0.000 A 
ATOM     17  C   UNL     1       2.188  16.472  20.262  0.00  0.00    +0.000 A 
ATOM     18  C   UNL     1       0.817  16.620  20.033  0.00  0.00    +0.000 A 
ATOM     19 CL   UNL     1       0.011  18.066  20.517  0.00  0.00    +0.000 Cl
ATOM     20  C   UNL     1       0.092  15.607  19.417  0.00  0.00    +0.000 A 
ATOM     21  C   UNL     1       0.759  14.455  19.014  0.00  0.00    +0.000 A 
ATOM     22 CL   UNL     1      -0.129  13.178  18.274  0.00  0.00    +0.000 Cl
ATOM     23  C   UNL     1       2.133  14.307  19.220  0.00  0.00    +0.000 A 
ENDBRANCH  14  16
BRANCH   1  25
ATOM     24  C   UNL     1       6.328  18.038  20.642  0.00  0.00    +0.000 C 
ATOM     25  C   UNL     1       6.610  16.665  20.037  0.00  0.00    +0.000 C 
ENDBRANCH   1  25
BRANCH   4  26
ATOM     26  N   UNL     1      10.191  13.344  21.328  0.00  0.00    +0.000 N 
ATOM     27  H   UNL     1      10.723  13.006  22.122  0.00  0.00    +0.000 HD
BRANCH  26  28
ATOM     28  C   UNL     1      10.201  12.503  20.218  0.00  0.00    +0.000 A 
ATOM     29  C   UNL     1      10.985  12.721  19.080  0.00  0.00    +0.000 A 
ATOM     30  C   UNL     1      10.880  11.893  17.956  0.00  0.00    +0.000 A 
ATOM     31  C   UNL     1      10.016  10.804  17.966  0.00  0.00    +0.000 A 
ATOM     32  C   UNL     1       9.298  10.513  19.120  0.00  0.00    +0.000 A 
ATOM     33  C   UNL     1       9.409  11.345  20.241  0.00  0.00    +0.000 A 
ENDBRANCH  26  28
ENDBRANCH   4  26
TORSDOF 4
ENDMDL
MODEL 6
REMARK VINA RESULT:      -6.3      4.263      8.963
REMARK  Name = 
REMARK  6 active torsions:
REMARK  status: ('A' for Active; 'I' for Inactive)
REMARK    1  A    between atoms: C_1  and  C_2
REMARK    2  A    between atoms: C_2  and  C_3
REMARK    3  A    between atoms: C_4  and  C_5
REMARK    4  A    between atoms: C_6  and  N_7
REMARK    5  A    between atoms: N_7  and  C_8
REMARK    6  A    between atoms: N_23  and  C_24
REMARK                            x       y       z     vdW  Elec       q    Type
REMARK                         _______ _______ _______ _____ _____    ______ ____
ROOT
ATOM      1  C   UNL     1      -0.232  11.677  19.826  0.00  0.00    +0.000 C 
ATOM      2  C   UNL     1      -1.465  11.904  20.765  0.00  0.00    +0.000 C 
ATOM      3  C   UNL     1      -1.160  12.700  22.043  0.00  0.00    +0.000 C 
ATOM      4  C   UNL     1      -2.550  12.592  19.904  0.00  0.00    +0.000 C 
ATOM      5  C   UNL     1      -2.825  11.766  18.658  0.00  0.00    +0.000 A 
ATOM      6  C   UNL     1      -4.081  11.927  18.008  0.00  0.00    +0.000 A 
ATOM      7  C   UNL     1      -4.405  11.229  16.849  0.00  0.00    +0.000 A 
ATOM      8  C   UNL     1      -3.456  10.408  16.278  0.00  0.00    +0.000 A 
ATOM      9  C   UNL     1      -2.207  10.259  16.890  0.00  0.00    +0.000 A 
ATOM     10  C   UNL     1      -1.864  10.884  18.106  0.00  0.00    +0.000 A 
ATOM     11  N   UNL     1      -0.596  10.611  18.810  0.00  0.00    +0.000 N 
ATOM     12  C   UNL     1       0.184   9.504  18.411  0.00  0.00    +0.000 C 
ATOM     13  O   UNL     1       0.053   8.889  17.354  0.00  0.00    +0.000 OA
ATOM     14  N   UNL     1       1.097   9.020  19.329  0.00  0.00    +0.000 N 
ATOM     15  H   UNL     1       0.765   9.018  20.282  0.00  0.00    +0.000 HD
ENDROOT
BRANCH  14  16
ATOM     16  C   UNL     1       2.071   8.045  18.989  0.00  0.00    +0.000 A 
ATOM     17  C   UNL     1       2.890   8.165  17.860  0.00  0.00    +0.000 A 
ATOM     18  C   UNL     1       3.801   7.158  17.531  0.00  0.00    +0.000 A 
ATOM     19 CL   UNL     1       4.795   7.314  16.131  0.00  0.00    +0.000 Cl
ATOM     20  C   UNL     1       3.915   6.024  18.326  0.00  0.00    +0.000 A 
ATOM     21  C   UNL     1       3.121   5.919  19.464  0.00  0.00    +0.000 A 
ATOM     22 CL   UNL     1       3.229   4.508  20.445  0.00  0.00    +0.000 Cl
ATOM     23  C   UNL     1       2.223   6.931  19.811  0.00  0.00    +0.000 A 
ENDBRANCH  14  16
BRANCH   1  25
ATOM     24  C   UNL     1       2.101  12.705  20.439  0.00  0.00    +0.000 C 
ATOM     25  C   UNL     1       1.099  11.569  20.619  0.00  0.00    +0.000 C 
ENDBRANCH   1  25
BRANCH   4  26
ATOM     26  N   UNL     1      -3.803  12.788  20.657  0.00  0.00    +0.000 N 
ATOM     27  H   UNL     1      -4.172  11.930  21.053  0.00  0.00    +0.000 HD
BRANCH  26  28
ATOM     28  C   UNL     1      -4.095  13.938  21.384  0.00  0.00    +0.000 A 
ATOM     29  C   UNL     1      -3.778  15.233  20.959  0.00  0.00    +0.000 A 
ATOM     30  C   UNL     1      -4.008  16.345  21.777  0.00  0.00    +0.000 A 
ATOM     31  C   UNL     1      -4.602  16.185  23.025  0.00  0.00    +0.000 A 
ATOM     32  C   UNL     1      -5.012  14.920  23.428  0.00  0.00    +0.000 A 
ATOM     33  C   UNL     1      -4.779  13.812  22.603  0.00  0.00    +0.000 A 
ENDBRANCH  26  28
ENDBRANCH   4  26
TORSDOF 4
ENDMDL
MODEL 7
REMARK VINA RESULT:      -6.1      5.009      6.027
REMARK  Name = 
REMARK  6 active torsions:
REMARK  status: ('A' for Active; 'I' for Inactive)
REMARK    1  A    between atoms: C_1  and  C_2
REMARK    2  A    between atoms: C_2  and  C_3
REMARK    3  A    between atoms: C_4  and  C_5
REMARK    4  A    between atoms: C_6  and  N_7
REMARK    5  A    between atoms: N_7  and  C_8
REMARK    6  A    between atoms: N_23  and  C_24
REMARK                            x       y       z     vdW  Elec       q    Type
REMARK                         _______ _______ _______ _____ _____    ______ ____
ROOT
ATOM      1  C   UNL     1       0.972  14.538  20.188  0.00  0.00    +0.000 C 
ATOM      2  C   UNL     1       2.350  15.266  20.342  0.00  0.00    +0.000 C 
ATOM      3  C   UNL     1       3.462  14.409  20.966  0.00  0.00    +0.000 C 
ATOM      4  C   UNL     1       2.738  15.776  18.935  0.00  0.00    +0.000 C 
ATOM      5  C   UNL     1       1.614  16.624  18.362  0.00  0.00    +0.000 A 
ATOM      6  C   UNL     1       1.936  17.571  17.349  0.00  0.00    +0.000 A 
ATOM      7  C   UNL     1       0.965  18.371  16.754  0.00  0.00    +0.000 A 
ATOM      8  C   UNL     1      -0.355  18.194  17.111  0.00  0.00    +0.000 A 
ATOM      9  C   UNL     1      -0.691  17.250  18.086  0.00  0.00    +0.000 A 
ATOM     10  C   UNL     1       0.266  16.474  18.771  0.00  0.00    +0.000 A 
ATOM     11  N   UNL     1      -0.088  15.582  19.893  0.00  0.00    +0.000 N 
ATOM     12  C   UNL     1      -1.367  15.696  20.480  0.00  0.00    +0.000 C 
ATOM     13  O   UNL     1      -2.325  16.284  19.982  0.00  0.00    +0.000 OA
ATOM     14  N   UNL     1      -1.514  15.190  21.758  0.00  0.00    +0.000 N 
ATOM     15  H   UNL     1      -0.723  15.355  22.362  0.00  0.00    +0.000 HD
ENDROOT
BRANCH  14  16
ATOM     16  C   UNL     1      -2.782  15.065  22.383  0.00  0.00    +0.000 A 
ATOM     17  C   UNL     1      -3.692  14.057  22.041  0.00  0.00    +0.000 A 
ATOM     18  C   UNL     1      -4.951  13.999  22.643  0.00  0.00    +0.000 A 
ATOM     19 CL   UNL     1      -6.064  12.758  22.203  0.00  0.00    +0.000 Cl
ATOM     20  C   UNL     1      -5.318  14.939  23.599  0.00  0.00    +0.000 A 
ATOM     21  C   UNL     1      -4.403  15.923  23.959  0.00  0.00    +0.000 A 
ATOM     22 CL   UNL     1      -4.852  17.112  25.121  0.00  0.00    +0.000 Cl
ATOM     23  C   UNL     1      -3.135  15.975  23.376  0.00  0.00    +0.000 A 
ENDBRANCH  14  16
BRANCH   1  25
ATOM     24  C   UNL     1       0.431  12.061  20.855  0.00  0.00    +0.000 C 
ATOM     25  C   UNL     1       0.734  13.487  21.306  0.00  0.00    +0.000 C 
ENDBRANCH   1  25
BRANCH   4  26
ATOM     26  N   UNL     1       3.988  16.557  18.960  0.00  0.00    +0.000 N 
ATOM     27  H   UNL     1       4.028  17.227  19.721  0.00  0.00    +0.000 HD
BRANCH  26  28
ATOM     28  C   UNL     1       5.223  16.051  18.564  0.00  0.00    +0.000 A 
ATOM     29  C   UNL     1       5.391  14.828  17.905  0.00  0.00    +0.000 A 
ATOM     30  C   UNL     1       6.665  14.325  17.618  0.00  0.00    +0.000 A 
ATOM     31  C   UNL     1       7.799  15.060  17.949  0.00  0.00    +0.000 A 
ATOM     32  C   UNL     1       7.653  16.320  18.518  0.00  0.00    +0.000 A 
ATOM     33  C   UNL     1       6.375  16.816  18.801  0.00  0.00    +0.000 A 
ENDBRANCH  26  28
ENDBRANCH   4  26
TORSDOF 4
ENDMDL
MODEL 8
REMARK VINA RESULT:      -6.1      6.582      8.785
REMARK  Name = 
REMARK  6 active torsions:
REMARK  status: ('A' for Active; 'I' for Inactive)
REMARK    1  A    between atoms: C_1  and  C_2
REMARK    2  A    between atoms: C_2  and  C_3
REMARK    3  A    between atoms: C_4  and  C_5
REMARK    4  A    between atoms: C_6  and  N_7
REMARK    5  A    between atoms: N_7  and  C_8
REMARK    6  A    between atoms: N_23  and  C_24
REMARK                            x       y       z     vdW  Elec       q    Type
REMARK                         _______ _______ _______ _____ _____    ______ ____
ROOT
ATOM      1  C   UNL     1       5.229  15.192  19.306  0.00  0.00    +0.000 C 
ATOM      2  C   UNL     1       6.635  14.580  18.986  0.00  0.00    +0.000 C 
ATOM      3  C   UNL     1       7.030  14.623  17.502  0.00  0.00    +0.000 C 
ATOM      4  C   UNL     1       7.654  15.330  19.874  0.00  0.00    +0.000 C 
ATOM      5  C   UNL     1       7.228  15.254  21.331  0.00  0.00    +0.000 A 
ATOM      6  C   UNL     1       8.224  15.423  22.333  0.00  0.00    +0.000 A 
ATOM      7  C   UNL     1       7.917  15.391  23.690  0.00  0.00    +0.000 A 
ATOM      8  C   UNL     1       6.599  15.257  24.072  0.00  0.00    +0.000 A 
ATOM      9  C   UNL     1       5.605  15.115  23.099  0.00  0.00    +0.000 A 
ATOM     10  C   UNL     1       5.878  15.063  21.717  0.00  0.00    +0.000 A 
ATOM     11  N   UNL     1       4.838  14.775  20.711  0.00  0.00    +0.000 N 
ATOM     12  C   UNL     1       3.588  14.278  21.141  0.00  0.00    +0.000 C 
ATOM     13  O   UNL     1       3.175  14.306  22.298  0.00  0.00    +0.000 OA
ATOM     14  N   UNL     1       2.821  13.619  20.198  0.00  0.00    +0.000 N 
ATOM     15  H   UNL     1       3.349  13.032  19.571  0.00  0.00    +0.000 HD
ENDROOT
BRANCH  14  16
ATOM     16  C   UNL     1       1.474  13.244  20.444  0.00  0.00    +0.000 A 
ATOM     17  C   UNL     1       0.423  14.169  20.425  0.00  0.00    +0.000 A 
ATOM     18  C   UNL     1      -0.883  13.768  20.724  0.00  0.00    +0.000 A 
ATOM     19 CL   UNL     1      -2.165  14.920  20.708  0.00  0.00    +0.000 Cl
ATOM     20  C   UNL     1      -1.159  12.442  21.036  0.00  0.00    +0.000 A 
ATOM     21  C   UNL     1      -0.118  11.519  21.026  0.00  0.00    +0.000 A 
ATOM     22 CL   UNL     1      -0.437   9.878  21.437  0.00  0.00    +0.000 Cl
ATOM     23  C   UNL     1       1.186  11.908  20.709  0.00  0.00    +0.000 A 
ENDBRANCH  14  16
BRANCH   1  25
ATOM     24  C   UNL     1       3.443  16.241  17.699  0.00  0.00    +0.000 C 
ATOM     25  C   UNL     1       4.227  15.007  18.135  0.00  0.00    +0.000 C 
ENDBRANCH   1  25
BRANCH   4  26
ATOM     26  N   UNL     1       9.016  14.787  19.725  0.00  0.00    +0.000 N 
ATOM     27  H   UNL     1       9.714  15.304  20.248  0.00  0.00    +0.000 HD
BRANCH  26  28
ATOM     28  C   UNL     1       9.294  13.432  19.564  0.00  0.00    +0.000 A 
ATOM     29  C   UNL     1       9.726  12.861  18.362  0.00  0.00    +0.000 A 
ATOM     30  C   UNL     1       9.895  11.477  18.234  0.00  0.00    +0.000 A 
ATOM     31  C   UNL     1       9.675  10.641  19.323  0.00  0.00    +0.000 A 
ATOM     32  C   UNL     1       9.338  11.196  20.552  0.00  0.00    +0.000 A 
ATOM     33  C   UNL     1       9.171  12.581  20.673  0.00  0.00    +0.000 A 
ENDBRANCH  26  28
ENDBRANCH   4  26
TORSDOF 4
ENDMDL
MODEL 9
REMARK VINA RESULT:      -6.1      4.410      8.656
REMARK  Name = 
REMARK  6 active torsions:
REMARK  status: ('A' for Active; 'I' for Inactive)
REMARK    1  A    between atoms: C_1  and  C_2
REMARK    2  A    between atoms: C_2  and  C_3
REMARK    3  A    between atoms: C_4  and  C_5
REMARK    4  A    between atoms: C_6  and  N_7
REMARK    5  A    between atoms: N_7  and  C_8
REMARK    6  A    between atoms: N_23  and  C_24
REMARK                            x       y       z     vdW  Elec       q    Type
REMARK                         _______ _______ _______ _____ _____    ______ ____
ROOT
ATOM      1  C   UNL     1       0.450  12.257  18.865  0.00  0.00    +0.000 C 
ATOM      2  C   UNL     1      -0.298  13.008  20.018  0.00  0.00    +0.000 C 
ATOM      3  C   UNL     1       0.484  14.179  20.633  0.00  0.00    +0.000 C 
ATOM      4  C   UNL     1      -1.655  13.465  19.437  0.00  0.00    +0.000 C 
ATOM      5  C   UNL     1      -2.396  12.275  18.849  0.00  0.00    +0.000 A 
ATOM      6  C   UNL     1      -3.811  12.358  18.723  0.00  0.00    +0.000 A 
ATOM      7  C   UNL     1      -4.563  11.324  18.175  0.00  0.00    +0.000 A 
ATOM      8  C   UNL     1      -3.911  10.216  17.679  0.00  0.00    +0.000 A 
ATOM      9  C   UNL     1      -2.518  10.130  17.771  0.00  0.00    +0.000 A 
ATOM     10  C   UNL     1      -1.723  11.116  18.389  0.00  0.00    +0.000 A 
ATOM     11  N   UNL     1      -0.273  10.949  18.602  0.00  0.00    +0.000 N 
ATOM     12  C   UNL     1       0.303   9.671  18.429  0.00  0.00    +0.000 C 
ATOM     13  O   UNL     1      -0.234   8.725  17.858  0.00  0.00    +0.000 OA
ATOM     14  N   UNL     1       1.522   9.448  19.041  0.00  0.00    +0.000 N 
ATOM     15  H   UNL     1       1.608   9.862  19.957  0.00  0.00    +0.000 HD
ENDROOT
BRANCH  14  16
ATOM     16  C   UNL     1       2.295   8.284  18.790  0.00  0.00    +0.000 A 
ATOM     17  C   UNL     1       3.124   8.162  17.668  0.00  0.00    +0.000 A 
ATOM     18  C   UNL     1       3.829   6.980  17.429  0.00  0.00    +0.000 A 
ATOM     19 CL   UNL     1       4.838   6.841  16.038  0.00  0.00    +0.000 Cl
ATOM     20  C   UNL     1       3.725   5.907  18.307  0.00  0.00    +0.000 A 
ATOM     21  C   UNL     1       2.923   6.040  19.436  0.00  0.00    +0.000 A 
ATOM     22 CL   UNL     1       2.759   4.712  20.520  0.00  0.00    +0.000 Cl
ATOM     23  C   UNL     1       2.231   7.226  19.693  0.00  0.00    +0.000 A 
ENDBRANCH  14  16
BRANCH   1  25
ATOM     24  C   UNL     1       2.811  13.021  18.018  0.00  0.00    +0.000 C 
ATOM     25  C   UNL     1       1.991  12.265  19.060  0.00  0.00    +0.000 C 
ENDBRANCH   1  25
BRANCH   4  26
ATOM     26  N   UNL     1      -2.496  14.120  20.456  0.00  0.00    +0.000 N 
ATOM     27  H   UNL     1      -3.182  14.755  20.063  0.00  0.00    +0.000 HD
BRANCH  26  28
ATOM     28  C   UNL     1      -2.881  13.510  21.646  0.00  0.00    +0.000 A 
ATOM     29  C   UNL     1      -2.121  12.540  22.309  0.00  0.00    +0.000 A 
ATOM     30  C   UNL     1      -2.605  11.892  23.451  0.00  0.00    +0.000 A 
ATOM     31  C   UNL     1      -3.846  12.234  23.978  0.00  0.00    +0.000 A 
ATOM     32  C   UNL     1      -4.576  13.261  23.392  0.00  0.00    +0.000 A 
ATOM     33  C   UNL     1      -4.085  13.906  22.250  0.00  0.00    +0.000 A 
ENDBRANCH  26  28
ENDBRANCH   4  26
TORSDOF 4
ENDMDL
