MODEL 1
REMARK VINA RESULT:      -8.7      0.000      0.000
REMARK  Name = 
REMARK  6 active torsions:
REMARK  status: ('A' for Active; 'I' for Inactive)
REMARK    1  A    between atoms: C_2  and  C_3
REMARK    2  A    between atoms: C_2  and  C_18
REMARK    3  A    between atoms: N_7  and  C_8
REMARK    4  A    between atoms: C_8  and  C_9
REMARK    5  A    between atoms: C_9  and  C_10
REMARK    6  A    between atoms: C_23  and  C_24
REMARK                            x       y       z     vdW  Elec       q    Type
REMARK                         _______ _______ _______ _____ _____    ______ ____
ROOT
ATOM      1  O   UNL     1       4.632   4.106  16.755  0.00  0.00    +0.000 OA
ATOM      2  C   UNL     1       4.793   5.205  17.289  0.00  0.00    +0.000 C 
ENDROOT
BRANCH   2   3
ATOM      3  C   UNL     1       3.753   5.873  18.066  0.00  0.00    +0.000 A 
ATOM      4  N   UNL     1       3.176   5.382  19.144  0.00  0.00    +0.000 NA
ATOM      5  C   UNL     1       2.358   6.340  19.726  0.00  0.00    +0.000 A 
ATOM      6  C   UNL     1       1.615   6.195  20.912  0.00  0.00    +0.000 A 
ATOM      7  C   UNL     1       0.850   7.270  21.398  0.00  0.00    +0.000 A 
ATOM      8  C   UNL     1       0.794   8.507  20.737  0.00  0.00    +0.000 A 
ATOM      9  C   UNL     1       1.534   8.641  19.542  0.00  0.00    +0.000 A 
ATOM     10  C   UNL     1       2.302   7.562  19.060  0.00  0.00    +0.000 A 
ATOM     11  S   UNL     1       3.304   7.485  17.663  0.00  0.00    +0.000 S 
BRANCH   8  12
ATOM     12  C   UNL     1       0.001   9.645  21.276  0.00  0.00    +0.000 A 
ATOM     13  C   UNL     1      -0.467  10.683  20.444  0.00  0.00    +0.000 A 
ATOM     14  C   UNL     1      -1.235  11.738  20.950  0.00  0.00    +0.000 A 
ATOM     15  C   UNL     1      -1.558  11.767  22.298  0.00  0.00    +0.000 A 
ATOM     16  F   UNL     1      -2.306  12.768  22.781  0.00  0.00    +0.000 F 
ATOM     17  C   UNL     1      -1.114  10.769  23.151  0.00  0.00    +0.000 A 
ATOM     18  C   UNL     1      -0.335   9.724  22.645  0.00  0.00    +0.000 A 
ENDBRANCH   8  12
ENDBRANCH   2   3
BRANCH   2  19
ATOM     19  C   UNL     1       6.035   5.941  17.184  0.00  0.00    +0.000 A 
ATOM     20  N   UNL     1       6.769   6.164  16.112  0.00  0.00    +0.000 NA
ATOM     21  N   UNL     1       7.768   7.041  16.500  0.00  0.00    +0.000 NA
ATOM     22  C   UNL     1       7.585   7.280  17.782  0.00  0.00    +0.000 A 
ATOM     23  N   UNL     1       8.249   8.063  18.650  0.00  0.00    +0.000 N 
ATOM     24  O   UNL     1       6.499   6.627  18.284  0.00  0.00    +0.000 OA
ATOM     25  H   UNL     1       7.776   8.202  19.540  0.00  0.00    +0.000 HD
BRANCH  23  26
ATOM     26  C   UNL     1       8.930   9.245  18.129  0.00  0.00    +0.000 C 
BRANCH  26  27
ATOM     27  C   UNL     1       9.466  10.099  19.285  0.00  0.00    +0.000 C 
BRANCH  27  28
ATOM     28  C   UNL     1       9.900  11.479  18.856  0.00  0.00    +0.000 A 
ATOM     29  C   UNL     1      10.739  11.657  17.746  0.00  0.00    +0.000 A 
ATOM     30  C   UNL     1      11.150  12.940  17.368  0.00  0.00    +0.000 A 
ATOM     31  C   UNL     1      10.729  14.056  18.090  0.00  0.00    +0.000 A 
ATOM     32  C   UNL     1       9.888  13.892  19.192  0.00  0.00    +0.000 A 
ATOM     33  C   UNL     1       9.482  12.612  19.560  0.00  0.00    +0.000 A 
ATOM     34  F   UNL     1       8.675  12.474  20.622  0.00  0.00    +0.000 F 
ENDBRANCH  27  28
ENDBRANCH  26  27
ENDBRANCH  23  26
ENDBRANCH   2  19
TORSDOF 6
ENDMDL
MODEL 2
REMARK VINA RESULT:      -8.6      0.714      1.141
REMARK  Name = 
REMARK  6 active torsions:
REMARK  status: ('A' for Active; 'I' for Inactive)
REMARK    1  A    between atoms: C_2  and  C_3
REMARK    2  A    between atoms: C_2  and  C_18
REMARK    3  A    between atoms: N_7  and  C_8
REMARK    4  A    between atoms: C_8  and  C_9
REMARK    5  A    between atoms: C_9  and  C_10
REMARK    6  A    between atoms: C_23  and  C_24
REMARK                            x       y       z     vdW  Elec       q    Type
REMARK                         _______ _______ _______ _____ _____    ______ ____
ROOT
ATOM      1  O   UNL     1       4.413   4.139  16.441  0.00  0.00    +0.000 OA
ATOM      2  C   UNL     1       4.663   5.167  17.074  0.00  0.00    +0.000 C 
ENDROOT
BRANCH   2   3
ATOM      3  C   UNL     1       3.676   5.847  17.909  0.00  0.00    +0.000 A 
ATOM      4  N   UNL     1       3.106   5.334  18.982  0.00  0.00    +0.000 NA
ATOM      5  C   UNL     1       2.350   6.302  19.628  0.00  0.00    +0.000 A 
ATOM      6  C   UNL     1       1.634   6.138  20.827  0.00  0.00    +0.000 A 
ATOM      7  C   UNL     1       0.933   7.224  21.381  0.00  0.00    +0.000 A 
ATOM      8  C   UNL     1       0.917   8.491  20.777  0.00  0.00    +0.000 A 
ATOM      9  C   UNL     1       1.631   8.644  19.568  0.00  0.00    +0.000 A 
ATOM     10  C   UNL     1       2.333   7.554  19.018  0.00  0.00    +0.000 A 
ATOM     11  S   UNL     1       3.293   7.493  17.591  0.00  0.00    +0.000 S 
BRANCH   8  12
ATOM     12  C   UNL     1       0.194   9.640  21.388  0.00  0.00    +0.000 A 
ATOM     13  C   UNL     1      -0.431   9.537  22.648  0.00  0.00    +0.000 A 
ATOM     14  C   UNL     1      -1.086  10.626  23.232  0.00  0.00    +0.000 A 
ATOM     15  C   UNL     1      -1.119  11.844  22.569  0.00  0.00    +0.000 A 
ATOM     16  F   UNL     1      -1.732  12.892  23.133  0.00  0.00    +0.000 F 
ATOM     17  C   UNL     1      -0.521  11.986  21.327  0.00  0.00    +0.000 A 
ATOM     18  C   UNL     1       0.122  10.891  20.740  0.00  0.00    +0.000 A 
ENDBRANCH   8  12
ENDBRANCH   2   3
BRANCH   2  19
ATOM     19  C   UNL     1       5.963   5.801  17.039  0.00  0.00    +0.000 A 
ATOM     20  N   UNL     1       6.778   5.945  16.012  0.00  0.00    +0.000 NA
ATOM     21  N   UNL     1       7.817   6.748  16.451  0.00  0.00    +0.000 NA
ATOM     22  C   UNL     1       7.575   7.025  17.715  0.00  0.00    +0.000 A 
ATOM     23  N   UNL     1       8.243   7.770  18.613  0.00  0.00    +0.000 N 
ATOM     24  O   UNL     1       6.411   6.469  18.157  0.00  0.00    +0.000 OA
ATOM     25  H   UNL     1       7.728   7.962  19.469  0.00  0.00    +0.000 HD
BRANCH  23  26
ATOM     26  C   UNL     1       9.048   8.885  18.120  0.00  0.00    +0.000 C 
BRANCH  26  27
ATOM     27  C   UNL     1       8.340  10.215  18.408  0.00  0.00    +0.000 C 
BRANCH  27  28
ATOM     28  C   UNL     1       9.286  11.321  18.804  0.00  0.00    +0.000 A 
ATOM     29  C   UNL     1       9.728  12.262  17.863  0.00  0.00    +0.000 A 
ATOM     30  C   UNL     1      10.621  13.272  18.238  0.00  0.00    +0.000 A 
ATOM     31  C   UNL     1      11.079  13.356  19.552  0.00  0.00    +0.000 A 
ATOM     32  C   UNL     1      10.639  12.430  20.499  0.00  0.00    +0.000 A 
ATOM     33  C   UNL     1       9.750  11.429  20.119  0.00  0.00    +0.000 A 
ATOM     34  F   UNL     1       9.340  10.548  21.043  0.00  0.00    +0.000 F 
ENDBRANCH  27  28
ENDBRANCH  26  27
ENDBRANCH  23  26
ENDBRANCH   2  19
TORSDOF 6
ENDMDL
MODEL 3
REMARK VINA RESULT:      -8.5      3.709      5.478
REMARK  Name = 
REMARK  6 active torsions:
REMARK  status: ('A' for Active; 'I' for Inactive)
REMARK    1  A    between atoms: C_2  and  C_3
REMARK    2  A    between atoms: C_2  and  C_18
REMARK    3  A    between atoms: N_7  and  C_8
REMARK    4  A    between atoms: C_8  and  C_9
REMARK    5  A    between atoms: C_9  and  C_10
REMARK    6  A    between atoms: C_23  and  C_24
REMARK                            x       y       z     vdW  Elec       q    Type
REMARK                         _______ _______ _______ _____ _____    ______ ____
ROOT
ATOM      1  O   UNL     1       2.432   9.434  17.242  0.00  0.00    +0.000 OA
ATOM      2  C   UNL     1       1.966   8.781  18.179  0.00  0.00    +0.000 C 
ENDROOT
BRANCH   2   3
ATOM      3  C   UNL     1       1.107   9.365  19.205  0.00  0.00    +0.000 A 
ATOM      4  N   UNL     1       0.865   8.832  20.386  0.00  0.00    +0.000 NA
ATOM      5  C   UNL     1       0.147   9.723  21.172  0.00  0.00    +0.000 A 
ATOM      6  C   UNL     1      -0.255   9.522  22.505  0.00  0.00    +0.000 A 
ATOM      7  C   UNL     1      -0.955  10.533  23.188  0.00  0.00    +0.000 A 
ATOM      8  C   UNL     1      -1.277  11.758  22.584  0.00  0.00    +0.000 A 
ATOM      9  C   UNL     1      -0.878  11.947  21.243  0.00  0.00    +0.000 A 
ATOM     10  C   UNL     1      -0.174  10.933  20.564  0.00  0.00    +0.000 A 
ATOM     11  S   UNL     1       0.442  10.933  18.957  0.00  0.00    +0.000 S 
BRANCH   8  12
ATOM     12  C   UNL     1      -1.995  12.830  23.326  0.00  0.00    +0.000 A 
ATOM     13  C   UNL     1      -1.360  14.037  23.685  0.00  0.00    +0.000 A 
ATOM     14  C   UNL     1      -2.045  15.054  24.358  0.00  0.00    +0.000 A 
ATOM     15  C   UNL     1      -3.384  14.885  24.677  0.00  0.00    +0.000 A 
ATOM     16  F   UNL     1      -4.046  15.864  25.307  0.00  0.00    +0.000 F 
ATOM     17  C   UNL     1      -4.045  13.713  24.346  0.00  0.00    +0.000 A 
ATOM     18  C   UNL     1      -3.353  12.693  23.685  0.00  0.00    +0.000 A 
ENDBRANCH   8  12
ENDBRANCH   2   3
BRANCH   2  19
ATOM     19  C   UNL     1       2.239   7.371  18.350  0.00  0.00    +0.000 A 
ATOM     20  N   UNL     1       1.713   6.349  17.705  0.00  0.00    +0.000 NA
ATOM     21  N   UNL     1       2.409   5.226  18.121  0.00  0.00    +0.000 NA
ATOM     22  C   UNL     1       3.299   5.637  19.001  0.00  0.00    +0.000 A 
ATOM     23  N   UNL     1       4.236   4.975  19.702  0.00  0.00    +0.000 N 
ATOM     24  O   UNL     1       3.260   6.986  19.191  0.00  0.00    +0.000 OA
ATOM     25  H   UNL     1       4.911   5.573  20.174  0.00  0.00    +0.000 HD
BRANCH  23  26
ATOM     26  C   UNL     1       4.798   3.759  19.122  0.00  0.00    +0.000 C 
BRANCH  26  27
ATOM     27  C   UNL     1       5.521   4.085  17.808  0.00  0.00    +0.000 C 
BRANCH  27  28
ATOM     28  C   UNL     1       6.378   5.324  17.892  0.00  0.00    +0.000 A 
ATOM     29  C   UNL     1       7.443   5.403  18.802  0.00  0.00    +0.000 A 
ATOM     30  C   UNL     1       8.219   6.564  18.883  0.00  0.00    +0.000 A 
ATOM     31  C   UNL     1       7.946   7.654  18.058  0.00  0.00    +0.000 A 
ATOM     32  C   UNL     1       6.895   7.584  17.143  0.00  0.00    +0.000 A 
ATOM     33  C   UNL     1       6.128   6.425  17.067  0.00  0.00    +0.000 A 
ATOM     34  F   UNL     1       5.121   6.376  16.182  0.00  0.00    +0.000 F 
ENDBRANCH  27  28
ENDBRANCH  26  27
ENDBRANCH  23  26
ENDBRANCH   2  19
TORSDOF 6
ENDMDL
MODEL 4
REMARK VINA RESULT:      -8.5      4.722      6.052
REMARK  Name = 
REMARK  6 active torsions:
REMARK  status: ('A' for Active; 'I' for Inactive)
REMARK    1  A    between atoms: C_2  and  C_3
REMARK    2  A    between atoms: C_2  and  C_18
REMARK    3  A    between atoms: N_7  and  C_8
REMARK    4  A    between atoms: C_8  and  C_9
REMARK    5  A    between atoms: C_9  and  C_10
REMARK    6  A    between atoms: C_23  and  C_24
REMARK                            x       y       z     vdW  Elec       q    Type
REMARK                         _______ _______ _______ _____ _____    ______ ____
ROOT
ATOM      1  O   UNL     1       1.821   4.247  20.762  0.00  0.00    +0.000 OA
ATOM      2  C   UNL     1       2.484   4.934  19.981  0.00  0.00    +0.000 C 
ENDROOT
BRANCH   2   3
ATOM      3  C   UNL     1       2.268   6.367  19.802  0.00  0.00    +0.000 A 
ATOM      4  N   UNL     1       2.564   7.049  18.714  0.00  0.00    +0.000 NA
ATOM      5  C   UNL     1       2.078   8.346  18.818  0.00  0.00    +0.000 A 
ATOM      6  C   UNL     1       2.165   9.350  17.837  0.00  0.00    +0.000 A 
ATOM      7  C   UNL     1       1.596  10.614  18.074  0.00  0.00    +0.000 A 
ATOM      8  C   UNL     1       0.933  10.924  19.272  0.00  0.00    +0.000 A 
ATOM      9  C   UNL     1       0.860   9.913  20.255  0.00  0.00    +0.000 A 
ATOM     10  C   UNL     1       1.428   8.646  20.012  0.00  0.00    +0.000 A 
ATOM     11  S   UNL     1       1.444   7.255  21.024  0.00  0.00    +0.000 S 
BRANCH   8  12
ATOM     12  C   UNL     1       0.313  12.257  19.499  0.00  0.00    +0.000 A 
ATOM     13  C   UNL     1       0.390  13.285  18.537  0.00  0.00    +0.000 A 
ATOM     14  C   UNL     1      -0.218  14.528  18.743  0.00  0.00    +0.000 A 
ATOM     15  C   UNL     1      -0.925  14.762  19.913  0.00  0.00    +0.000 A 
ATOM     16  F   UNL     1      -1.520  15.947  20.105  0.00  0.00    +0.000 F 
ATOM     17  C   UNL     1      -1.021  13.780  20.886  0.00  0.00    +0.000 A 
ATOM     18  C   UNL     1      -0.400  12.543  20.683  0.00  0.00    +0.000 A 
ENDBRANCH   8  12
ENDBRANCH   2   3
BRANCH   2  19
ATOM     19  C   UNL     1       3.535   4.374  19.160  0.00  0.00    +0.000 A 
ATOM     20  N   UNL     1       3.432   3.499  18.179  0.00  0.00    +0.000 NA
ATOM     21  N   UNL     1       4.691   3.402  17.611  0.00  0.00    +0.000 NA
ATOM     22  C   UNL     1       5.477   4.210  18.291  0.00  0.00    +0.000 A 
ATOM     23  N   UNL     1       6.781   4.512  18.160  0.00  0.00    +0.000 N 
ATOM     24  O   UNL     1       4.814   4.870  19.283  0.00  0.00    +0.000 OA
ATOM     25  H   UNL     1       7.087   5.311  18.710  0.00  0.00    +0.000 HD
BRANCH  23  26
ATOM     26  C   UNL     1       7.377   4.422  16.829  0.00  0.00    +0.000 C 
BRANCH  26  27
ATOM     27  C   UNL     1       6.635   5.346  15.855  0.00  0.00    +0.000 C 
BRANCH  27  28
ATOM     28  C   UNL     1       6.472   4.752  14.477  0.00  0.00    +0.000 A 
ATOM     29  C   UNL     1       5.339   3.993  14.151  0.00  0.00    +0.000 A 
ATOM     30  C   UNL     1       5.207   3.432  12.876  0.00  0.00    +0.000 A 
ATOM     31  C   UNL     1       6.198   3.624  11.915  0.00  0.00    +0.000 A 
ATOM     32  C   UNL     1       7.327   4.384  12.226  0.00  0.00    +0.000 A 
ATOM     33  C   UNL     1       7.450   4.940  13.496  0.00  0.00    +0.000 A 
ATOM     34  F   UNL     1       8.541   5.667  13.777  0.00  0.00    +0.000 F 
ENDBRANCH  27  28
ENDBRANCH  26  27
ENDBRANCH  23  26
ENDBRANCH   2  19
TORSDOF 6
ENDMDL
MODEL 5
REMARK VINA RESULT:      -8.4      4.653      6.724
REMARK  Name = 
REMARK  6 active torsions:
REMARK  status: ('A' for Active; 'I' for Inactive)
REMARK    1  A    between atoms: C_2  and  C_3
REMARK    2  A    between atoms: C_2  and  C_18
REMARK    3  A    between atoms: N_7  and  C_8
REMARK    4  A    between atoms: C_8  and  C_9
REMARK    5  A    between atoms: C_9  and  C_10
REMARK    6  A    between atoms: C_23  and  C_24
REMARK                            x       y       z     vdW  Elec       q    Type
REMARK                         _______ _______ _______ _____ _____    ______ ____
ROOT
ATOM      1  O   UNL     1       4.910   3.166  19.413  0.00  0.00    +0.000 OA
ATOM      2  C   UNL     1       4.950   4.249  18.825  0.00  0.00    +0.000 C 
ENDROOT
BRANCH   2   3
ATOM      3  C   UNL     1       3.953   5.299  19.022  0.00  0.00    +0.000 A 
ATOM      4  N   UNL     1       3.157   5.403  20.067  0.00  0.00    +0.000 NA
ATOM      5  C   UNL     1       2.456   6.600  20.014  0.00  0.00    +0.000 A 
ATOM      6  C   UNL     1       1.547   7.077  20.976  0.00  0.00    +0.000 A 
ATOM      7  C   UNL     1       0.933   8.330  20.800  0.00  0.00    +0.000 A 
ATOM      8  C   UNL     1       1.193   9.142  19.685  0.00  0.00    +0.000 A 
ATOM      9  C   UNL     1       2.100   8.651  18.721  0.00  0.00    +0.000 A 
ATOM     10  C   UNL     1       2.715   7.396  18.901  0.00  0.00    +0.000 A 
ATOM     11  S   UNL     1       3.865   6.599  17.899  0.00  0.00    +0.000 S 
BRANCH   8  12
ATOM     12  C   UNL     1       0.557  10.478  19.525  0.00  0.00    +0.000 A 
ATOM     13  C   UNL     1      -0.776  10.717  19.920  0.00  0.00    +0.000 A 
ATOM     14  C   UNL     1      -1.362  11.981  19.793  0.00  0.00    +0.000 A 
ATOM     15  C   UNL     1      -0.620  13.033  19.278  0.00  0.00    +0.000 A 
ATOM     16  F   UNL     1      -1.175  14.248  19.171  0.00  0.00    +0.000 F 
ATOM     17  C   UNL     1       0.692  12.840  18.875  0.00  0.00    +0.000 A 
ATOM     18  C   UNL     1       1.270  11.572  18.991  0.00  0.00    +0.000 A 
ENDBRANCH   8  12
ENDBRANCH   2   3
BRANCH   2  19
ATOM     19  C   UNL     1       5.989   4.574  17.872  0.00  0.00    +0.000 A 
ATOM     20  N   UNL     1       7.293   4.425  17.997  0.00  0.00    +0.000 NA
ATOM     21  N   UNL     1       7.840   4.735  16.764  0.00  0.00    +0.000 NA
ATOM     22  C   UNL     1       6.837   5.066  15.977  0.00  0.00    +0.000 A 
ATOM     23  N   UNL     1       6.797   5.436  14.685  0.00  0.00    +0.000 N 
ATOM     24  O   UNL     1       5.630   4.978  16.605  0.00  0.00    +0.000 OA
ATOM     25  H   UNL     1       5.864   5.455  14.280  0.00  0.00    +0.000 HD
BRANCH  23  26
ATOM     26  C   UNL     1       7.840   4.935  13.793  0.00  0.00    +0.000 C 
BRANCH  26  27
ATOM     27  C   UNL     1       7.339   4.932  12.343  0.00  0.00    +0.000 C 
BRANCH  27  28
ATOM     28  C   UNL     1       6.870   3.576  11.877  0.00  0.00    +0.000 A 
ATOM     29  C   UNL     1       7.765   2.666  11.296  0.00  0.00    +0.000 A 
ATOM     30  C   UNL     1       7.315   1.418  10.850  0.00  0.00    +0.000 A 
ATOM     31  C   UNL     1       5.973   1.064  10.981  0.00  0.00    +0.000 A 
ATOM     32  C   UNL     1       5.075   1.959  11.565  0.00  0.00    +0.000 A 
ATOM     33  C   UNL     1       5.530   3.197  12.008  0.00  0.00    +0.000 A 
ATOM     34  F   UNL     1       4.653   4.044  12.566  0.00  0.00    +0.000 F 
ENDBRANCH  27  28
ENDBRANCH  26  27
ENDBRANCH  23  26
ENDBRANCH   2  19
TORSDOF 6
ENDMDL
MODEL 6
REMARK VINA RESULT:      -8.4      5.058      7.278
REMARK  Name = 
REMARK  6 active torsions:
REMARK  status: ('A' for Active; 'I' for Inactive)
REMARK    1  A    between atoms: C_2  and  C_3
REMARK    2  A    between atoms: C_2  and  C_18
REMARK    3  A    between atoms: N_7  and  C_8
REMARK    4  A    between atoms: C_8  and  C_9
REMARK    5  A    between atoms: C_9  and  C_10
REMARK    6  A    between atoms: C_23  and  C_24
REMARK                            x       y       z     vdW  Elec       q    Type
REMARK                         _______ _______ _______ _____ _____    ______ ____
ROOT
ATOM      1  O   UNL     1       2.045   9.062  16.948  0.00  0.00    +0.000 OA
ATOM      2  C   UNL     1       2.027   8.650  18.110  0.00  0.00    +0.000 C 
ENDROOT
BRANCH   2   3
ATOM      3  C   UNL     1       1.173   9.226  19.145  0.00  0.00    +0.000 A 
ATOM      4  N   UNL     1       0.942   8.687  20.326  0.00  0.00    +0.000 NA
ATOM      5  C   UNL     1       0.226   9.571  21.121  0.00  0.00    +0.000 A 
ATOM      6  C   UNL     1      -0.165   9.362  22.456  0.00  0.00    +0.000 A 
ATOM      7  C   UNL     1      -0.864  10.367  23.148  0.00  0.00    +0.000 A 
ATOM      8  C   UNL     1      -1.196  11.594  22.552  0.00  0.00    +0.000 A 
ATOM      9  C   UNL     1      -0.808  11.791  21.209  0.00  0.00    +0.000 A 
ATOM     10  C   UNL     1      -0.105  10.783  20.520  0.00  0.00    +0.000 A 
ATOM     11  S   UNL     1       0.500  10.792  18.909  0.00  0.00    +0.000 S 
BRANCH   8  12
ATOM     12  C   UNL     1      -1.913  12.660  23.304  0.00  0.00    +0.000 A 
ATOM     13  C   UNL     1      -1.302  13.895  23.603  0.00  0.00    +0.000 A 
ATOM     14  C   UNL     1      -1.988  14.905  24.287  0.00  0.00    +0.000 A 
ATOM     15  C   UNL     1      -3.304  14.700  24.674  0.00  0.00    +0.000 A 
ATOM     16  F   UNL     1      -3.967  15.672  25.314  0.00  0.00    +0.000 F 
ATOM     17  C   UNL     1      -3.940  13.499  24.403  0.00  0.00    +0.000 A 
ATOM     18  C   UNL     1      -3.246  12.486  23.732  0.00  0.00    +0.000 A 
ENDBRANCH   8  12
ENDBRANCH   2   3
BRANCH   2  19
ATOM     19  C   UNL     1       2.865   7.558  18.556  0.00  0.00    +0.000 A 
ATOM     20  N   UNL     1       2.882   6.964  19.733  0.00  0.00    +0.000 NA
ATOM     21  N   UNL     1       3.742   5.886  19.612  0.00  0.00    +0.000 NA
ATOM     22  C   UNL     1       4.202   5.904  18.379  0.00  0.00    +0.000 A 
ATOM     23  N   UNL     1       5.049   5.089  17.726  0.00  0.00    +0.000 N 
ATOM     24  O   UNL     1       3.683   6.929  17.644  0.00  0.00    +0.000 OA
ATOM     25  H   UNL     1       5.085   5.234  16.720  0.00  0.00    +0.000 HD
BRANCH  23  26
ATOM     26  C   UNL     1       5.117   3.691  18.144  0.00  0.00    +0.000 C 
BRANCH  26  27
ATOM     27  C   UNL     1       3.779   2.992  17.868  0.00  0.00    +0.000 C 
BRANCH  27  28
ATOM     28  C   UNL     1       2.875   2.936  19.075  0.00  0.00    +0.000 A 
ATOM     29  C   UNL     1       1.523   3.298  18.979  0.00  0.00    +0.000 A 
ATOM     30  C   UNL     1       0.699   3.260  20.109  0.00  0.00    +0.000 A 
ATOM     31  C   UNL     1       1.211   2.859  21.342  0.00  0.00    +0.000 A 
ATOM     32  C   UNL     1       2.552   2.489  21.447  0.00  0.00    +0.000 A 
ATOM     33  C   UNL     1       3.366   2.527  20.319  0.00  0.00    +0.000 A 
ATOM     34  F   UNL     1       4.652   2.169  20.440  0.00  0.00    +0.000 F 
ENDBRANCH  27  28
ENDBRANCH  26  27
ENDBRANCH  23  26
ENDBRANCH   2  19
TORSDOF 6
ENDMDL
MODEL 7
REMARK VINA RESULT:      -8.3      4.661      6.823
REMARK  Name = 
REMARK  6 active torsions:
REMARK  status: ('A' for Active; 'I' for Inactive)
REMARK    1  A    between atoms: C_2  and  C_3
REMARK    2  A    between atoms: C_2  and  C_18
REMARK    3  A    between atoms: N_7  and  C_8
REMARK    4  A    between atoms: C_8  and  C_9
REMARK    5  A    between atoms: C_9  and  C_10
REMARK    6  A    between atoms: C_23  and  C_24
REMARK                            x       y       z     vdW  Elec       q    Type
REMARK                         _______ _______ _______ _____ _____    ______ ____
ROOT
ATOM      1  O   UNL     1       4.399   7.300  16.400  0.00  0.00    +0.000 OA
ATOM      2  C   UNL     1       4.068   6.897  17.517  0.00  0.00    +0.000 C 
ENDROOT
BRANCH   2   3
ATOM      3  C   UNL     1       3.002   7.515  18.302  0.00  0.00    +0.000 A 
ATOM      4  N   UNL     1       2.598   7.107  19.488  0.00  0.00    +0.000 NA
ATOM      5  C   UNL     1       1.691   8.013  20.020  0.00  0.00    +0.000 A 
ATOM      6  C   UNL     1       1.079   7.936  21.284  0.00  0.00    +0.000 A 
ATOM      7  C   UNL     1       0.198   8.950  21.701  0.00  0.00    +0.000 A 
ATOM      8  C   UNL     1      -0.103  10.058  20.894  0.00  0.00    +0.000 A 
ATOM      9  C   UNL     1       0.508  10.122  19.623  0.00  0.00    +0.000 A 
ATOM     10  C   UNL     1       1.392   9.106  19.210  0.00  0.00    +0.000 A 
ATOM     11  S   UNL     1       2.278   8.971  17.740  0.00  0.00    +0.000 S 
BRANCH   8  12
ATOM     12  C   UNL     1      -1.017  11.138  21.358  0.00  0.00    +0.000 A 
ATOM     13  C   UNL     1      -1.654  12.010  20.452  0.00  0.00    +0.000 A 
ATOM     14  C   UNL     1      -2.533  13.007  20.890  0.00  0.00    +0.000 A 
ATOM     15  C   UNL     1      -2.799  13.142  22.244  0.00  0.00    +0.000 A 
ATOM     16  F   UNL     1      -3.652  14.085  22.663  0.00  0.00    +0.000 F 
ATOM     17  C   UNL     1      -2.190  12.307  23.168  0.00  0.00    +0.000 A 
ATOM     18  C   UNL     1      -1.301  11.321  22.728  0.00  0.00    +0.000 A 
ENDBRANCH   8  12
ENDBRANCH   2   3
BRANCH   2  19
ATOM     19  C   UNL     1       4.716   5.774  18.158  0.00  0.00    +0.000 A 
ATOM     20  N   UNL     1       5.706   5.785  19.030  0.00  0.00    +0.000 NA
ATOM     21  N   UNL     1       5.862   4.478  19.457  0.00  0.00    +0.000 NA
ATOM     22  C   UNL     1       4.972   3.757  18.808  0.00  0.00    +0.000 A 
ATOM     23  N   UNL     1       4.678   2.446  18.848  0.00  0.00    +0.000 N 
ATOM     24  O   UNL     1       4.200   4.511  17.973  0.00  0.00    +0.000 OA
ATOM     25  H   UNL     1       3.816   2.191  18.374  0.00  0.00    +0.000 HD
BRANCH  23  26
ATOM     26  C   UNL     1       4.927   1.724  20.094  0.00  0.00    +0.000 C 
BRANCH  26  27
ATOM     27  C   UNL     1       3.848   2.070  21.129  0.00  0.00    +0.000 C 
BRANCH  27  28
ATOM     28  C   UNL     1       2.552   2.530  20.509  0.00  0.00    +0.000 A 
ATOM     29  C   UNL     1       1.915   1.765  19.521  0.00  0.00    +0.000 A 
ATOM     30  C   UNL     1       0.723   2.211  18.940  0.00  0.00    +0.000 A 
ATOM     31  C   UNL     1       0.154   3.420  19.338  0.00  0.00    +0.000 A 
ATOM     32  C   UNL     1       0.775   4.186  20.325  0.00  0.00    +0.000 A 
ATOM     33  C   UNL     1       1.959   3.735  20.900  0.00  0.00    +0.000 A 
ATOM     34  F   UNL     1       2.542   4.485  21.847  0.00  0.00    +0.000 F 
ENDBRANCH  27  28
ENDBRANCH  26  27
ENDBRANCH  23  26
ENDBRANCH   2  19
TORSDOF 6
ENDMDL
MODEL 8
REMARK VINA RESULT:      -8.3      4.676      6.607
REMARK  Name = 
REMARK  6 active torsions:
REMARK  status: ('A' for Active; 'I' for Inactive)
REMARK    1  A    between atoms: C_2  and  C_3
REMARK    2  A    between atoms: C_2  and  C_18
REMARK    3  A    between atoms: N_7  and  C_8
REMARK    4  A    between atoms: C_8  and  C_9
REMARK    5  A    between atoms: C_9  and  C_10
REMARK    6  A    between atoms: C_23  and  C_24
REMARK                            x       y       z     vdW  Elec       q    Type
REMARK                         _______ _______ _______ _____ _____    ______ ____
ROOT
ATOM      1  O   UNL     1      -0.282  13.453  19.428  0.00  0.00    +0.000 OA
ATOM      2  C   UNL     1       0.838  12.946  19.341  0.00  0.00    +0.000 C 
ENDROOT
BRANCH   2   3
ATOM      3  C   UNL     1       1.054  11.504  19.258  0.00  0.00    +0.000 A 
ATOM      4  N   UNL     1       1.513  10.865  18.200  0.00  0.00    +0.000 NA
ATOM      5  C   UNL     1       1.754   9.534  18.514  0.00  0.00    +0.000 A 
ATOM      6  C   UNL     1       2.287   8.557  17.654  0.00  0.00    +0.000 A 
ATOM      7  C   UNL     1       2.504   7.250  18.126  0.00  0.00    +0.000 A 
ATOM      8  C   UNL     1       2.206   6.871  19.443  0.00  0.00    +0.000 A 
ATOM      9  C   UNL     1       1.663   7.855  20.297  0.00  0.00    +0.000 A 
ATOM     10  C   UNL     1       1.449   9.164  19.822  0.00  0.00    +0.000 A 
ATOM     11  S   UNL     1       0.837  10.535  20.663  0.00  0.00    +0.000 S 
BRANCH   8  12
ATOM     12  C   UNL     1       2.466   5.490  19.937  0.00  0.00    +0.000 A 
ATOM     13  C   UNL     1       3.584   4.747  19.507  0.00  0.00    +0.000 A 
ATOM     14  C   UNL     1       3.841   3.461  19.994  0.00  0.00    +0.000 A 
ATOM     15  C   UNL     1       2.986   2.898  20.930  0.00  0.00    +0.000 A 
ATOM     16  F   UNL     1       3.238   1.673  21.409  0.00  0.00    +0.000 F 
ATOM     17  C   UNL     1       1.873   3.593  21.376  0.00  0.00    +0.000 A 
ATOM     18  C   UNL     1       1.612   4.874  20.877  0.00  0.00    +0.000 A 
ENDBRANCH   8  12
ENDBRANCH   2   3
BRANCH   2  19
ATOM     19  C   UNL     1       2.047  13.740  19.325  0.00  0.00    +0.000 A 
ATOM     20  N   UNL     1       2.680  14.292  20.341  0.00  0.00    +0.000 NA
ATOM     21  N   UNL     1       3.858  14.811  19.830  0.00  0.00    +0.000 NA
ATOM     22  C   UNL     1       3.856  14.554  18.539  0.00  0.00    +0.000 A 
ATOM     23  N   UNL     1       4.753  14.817  17.572  0.00  0.00    +0.000 N 
ATOM     24  O   UNL     1       2.746  13.867  18.145  0.00  0.00    +0.000 OA
ATOM     25  H   UNL     1       4.577  14.340  16.691  0.00  0.00    +0.000 HD
BRANCH  23  26
ATOM     26  C   UNL     1       6.162  14.909  17.947  0.00  0.00    +0.000 C 
BRANCH  26  27
ATOM     27  C   UNL     1       6.904  13.634  17.525  0.00  0.00    +0.000 C 
BRANCH  27  28
ATOM     28  C   UNL     1       8.363  13.639  17.908  0.00  0.00    +0.000 A 
ATOM     29  C   UNL     1       9.031  14.842  18.184  0.00  0.00    +0.000 A 
ATOM     30  C   UNL     1      10.389  14.836  18.520  0.00  0.00    +0.000 A 
ATOM     31  C   UNL     1      11.094  13.635  18.587  0.00  0.00    +0.000 A 
ATOM     32  C   UNL     1      10.438  12.431  18.322  0.00  0.00    +0.000 A 
ATOM     33  C   UNL     1       9.086  12.445  17.990  0.00  0.00    +0.000 A 
ATOM     34  F   UNL     1       8.474  11.279  17.738  0.00  0.00    +0.000 F 
ENDBRANCH  27  28
ENDBRANCH  26  27
ENDBRANCH  23  26
ENDBRANCH   2  19
TORSDOF 6
ENDMDL
MODEL 9
REMARK VINA RESULT:      -8.3      4.796      6.844
REMARK  Name = 
REMARK  6 active torsions:
REMARK  status: ('A' for Active; 'I' for Inactive)
REMARK    1  A    between atoms: C_2  and  C_3
REMARK    2  A    between atoms: C_2  and  C_18
REMARK    3  A    between atoms: N_7  and  C_8
REMARK    4  A    between atoms: C_8  and  C_9
REMARK    5  A    between atoms: C_9  and  C_10
REMARK    6  A    between atoms: C_23  and  C_24
REMARK                            x       y       z     vdW  Elec       q    Type
REMARK                         _______ _______ _______ _____ _____    ______ ____
ROOT
ATOM      1  O   UNL     1      -0.379  12.474  18.452  0.00  0.00    +0.000 OA
ATOM      2  C   UNL     1       0.770  12.183  18.788  0.00  0.00    +0.000 C 
ENDROOT
BRANCH   2   3
ATOM      3  C   UNL     1       1.196  10.813  19.061  0.00  0.00    +0.000 A 
ATOM      4  N   UNL     1       0.944  10.146  20.170  0.00  0.00    +0.000 NA
ATOM      5  C   UNL     1       1.345   8.824  20.032  0.00  0.00    +0.000 A 
ATOM      6  C   UNL     1       1.197   7.803  20.988  0.00  0.00    +0.000 A 
ATOM      7  C   UNL     1       1.627   6.497  20.694  0.00  0.00    +0.000 A 
ATOM      8  C   UNL     1       2.209   6.161  19.462  0.00  0.00    +0.000 A 
ATOM      9  C   UNL     1       2.362   7.193  18.511  0.00  0.00    +0.000 A 
ATOM     10  C   UNL     1       1.928   8.500  18.809  0.00  0.00    +0.000 A 
ATOM     11  S   UNL     1       1.973   9.908  17.821  0.00  0.00    +0.000 S 
BRANCH   8  12
ATOM     12  C   UNL     1       2.634   4.768  19.152  0.00  0.00    +0.000 A 
ATOM     13  C   UNL     1       3.032   3.872  20.166  0.00  0.00    +0.000 A 
ATOM     14  C   UNL     1       3.406   2.556  19.874  0.00  0.00    +0.000 A 
ATOM     15  C   UNL     1       3.378   2.108  18.562  0.00  0.00    +0.000 A 
ATOM     16  F   UNL     1       3.720   0.844  18.283  0.00  0.00    +0.000 F 
ATOM     17  C   UNL     1       2.996   2.958  17.536  0.00  0.00    +0.000 A 
ATOM     18  C   UNL     1       2.637   4.278  17.829  0.00  0.00    +0.000 A 
ENDBRANCH   8  12
ENDBRANCH   2   3
BRANCH   2  19
ATOM     19  C   UNL     1       1.805  13.181  18.954  0.00  0.00    +0.000 A 
ATOM     20  N   UNL     1       2.098  13.890  20.026  0.00  0.00    +0.000 NA
ATOM     21  N   UNL     1       3.256  14.587  19.727  0.00  0.00    +0.000 NA
ATOM     22  C   UNL     1       3.581  14.269  18.491  0.00  0.00    +0.000 A 
ATOM     23  N   UNL     1       4.612  14.641  17.712  0.00  0.00    +0.000 N 
ATOM     24  O   UNL     1       2.714  13.373  17.938  0.00  0.00    +0.000 OA
ATOM     25  H   UNL     1       4.716  14.096  16.859  0.00  0.00    +0.000 HD
BRANCH  23  26
ATOM     26  C   UNL     1       5.869  15.005  18.361  0.00  0.00    +0.000 C 
BRANCH  26  27
ATOM     27  C   UNL     1       7.046  14.322  17.654  0.00  0.00    +0.000 C 
BRANCH  27  28
ATOM     28  C   UNL     1       8.330  14.379  18.443  0.00  0.00    +0.000 A 
ATOM     29  C   UNL     1       8.587  13.456  19.468  0.00  0.00    +0.000 A 
ATOM     30  C   UNL     1       9.774  13.531  20.206  0.00  0.00    +0.000 A 
ATOM     31  C   UNL     1      10.716  14.521  19.929  0.00  0.00    +0.000 A 
ATOM     32  C   UNL     1      10.474  15.440  18.906  0.00  0.00    +0.000 A 
ATOM     33  C   UNL     1       9.292  15.358  18.175  0.00  0.00    +0.000 A 
ATOM     34  F   UNL     1       9.077  16.250  17.197  0.00  0.00    +0.000 F 
ENDBRANCH  27  28
ENDBRANCH  26  27
ENDBRANCH  23  26
ENDBRANCH   2  19
TORSDOF 6
ENDMDL
