MODEL 1
REMARK VINA RESULT:      -7.3      0.000      0.000
REMARK  Name = 
REMARK  3 active torsions:
REMARK  status: ('A' for Active; 'I' for Inactive)
REMARK    1  A    between atoms: C_1  and  O_2
REMARK    2  A    between atoms: O_2  and  C_3
REMARK    3  A    between atoms: C_9  and  C_10
REMARK                            x       y       z     vdW  Elec       q    Type
REMARK                         _______ _______ _______ _____ _____    ______ ____
ROOT
ATOM      1  C   UNL     1       5.987   4.686  18.423  0.00  0.00    +0.000 A 
ATOM      2  C   UNL     1       5.621   4.301  17.117  0.00  0.00    +0.000 A 
ATOM      3  C   UNL     1       4.278   4.255  16.735  0.00  0.00    +0.000 A 
ATOM      4  C   UNL     1       3.343   4.599  17.688  0.00  0.00    +0.000 A 
ATOM      5  C   UNL     1       3.684   4.989  18.985  0.00  0.00    +0.000 A 
ATOM      6  C   UNL     1       5.013   5.046  19.361  0.00  0.00    +0.000 A 
ATOM      7  C   UNL     1       2.422   5.136  19.803  0.00  0.00    +0.000 C 
ATOM      8  S   UNL     1       2.547   4.413  21.484  0.00  0.00    +0.000 S 
ATOM      9  C   UNL     1       1.570   2.943  21.105  0.00  0.00    +0.000 C 
ATOM     10  C   UNL     1       1.472   2.904  19.597  0.00  0.00    +0.000 C 
ATOM     11  N   UNL     1       1.511   4.257  19.053  0.00  0.00    +0.000 N 
ATOM     12  C   UNL     1       1.919   4.244  17.700  0.00  0.00    +0.000 C 
ATOM     13  O   UNL     1       1.311   3.772  16.754  0.00  0.00    +0.000 OA
ENDROOT
BRANCH   7  14
ATOM     14  C   UNL     1       1.961   6.608  19.868  0.00  0.00    +0.000 A 
ATOM     15  C   UNL     1       2.186   7.528  18.829  0.00  0.00    +0.000 A 
ATOM     16  C   UNL     1       1.782   8.866  18.943  0.00  0.00    +0.000 A 
ATOM     17  C   UNL     1       1.141   9.312  20.096  0.00  0.00    +0.000 A 
ATOM     18  C   UNL     1       0.898   8.422  21.135  0.00  0.00    +0.000 A 
ATOM     19  C   UNL     1       1.303   7.089  21.024  0.00  0.00    +0.000 A 
ENDBRANCH   7  14
BRANCH   1  21
ATOM     20  C   UNL     1       7.890   5.928  19.069  0.00  0.00    +0.000 C 
ATOM     21  O   UNL     1       7.258   4.665  18.926  0.00  0.00    +0.000 OA
ENDBRANCH   1  21
TORSDOF 2
ENDMDL
MODEL 2
REMARK VINA RESULT:      -7.3      0.245      1.074
REMARK  Name = 
REMARK  3 active torsions:
REMARK  status: ('A' for Active; 'I' for Inactive)
REMARK    1  A    between atoms: C_1  and  O_2
REMARK    2  A    between atoms: O_2  and  C_3
REMARK    3  A    between atoms: C_9  and  C_10
REMARK                            x       y       z     vdW  Elec       q    Type
REMARK                         _______ _______ _______ _____ _____    ______ ____
ROOT
ATOM      1  C   UNL     1       6.041   4.648  18.350  0.00  0.00    +0.000 A 
ATOM      2  C   UNL     1       5.655   4.201  17.070  0.00  0.00    +0.000 A 
ATOM      3  C   UNL     1       4.308   4.164  16.702  0.00  0.00    +0.000 A 
ATOM      4  C   UNL     1       3.389   4.579  17.642  0.00  0.00    +0.000 A 
ATOM      5  C   UNL     1       3.750   5.030  18.913  0.00  0.00    +0.000 A 
ATOM      6  C   UNL     1       5.083   5.079  19.276  0.00  0.00    +0.000 A 
ATOM      7  C   UNL     1       2.499   5.249  19.732  0.00  0.00    +0.000 C 
ATOM      8  S   UNL     1       2.624   4.614  21.448  0.00  0.00    +0.000 S 
ATOM      9  C   UNL     1       1.612   3.147  21.157  0.00  0.00    +0.000 C 
ATOM     10  C   UNL     1       1.500   3.030  19.654  0.00  0.00    +0.000 C 
ATOM     11  N   UNL     1       1.562   4.351  19.037  0.00  0.00    +0.000 N 
ATOM     12  C   UNL     1       1.958   4.256  17.684  0.00  0.00    +0.000 C 
ATOM     13  O   UNL     1       1.331   3.747  16.770  0.00  0.00    +0.000 OA
ENDROOT
BRANCH   7  14
ATOM     14  C   UNL     1       2.070   6.732  19.722  0.00  0.00    +0.000 A 
ATOM     15  C   UNL     1       1.463   7.361  20.822  0.00  0.00    +0.000 A 
ATOM     16  C   UNL     1       1.056   8.702  20.760  0.00  0.00    +0.000 A 
ATOM     17  C   UNL     1       1.252   9.443  19.598  0.00  0.00    +0.000 A 
ATOM     18  C   UNL     1       1.858   8.849  18.497  0.00  0.00    +0.000 A 
ATOM     19  C   UNL     1       2.261   7.512  18.557  0.00  0.00    +0.000 A 
ENDBRANCH   7  14
BRANCH   1  21
ATOM     20  C   UNL     1       7.845   5.878  19.253  0.00  0.00    +0.000 C 
ATOM     21  O   UNL     1       7.316   4.626  18.843  0.00  0.00    +0.000 OA
ENDBRANCH   1  21
TORSDOF 2
ENDMDL
MODEL 3
REMARK VINA RESULT:      -6.8      4.398      6.690
REMARK  Name = 
REMARK  3 active torsions:
REMARK  status: ('A' for Active; 'I' for Inactive)
REMARK    1  A    between atoms: C_1  and  O_2
REMARK    2  A    between atoms: O_2  and  C_3
REMARK    3  A    between atoms: C_9  and  C_10
REMARK                            x       y       z     vdW  Elec       q    Type
REMARK                         _______ _______ _______ _____ _____    ______ ____
ROOT
ATOM      1  C   UNL     1       2.347   8.091  18.496  0.00  0.00    +0.000 A 
ATOM      2  C   UNL     1       2.194   7.482  19.758  0.00  0.00    +0.000 A 
ATOM      3  C   UNL     1       1.346   8.035  20.721  0.00  0.00    +0.000 A 
ATOM      4  C   UNL     1       0.678   9.191  20.379  0.00  0.00    +0.000 A 
ATOM      5  C   UNL     1       0.811   9.809  19.133  0.00  0.00    +0.000 A 
ATOM      6  C   UNL     1       1.641   9.256  18.174  0.00  0.00    +0.000 A 
ATOM      7  C   UNL     1       0.074  11.127  19.154  0.00  0.00    +0.000 C 
ATOM      8  S   UNL     1       1.005  12.503  18.377  0.00  0.00    +0.000 S 
ATOM      9  C   UNL     1       1.483  13.281  19.935  0.00  0.00    +0.000 C 
ATOM     10  C   UNL     1       1.189  12.252  21.003  0.00  0.00    +0.000 C 
ATOM     11  N   UNL     1       0.069  11.409  20.599  0.00  0.00    +0.000 N 
ATOM     12  C   UNL     1       0.090  10.178  21.292  0.00  0.00    +0.000 C 
ATOM     13  O   UNL     1      -0.080  10.006  22.488  0.00  0.00    +0.000 OA
ENDROOT
BRANCH   7  14
ATOM     14  C   UNL     1      -1.335  10.995  18.536  0.00  0.00    +0.000 A 
ATOM     15  C   UNL     1      -2.430  11.770  18.955  0.00  0.00    +0.000 A 
ATOM     16  C   UNL     1      -3.702  11.596  18.392  0.00  0.00    +0.000 A 
ATOM     17  C   UNL     1      -3.906  10.645  17.395  0.00  0.00    +0.000 A 
ATOM     18  C   UNL     1      -2.839   9.871  16.955  0.00  0.00    +0.000 A 
ATOM     19  C   UNL     1      -1.571  10.042  17.518  0.00  0.00    +0.000 A 
ENDBRANCH   7  14
BRANCH   1  21
ATOM     20  C   UNL     1       3.836   6.426  17.727  0.00  0.00    +0.000 C 
ATOM     21  O   UNL     1       3.224   7.691  17.526  0.00  0.00    +0.000 OA
ENDBRANCH   1  21
TORSDOF 2
ENDMDL
MODEL 4
REMARK VINA RESULT:      -6.8      4.400      6.624
REMARK  Name = 
REMARK  3 active torsions:
REMARK  status: ('A' for Active; 'I' for Inactive)
REMARK    1  A    between atoms: C_1  and  O_2
REMARK    2  A    between atoms: O_2  and  C_3
REMARK    3  A    between atoms: C_9  and  C_10
REMARK                            x       y       z     vdW  Elec       q    Type
REMARK                         _______ _______ _______ _____ _____    ______ ____
ROOT
ATOM      1  C   UNL     1       2.365   8.086  18.479  0.00  0.00    +0.000 A 
ATOM      2  C   UNL     1       2.219   7.465  19.735  0.00  0.00    +0.000 A 
ATOM      3  C   UNL     1       1.355   7.994  20.698  0.00  0.00    +0.000 A 
ATOM      4  C   UNL     1       0.665   9.139  20.361  0.00  0.00    +0.000 A 
ATOM      5  C   UNL     1       0.792   9.768  19.120  0.00  0.00    +0.000 A 
ATOM      6  C   UNL     1       1.637   9.239  18.161  0.00  0.00    +0.000 A 
ATOM      7  C   UNL     1       0.027  11.070  19.146  0.00  0.00    +0.000 C 
ATOM      8  S   UNL     1       0.934  12.470  18.384  0.00  0.00    +0.000 S 
ATOM      9  C   UNL     1       1.388  13.247  19.950  0.00  0.00    +0.000 C 
ATOM     10  C   UNL     1       1.110  12.205  21.009  0.00  0.00    +0.000 C 
ATOM     11  N   UNL     1       0.010  11.342  20.593  0.00  0.00    +0.000 N 
ATOM     12  C   UNL     1       0.052  10.107  21.278  0.00  0.00    +0.000 C 
ATOM     13  O   UNL     1      -0.120   9.923  22.471  0.00  0.00    +0.000 OA
ENDROOT
BRANCH   7  14
ATOM     14  C   UNL     1      -1.375  10.914  18.521  0.00  0.00    +0.000 A 
ATOM     15  C   UNL     1      -1.654  10.007  17.483  0.00  0.00    +0.000 A 
ATOM     16  C   UNL     1      -2.935   9.921  16.918  0.00  0.00    +0.000 A 
ATOM     17  C   UNL     1      -3.965  10.737  17.380  0.00  0.00    +0.000 A 
ATOM     18  C   UNL     1      -3.719  11.637  18.410  0.00  0.00    +0.000 A 
ATOM     19  C   UNL     1      -2.441  11.726  18.973  0.00  0.00    +0.000 A 
ENDBRANCH   7  14
BRANCH   1  21
ATOM     20  C   UNL     1       3.961   6.503  17.752  0.00  0.00    +0.000 C 
ATOM     21  O   UNL     1       3.256   7.711  17.511  0.00  0.00    +0.000 OA
ENDBRANCH   1  21
TORSDOF 2
ENDMDL
MODEL 5
REMARK VINA RESULT:      -6.7      3.119      6.251
REMARK  Name = 
REMARK  3 active torsions:
REMARK  status: ('A' for Active; 'I' for Inactive)
REMARK    1  A    between atoms: C_1  and  O_2
REMARK    2  A    between atoms: O_2  and  C_3
REMARK    3  A    between atoms: C_9  and  C_10
REMARK                            x       y       z     vdW  Elec       q    Type
REMARK                         _______ _______ _______ _____ _____    ______ ____
ROOT
ATOM      1  C   UNL     1       3.163   3.308  18.539  0.00  0.00    +0.000 A 
ATOM      2  C   UNL     1       2.221   4.355  18.490  0.00  0.00    +0.000 A 
ATOM      3  C   UNL     1       2.517   5.553  17.836  0.00  0.00    +0.000 A 
ATOM      4  C   UNL     1       3.761   5.659  17.252  0.00  0.00    +0.000 A 
ATOM      5  C   UNL     1       4.708   4.632  17.285  0.00  0.00    +0.000 A 
ATOM      6  C   UNL     1       4.412   3.440  17.921  0.00  0.00    +0.000 A 
ATOM      7  C   UNL     1       6.004   5.137  16.696  0.00  0.00    +0.000 C 
ATOM      8  S   UNL     1       7.488   4.646  17.655  0.00  0.00    +0.000 S 
ATOM      9  C   UNL     1       7.744   6.266  18.409  0.00  0.00    +0.000 C 
ATOM     10  C   UNL     1       6.467   7.033  18.152  0.00  0.00    +0.000 C 
ATOM     11  N   UNL     1       5.849   6.586  16.908  0.00  0.00    +0.000 N 
ATOM     12  C   UNL     1       4.470   6.892  16.892  0.00  0.00    +0.000 C 
ATOM     13  O   UNL     1       3.965   8.002  16.863  0.00  0.00    +0.000 OA
ENDROOT
BRANCH   7  14
ATOM     14  C   UNL     1       6.146   4.733  15.213  0.00  0.00    +0.000 A 
ATOM     15  C   UNL     1       5.201   3.936  14.542  0.00  0.00    +0.000 A 
ATOM     16  C   UNL     1       5.384   3.562  13.203  0.00  0.00    +0.000 A 
ATOM     17  C   UNL     1       6.514   3.979  12.505  0.00  0.00    +0.000 A 
ATOM     18  C   UNL     1       7.461   4.774  13.140  0.00  0.00    +0.000 A 
ATOM     19  C   UNL     1       7.280   5.146  14.476  0.00  0.00    +0.000 A 
ENDBRANCH   7  14
BRANCH   1  21
ATOM     20  C   UNL     1       1.922   2.097  20.144  0.00  0.00    +0.000 C 
ATOM     21  O   UNL     1       3.013   2.141  19.237  0.00  0.00    +0.000 OA
ENDBRANCH   1  21
TORSDOF 2
ENDMDL
MODEL 6
REMARK VINA RESULT:      -6.6      3.133      6.208
REMARK  Name = 
REMARK  3 active torsions:
REMARK  status: ('A' for Active; 'I' for Inactive)
REMARK    1  A    between atoms: C_1  and  O_2
REMARK    2  A    between atoms: O_2  and  C_3
REMARK    3  A    between atoms: C_9  and  C_10
REMARK                            x       y       z     vdW  Elec       q    Type
REMARK                         _______ _______ _______ _____ _____    ______ ____
ROOT
ATOM      1  C   UNL     1       3.186   3.302  18.545  0.00  0.00    +0.000 A 
ATOM      2  C   UNL     1       2.239   4.344  18.470  0.00  0.00    +0.000 A 
ATOM      3  C   UNL     1       2.536   5.534  17.800  0.00  0.00    +0.000 A 
ATOM      4  C   UNL     1       3.786   5.635  17.227  0.00  0.00    +0.000 A 
ATOM      5  C   UNL     1       4.737   4.614  17.285  0.00  0.00    +0.000 A 
ATOM      6  C   UNL     1       4.440   3.431  17.937  0.00  0.00    +0.000 A 
ATOM      7  C   UNL     1       6.036   5.116  16.700  0.00  0.00    +0.000 C 
ATOM      8  S   UNL     1       7.513   4.646  17.681  0.00  0.00    +0.000 S 
ATOM      9  C   UNL     1       7.754   6.279  18.412  0.00  0.00    +0.000 C 
ATOM     10  C   UNL     1       6.476   7.037  18.131  0.00  0.00    +0.000 C 
ATOM     11  N   UNL     1       5.872   6.567  16.888  0.00  0.00    +0.000 N 
ATOM     12  C   UNL     1       4.492   6.866  16.854  0.00  0.00    +0.000 C 
ATOM     13  O   UNL     1       3.982   7.973  16.802  0.00  0.00    +0.000 OA
ENDROOT
BRANCH   7  14
ATOM     14  C   UNL     1       6.194   4.688  15.226  0.00  0.00    +0.000 A 
ATOM     15  C   UNL     1       7.295   5.059  14.435  0.00  0.00    +0.000 A 
ATOM     16  C   UNL     1       7.384   4.678  13.088  0.00  0.00    +0.000 A 
ATOM     17  C   UNL     1       6.375   3.917  12.503  0.00  0.00    +0.000 A 
ATOM     18  C   UNL     1       5.279   3.529  13.264  0.00  0.00    +0.000 A 
ATOM     19  C   UNL     1       5.188   3.910  14.607  0.00  0.00    +0.000 A 
ENDBRANCH   7  14
BRANCH   1  21
ATOM     20  C   UNL     1       1.933   2.111  20.156  0.00  0.00    +0.000 C 
ATOM     21  O   UNL     1       3.034   2.147  19.260  0.00  0.00    +0.000 OA
ENDBRANCH   1  21
TORSDOF 2
ENDMDL
MODEL 7
REMARK VINA RESULT:      -6.3      5.057      7.733
REMARK  Name = 
REMARK  3 active torsions:
REMARK  status: ('A' for Active; 'I' for Inactive)
REMARK    1  A    between atoms: C_1  and  O_2
REMARK    2  A    between atoms: O_2  and  C_3
REMARK    3  A    between atoms: C_9  and  C_10
REMARK                            x       y       z     vdW  Elec       q    Type
REMARK                         _______ _______ _______ _____ _____    ______ ____
ROOT
ATOM      1  C   UNL     1       1.365   8.489  20.431  0.00  0.00    +0.000 A 
ATOM      2  C   UNL     1       1.031   8.351  21.794  0.00  0.00    +0.000 A 
ATOM      3  C   UNL     1       0.127   9.226  22.401  0.00  0.00    +0.000 A 
ATOM      4  C   UNL     1      -0.412  10.219  21.611  0.00  0.00    +0.000 A 
ATOM      5  C   UNL     1      -0.099  10.371  20.258  0.00  0.00    +0.000 A 
ATOM      6  C   UNL     1       0.787   9.498  19.652  0.00  0.00    +0.000 A 
ATOM      7  C   UNL     1      -0.734  11.641  19.744  0.00  0.00    +0.000 C 
ATOM      8  S   UNL     1       0.376  12.639  18.678  0.00  0.00    +0.000 S 
ATOM      9  C   UNL     1       0.738  13.884  19.935  0.00  0.00    +0.000 C 
ATOM     10  C   UNL     1       0.254  13.291  21.238  0.00  0.00    +0.000 C 
ATOM     11  N   UNL     1      -0.875  12.398  20.999  0.00  0.00    +0.000 N 
ATOM     12  C   UNL     1      -1.021  11.476  22.059  0.00  0.00    +0.000 C 
ATOM     13  O   UNL     1      -1.332  11.726  23.212  0.00  0.00    +0.000 OA
ENDROOT
BRANCH   7  14
ATOM     14  C   UNL     1      -2.073  11.354  19.031  0.00  0.00    +0.000 A 
ATOM     15  C   UNL     1      -2.229  10.335  18.075  0.00  0.00    +0.000 A 
ATOM     16  C   UNL     1      -3.454  10.129  17.425  0.00  0.00    +0.000 A 
ATOM     17  C   UNL     1      -4.550  10.936  17.718  0.00  0.00    +0.000 A 
ATOM     18  C   UNL     1      -4.427  11.946  18.665  0.00  0.00    +0.000 A 
ATOM     19  C   UNL     1      -3.205  12.153  19.313  0.00  0.00    +0.000 A 
ENDBRANCH   7  14
BRANCH   1  21
ATOM     20  C   UNL     1       2.391   7.962  18.369  0.00  0.00    +0.000 C 
ATOM     21  O   UNL     1       2.311   7.754  19.771  0.00  0.00    +0.000 OA
ENDBRANCH   1  21
TORSDOF 2
ENDMDL
MODEL 8
REMARK VINA RESULT:      -6.3      2.205      5.265
REMARK  Name = 
REMARK  3 active torsions:
REMARK  status: ('A' for Active; 'I' for Inactive)
REMARK    1  A    between atoms: C_1  and  O_2
REMARK    2  A    between atoms: O_2  and  C_3
REMARK    3  A    between atoms: C_9  and  C_10
REMARK                            x       y       z     vdW  Elec       q    Type
REMARK                         _______ _______ _______ _____ _____    ______ ____
ROOT
ATOM      1  C   UNL     1       1.792   8.117  18.594  0.00  0.00    +0.000 A 
ATOM      2  C   UNL     1       1.482   8.083  19.969  0.00  0.00    +0.000 A 
ATOM      3  C   UNL     1       1.908   7.023  20.772  0.00  0.00    +0.000 A 
ATOM      4  C   UNL     1       2.634   6.024  20.160  0.00  0.00    +0.000 A 
ATOM      5  C   UNL     1       2.957   6.039  18.801  0.00  0.00    +0.000 A 
ATOM      6  C   UNL     1       2.547   7.094  18.006  0.00  0.00    +0.000 A 
ATOM      7  C   UNL     1       3.611   4.729  18.435  0.00  0.00    +0.000 C 
ATOM      8  S   UNL     1       3.006   4.021  16.854  0.00  0.00    +0.000 S 
ATOM      9  C   UNL     1       1.976   2.753  17.624  0.00  0.00    +0.000 C 
ATOM     10  C   UNL     1       1.876   3.147  19.079  0.00  0.00    +0.000 C 
ATOM     11  N   UNL     1       3.081   3.857  19.496  0.00  0.00    +0.000 N 
ATOM     12  C   UNL     1       2.829   4.650  20.638  0.00  0.00    +0.000 C 
ATOM     13  O   UNL     1       2.551   4.256  21.758  0.00  0.00    +0.000 OA
ENDROOT
BRANCH   7  14
ATOM     14  C   UNL     1       5.150   4.848  18.433  0.00  0.00    +0.000 A 
ATOM     15  C   UNL     1       5.877   5.404  19.500  0.00  0.00    +0.000 A 
ATOM     16  C   UNL     1       7.273   5.526  19.444  0.00  0.00    +0.000 A 
ATOM     17  C   UNL     1       7.973   5.091  18.321  0.00  0.00    +0.000 A 
ATOM     18  C   UNL     1       7.281   4.530  17.255  0.00  0.00    +0.000 A 
ATOM     19  C   UNL     1       5.889   4.410  17.309  0.00  0.00    +0.000 A 
ENDBRANCH   7  14
BRANCH   1  21
ATOM     20  C   UNL     1       0.554  10.100  18.251  0.00  0.00    +0.000 C 
ATOM     21  O   UNL     1       1.339   9.051  17.704  0.00  0.00    +0.000 OA
ENDBRANCH   1  21
TORSDOF 2
ENDMDL
MODEL 9
REMARK VINA RESULT:      -6.3      6.019      8.362
REMARK  Name = 
REMARK  3 active torsions:
REMARK  status: ('A' for Active; 'I' for Inactive)
REMARK    1  A    between atoms: C_1  and  O_2
REMARK    2  A    between atoms: O_2  and  C_3
REMARK    3  A    between atoms: C_9  and  C_10
REMARK                            x       y       z     vdW  Elec       q    Type
REMARK                         _______ _______ _______ _____ _____    ______ ____
ROOT
ATOM      1  C   UNL     1      -3.157  11.237  17.573  0.00  0.00    +0.000 A 
ATOM      2  C   UNL     1      -2.687  10.222  16.715  0.00  0.00    +0.000 A 
ATOM      3  C   UNL     1      -1.418   9.667  16.891  0.00  0.00    +0.000 A 
ATOM      4  C   UNL     1      -0.658  10.157  17.932  0.00  0.00    +0.000 A 
ATOM      5  C   UNL     1      -1.105  11.159  18.797  0.00  0.00    +0.000 A 
ATOM      6  C   UNL     1      -2.366  11.701  18.631  0.00  0.00    +0.000 A 
ATOM      7  C   UNL     1       0.028  11.565  19.709  0.00  0.00    +0.000 C 
ATOM      8  S   UNL     1       0.179  13.380  19.930  0.00  0.00    +0.000 S 
ATOM      9  C   UNL     1       1.611  13.561  18.845  0.00  0.00    +0.000 C 
ATOM     10  C   UNL     1       1.705  12.258  18.084  0.00  0.00    +0.000 C 
ATOM     11  N   UNL     1       1.187  11.161  18.895  0.00  0.00    +0.000 N 
ATOM     12  C   UNL     1       0.800  10.073  18.081  0.00  0.00    +0.000 C 
ATOM     13  O   UNL     1       1.529   9.365  17.407  0.00  0.00    +0.000 OA
ENDROOT
BRANCH   7  14
ATOM     14  C   UNL     1      -0.060  10.848  21.073  0.00  0.00    +0.000 A 
ATOM     15  C   UNL     1      -1.019  11.174  22.048  0.00  0.00    +0.000 A 
ATOM     16  C   UNL     1      -1.044  10.521  23.290  0.00  0.00    +0.000 A 
ATOM     17  C   UNL     1      -0.113   9.527  23.581  0.00  0.00    +0.000 A 
ATOM     18  C   UNL     1       0.840   9.178  22.631  0.00  0.00    +0.000 A 
ATOM     19  C   UNL     1       0.867   9.830  21.394  0.00  0.00    +0.000 A 
ENDBRANCH   7  14
BRANCH   1  21
ATOM     20  C   UNL     1      -5.497  11.252  17.899  0.00  0.00    +0.000 C 
ATOM     21  O   UNL     1      -4.335  11.915  17.424  0.00  0.00    +0.000 OA
ENDBRANCH   1  21
TORSDOF 2
ENDMDL
