MODEL 1
REMARK VINA RESULT:      -9.0      0.000      0.000
REMARK  Name = 
REMARK  3 active torsions:
REMARK  status: ('A' for Active; 'I' for Inactive)
REMARK    1  A    between atoms: C_2  and  S_3
REMARK    2  A    between atoms: S_3  and  C_4
REMARK    3  A    between atoms: C_7  and  C_8
REMARK                            x       y       z     vdW  Elec       q    Type
REMARK                         _______ _______ _______ _____ _____    ______ ____
ROOT
ATOM      1  O   UNL     1       4.508   7.457  17.678  0.00  0.00    +0.000 OA
ATOM      2  C   UNL     1       4.111   6.377  18.109  0.00  0.00    +0.000 C 
ATOM      3  N   UNL     1       2.734   5.981  18.091  0.00  0.00    +0.000 N 
ATOM      4  C   UNL     1       2.388   4.641  18.415  0.00  0.00    +0.000 A 
ATOM      5  C   UNL     1       2.779   3.645  17.501  0.00  0.00    +0.000 A 
ATOM      6  C   UNL     1       2.573   2.299  17.788  0.00  0.00    +0.000 A 
ATOM      7  C   UNL     1       1.957   1.940  18.982  0.00  0.00    +0.000 A 
ATOM      8  C   UNL     1       1.546   2.926  19.889  0.00  0.00    +0.000 A 
ATOM      9  C   UNL     1       1.759   4.284  19.617  0.00  0.00    +0.000 A 
ATOM     10  S   UNL     1       1.392   5.488  20.881  0.00  0.00    +0.000 S 
ATOM     11  C   UNL     1       1.564   7.005  19.968  0.00  0.00    +0.000 A 
ATOM     12  C   UNL     1       1.479   8.235  20.627  0.00  0.00    +0.000 A 
ATOM     13  C   UNL     1       1.595   9.432  19.913  0.00  0.00    +0.000 A 
ATOM     14  C   UNL     1       1.678   9.413  18.524  0.00  0.00    +0.000 A 
ATOM     15  C   UNL     1       1.806   8.200  17.864  0.00  0.00    +0.000 A 
ATOM     16  C   UNL     1       1.889   7.013  18.607  0.00  0.00    +0.000 A 
ENDROOT
BRANCH   2  17
ATOM     17  S   UNL     1       5.218   5.311  18.998  0.00  0.00    +0.000 S 
BRANCH  17  18
ATOM     18  C   UNL     1       6.291   4.945  17.700  0.00  0.00    +0.000 A 
ATOM     19  N   UNL     1       7.527   4.519  17.857  0.00  0.00    +0.000 NA
ATOM     20  N   UNL     1       8.008   4.261  16.589  0.00  0.00    +0.000 NA
ATOM     21  C   UNL     1       7.022   4.535  15.749  0.00  0.00    +0.000 A 
ATOM     22  O   UNL     1       5.896   4.958  16.390  0.00  0.00    +0.000 OA
BRANCH  21  23
ATOM     23  C   UNL     1       6.975   4.421  14.304  0.00  0.00    +0.000 A 
ATOM     24  C   UNL     1       6.113   3.487  13.708  0.00  0.00    +0.000 A 
ATOM     25  C   UNL     1       6.061   3.361  12.316  0.00  0.00    +0.000 A 
ATOM     26  C   UNL     1       6.864   4.161  11.511  0.00  0.00    +0.000 A 
ATOM     27  C   UNL     1       7.720   5.098  12.091  0.00  0.00    +0.000 A 
ATOM     28  C   UNL     1       7.778   5.227  13.482  0.00  0.00    +0.000 A 
ENDBRANCH  21  23
ENDBRANCH  17  18
ENDBRANCH   2  17
TORSDOF 3
ENDMDL
MODEL 2
REMARK VINA RESULT:      -8.7      2.561      7.790
REMARK  Name = 
REMARK  3 active torsions:
REMARK  status: ('A' for Active; 'I' for Inactive)
REMARK    1  A    between atoms: C_2  and  S_3
REMARK    2  A    between atoms: S_3  and  C_4
REMARK    3  A    between atoms: C_7  and  C_8
REMARK                            x       y       z     vdW  Elec       q    Type
REMARK                         _______ _______ _______ _____ _____    ______ ____
ROOT
ATOM      1  O   UNL     1       1.295   5.920  17.811  0.00  0.00    +0.000 OA
ATOM      2  C   UNL     1       2.509   5.822  17.648  0.00  0.00    +0.000 C 
ATOM      3  N   UNL     1       3.179   4.571  17.455  0.00  0.00    +0.000 N 
ATOM      4  C   UNL     1       4.547   4.562  17.069  0.00  0.00    +0.000 A 
ATOM      5  C   UNL     1       4.845   5.024  15.773  0.00  0.00    +0.000 A 
ATOM      6  C   UNL     1       6.164   5.147  15.350  0.00  0.00    +0.000 A 
ATOM      7  C   UNL     1       7.196   4.791  16.213  0.00  0.00    +0.000 A 
ATOM      8  C   UNL     1       6.908   4.312  17.497  0.00  0.00    +0.000 A 
ATOM      9  C   UNL     1       5.583   4.195  17.939  0.00  0.00    +0.000 A 
ATOM     10  S   UNL     1       5.274   3.762  19.642  0.00  0.00    +0.000 S 
ATOM     11  C   UNL     1       3.517   3.483  19.610  0.00  0.00    +0.000 A 
ATOM     12  C   UNL     1       2.824   3.233  20.797  0.00  0.00    +0.000 A 
ATOM     13  C   UNL     1       1.446   2.996  20.777  0.00  0.00    +0.000 A 
ATOM     14  C   UNL     1       0.771   2.888  19.565  0.00  0.00    +0.000 A 
ATOM     15  C   UNL     1       1.440   3.175  18.385  0.00  0.00    +0.000 A 
ATOM     16  C   UNL     1       2.773   3.608  18.432  0.00  0.00    +0.000 A 
ENDROOT
BRANCH   2  17
ATOM     17  S   UNL     1       3.554   7.241  17.867  0.00  0.00    +0.000 S 
BRANCH  17  18
ATOM     18  C   UNL     1       2.336   8.363  18.344  0.00  0.00    +0.000 A 
ATOM     19  N   UNL     1       1.614   9.075  17.505  0.00  0.00    +0.000 NA
ATOM     20  N   UNL     1       0.705   9.771  18.275  0.00  0.00    +0.000 NA
ATOM     21  C   UNL     1       0.929   9.420  19.532  0.00  0.00    +0.000 A 
ATOM     22  O   UNL     1       1.941   8.514  19.645  0.00  0.00    +0.000 OA
BRANCH  21  23
ATOM     23  C   UNL     1       0.251   9.831  20.746  0.00  0.00    +0.000 A 
ATOM     24  C   UNL     1      -0.431  11.059  20.780  0.00  0.00    +0.000 A 
ATOM     25  C   UNL     1      -1.085  11.472  21.945  0.00  0.00    +0.000 A 
ATOM     26  C   UNL     1      -1.066  10.669  23.080  0.00  0.00    +0.000 A 
ATOM     27  C   UNL     1      -0.398   9.444  23.056  0.00  0.00    +0.000 A 
ATOM     28  C   UNL     1       0.261   9.027  21.896  0.00  0.00    +0.000 A 
ENDBRANCH  21  23
ENDBRANCH  17  18
ENDBRANCH   2  17
TORSDOF 3
ENDMDL
MODEL 3
REMARK VINA RESULT:      -8.5      2.425      7.827
REMARK  Name = 
REMARK  3 active torsions:
REMARK  status: ('A' for Active; 'I' for Inactive)
REMARK    1  A    between atoms: C_2  and  S_3
REMARK    2  A    between atoms: S_3  and  C_4
REMARK    3  A    between atoms: C_7  and  C_8
REMARK                            x       y       z     vdW  Elec       q    Type
REMARK                         _______ _______ _______ _____ _____    ______ ____
ROOT
ATOM      1  O   UNL     1       4.747   7.634  17.745  0.00  0.00    +0.000 OA
ATOM      2  C   UNL     1       3.885   6.809  18.040  0.00  0.00    +0.000 C 
ATOM      3  N   UNL     1       4.170   5.582  18.722  0.00  0.00    +0.000 N 
ATOM      4  C   UNL     1       3.097   4.786  19.208  0.00  0.00    +0.000 A 
ATOM      5  C   UNL     1       2.350   5.313  20.279  0.00  0.00    +0.000 A 
ATOM      6  C   UNL     1       1.220   4.650  20.748  0.00  0.00    +0.000 A 
ATOM      7  C   UNL     1       0.841   3.446  20.163  0.00  0.00    +0.000 A 
ATOM      8  C   UNL     1       1.589   2.906  19.110  0.00  0.00    +0.000 A 
ATOM      9  C   UNL     1       2.722   3.570  18.621  0.00  0.00    +0.000 A 
ATOM     10  S   UNL     1       3.531   2.941  17.160  0.00  0.00    +0.000 S 
ATOM     11  C   UNL     1       5.005   3.936  17.130  0.00  0.00    +0.000 A 
ATOM     12  C   UNL     1       5.888   3.852  16.050  0.00  0.00    +0.000 A 
ATOM     13  C   UNL     1       7.057   4.618  16.028  0.00  0.00    +0.000 A 
ATOM     14  C   UNL     1       7.414   5.384  17.134  0.00  0.00    +0.000 A 
ATOM     15  C   UNL     1       6.526   5.508  18.193  0.00  0.00    +0.000 A 
ATOM     16  C   UNL     1       5.267   4.893  18.116  0.00  0.00    +0.000 A 
ENDROOT
BRANCH   2  17
ATOM     17  S   UNL     1       2.228   6.996  17.430  0.00  0.00    +0.000 S 
BRANCH  17  18
ATOM     18  C   UNL     1       1.843   8.472  18.232  0.00  0.00    +0.000 A 
ATOM     19  N   UNL     1       2.072   9.669  17.733  0.00  0.00    +0.000 NA
ATOM     20  N   UNL     1       1.543  10.569  18.635  0.00  0.00    +0.000 NA
ATOM     21  C   UNL     1       1.014   9.853  19.615  0.00  0.00    +0.000 A 
ATOM     22  O   UNL     1       1.154   8.513  19.412  0.00  0.00    +0.000 OA
BRANCH  21  23
ATOM     23  C   UNL     1       0.310  10.287  20.806  0.00  0.00    +0.000 A 
ATOM     24  C   UNL     1       0.238   9.436  21.920  0.00  0.00    +0.000 A 
ATOM     25  C   UNL     1      -0.442   9.838  23.074  0.00  0.00    +0.000 A 
ATOM     26  C   UNL     1      -1.054  11.086  23.127  0.00  0.00    +0.000 A 
ATOM     27  C   UNL     1      -0.983  11.944  22.029  0.00  0.00    +0.000 A 
ATOM     28  C   UNL     1      -0.307  11.546  20.871  0.00  0.00    +0.000 A 
ENDBRANCH  21  23
ENDBRANCH  17  18
ENDBRANCH   2  17
TORSDOF 3
ENDMDL
MODEL 4
REMARK VINA RESULT:      -8.3      1.005      1.413
REMARK  Name = 
REMARK  3 active torsions:
REMARK  status: ('A' for Active; 'I' for Inactive)
REMARK    1  A    between atoms: C_2  and  S_3
REMARK    2  A    between atoms: S_3  and  C_4
REMARK    3  A    between atoms: C_7  and  C_8
REMARK                            x       y       z     vdW  Elec       q    Type
REMARK                         _______ _______ _______ _____ _____    ______ ____
ROOT
ATOM      1  O   UNL     1       4.078   7.561  17.023  0.00  0.00    +0.000 OA
ATOM      2  C   UNL     1       3.957   6.442  17.518  0.00  0.00    +0.000 C 
ATOM      3  N   UNL     1       2.691   5.866  17.860  0.00  0.00    +0.000 N 
ATOM      4  C   UNL     1       2.624   4.496  18.233  0.00  0.00    +0.000 A 
ATOM      5  C   UNL     1       2.884   3.550  17.223  0.00  0.00    +0.000 A 
ATOM      6  C   UNL     1       2.942   2.192  17.522  0.00  0.00    +0.000 A 
ATOM      7  C   UNL     1       2.722   1.769  18.829  0.00  0.00    +0.000 A 
ATOM      8  C   UNL     1       2.444   2.702  19.836  0.00  0.00    +0.000 A 
ATOM      9  C   UNL     1       2.395   4.073  19.550  0.00  0.00    +0.000 A 
ATOM     10  S   UNL     1       2.226   5.233  20.895  0.00  0.00    +0.000 S 
ATOM     11  C   UNL     1       1.945   6.748  20.007  0.00  0.00    +0.000 A 
ATOM     12  C   UNL     1       1.878   7.963  20.694  0.00  0.00    +0.000 A 
ATOM     13  C   UNL     1       1.640   9.156  20.004  0.00  0.00    +0.000 A 
ATOM     14  C   UNL     1       1.348   9.132  18.643  0.00  0.00    +0.000 A 
ATOM     15  C   UNL     1       1.452   7.939  17.944  0.00  0.00    +0.000 A 
ATOM     16  C   UNL     1       1.888   6.782  18.609  0.00  0.00    +0.000 A 
ENDROOT
BRANCH   2  17
ATOM     17  S   UNL     1       5.393   5.545  18.051  0.00  0.00    +0.000 S 
BRANCH  17  18
ATOM     18  C   UNL     1       6.115   5.308  16.504  0.00  0.00    +0.000 A 
ATOM     19  N   UNL     1       7.317   5.731  16.174  0.00  0.00    +0.000 NA
ATOM     20  N   UNL     1       7.550   5.266  14.896  0.00  0.00    +0.000 NA
ATOM     21  C   UNL     1       6.475   4.578  14.543  0.00  0.00    +0.000 A 
ATOM     22  O   UNL     1       5.532   4.551  15.526  0.00  0.00    +0.000 OA
BRANCH  21  23
ATOM     23  C   UNL     1       6.195   3.859  13.316  0.00  0.00    +0.000 A 
ATOM     24  C   UNL     1       7.256   3.344  12.554  0.00  0.00    +0.000 A 
ATOM     25  C   UNL     1       7.003   2.653  11.365  0.00  0.00    +0.000 A 
ATOM     26  C   UNL     1       5.696   2.470  10.927  0.00  0.00    +0.000 A 
ATOM     27  C   UNL     1       4.632   2.971  11.679  0.00  0.00    +0.000 A 
ATOM     28  C   UNL     1       4.879   3.665  12.867  0.00  0.00    +0.000 A 
ENDBRANCH  21  23
ENDBRANCH  17  18
ENDBRANCH   2  17
TORSDOF 3
ENDMDL
MODEL 5
REMARK VINA RESULT:      -8.2      2.627      7.811
REMARK  Name = 
REMARK  3 active torsions:
REMARK  status: ('A' for Active; 'I' for Inactive)
REMARK    1  A    between atoms: C_2  and  S_3
REMARK    2  A    between atoms: S_3  and  C_4
REMARK    3  A    between atoms: C_7  and  C_8
REMARK                            x       y       z     vdW  Elec       q    Type
REMARK                         _______ _______ _______ _____ _____    ______ ____
ROOT
ATOM      1  O   UNL     1       1.169   5.209  17.573  0.00  0.00    +0.000 OA
ATOM      2  C   UNL     1       2.389   5.353  17.550  0.00  0.00    +0.000 C 
ATOM      3  N   UNL     1       3.308   4.259  17.449  0.00  0.00    +0.000 N 
ATOM      4  C   UNL     1       4.686   4.522  17.221  0.00  0.00    +0.000 A 
ATOM      5  C   UNL     1       5.033   5.046  15.961  0.00  0.00    +0.000 A 
ATOM      6  C   UNL     1       6.342   5.430  15.688  0.00  0.00    +0.000 A 
ATOM      7  C   UNL     1       7.318   5.275  16.666  0.00  0.00    +0.000 A 
ATOM      8  C   UNL     1       6.987   4.736  17.916  0.00  0.00    +0.000 A 
ATOM      9  C   UNL     1       5.669   4.357  18.207  0.00  0.00    +0.000 A 
ATOM     10  S   UNL     1       5.260   3.854  19.869  0.00  0.00    +0.000 S 
ATOM     11  C   UNL     1       3.607   3.237  19.642  0.00  0.00    +0.000 A 
ATOM     12  C   UNL     1       2.846   2.844  20.747  0.00  0.00    +0.000 A 
ATOM     13  C   UNL     1       1.552   2.342  20.574  0.00  0.00    +0.000 A 
ATOM     14  C   UNL     1       1.054   2.116  19.295  0.00  0.00    +0.000 A 
ATOM     15  C   UNL     1       1.782   2.540  18.194  0.00  0.00    +0.000 A 
ATOM     16  C   UNL     1       2.991   3.225  18.386  0.00  0.00    +0.000 A 
ENDROOT
BRANCH   2  17
ATOM     17  S   UNL     1       3.104   6.946  17.868  0.00  0.00    +0.000 S 
BRANCH  17  18
ATOM     18  C   UNL     1       2.216   7.326  19.295  0.00  0.00    +0.000 A 
ATOM     19  N   UNL     1       2.074   6.511  20.319  0.00  0.00    +0.000 NA
ATOM     20  N   UNL     1       1.379   7.219  21.279  0.00  0.00    +0.000 NA
ATOM     21  C   UNL     1       1.160   8.423  20.775  0.00  0.00    +0.000 A 
ATOM     22  O   UNL     1       1.681   8.564  19.524  0.00  0.00    +0.000 OA
BRANCH  21  23
ATOM     23  C   UNL     1       0.496   9.569  21.364  0.00  0.00    +0.000 A 
ATOM     24  C   UNL     1      -0.264   9.407  22.535  0.00  0.00    +0.000 A 
ATOM     25  C   UNL     1      -0.915  10.502  23.112  0.00  0.00    +0.000 A 
ATOM     26  C   UNL     1      -0.816  11.761  22.530  0.00  0.00    +0.000 A 
ATOM     27  C   UNL     1      -0.059  11.936  21.371  0.00  0.00    +0.000 A 
ATOM     28  C   UNL     1       0.592  10.845  20.788  0.00  0.00    +0.000 A 
ENDBRANCH  21  23
ENDBRANCH  17  18
ENDBRANCH   2  17
TORSDOF 3
ENDMDL
MODEL 6
REMARK VINA RESULT:      -7.9      2.586      7.646
REMARK  Name = 
REMARK  3 active torsions:
REMARK  status: ('A' for Active; 'I' for Inactive)
REMARK    1  A    between atoms: C_2  and  S_3
REMARK    2  A    between atoms: S_3  and  C_4
REMARK    3  A    between atoms: C_7  and  C_8
REMARK                            x       y       z     vdW  Elec       q    Type
REMARK                         _______ _______ _______ _____ _____    ______ ____
ROOT
ATOM      1  O   UNL     1       1.214   5.606  17.787  0.00  0.00    +0.000 OA
ATOM      2  C   UNL     1       2.438   5.617  17.676  0.00  0.00    +0.000 C 
ATOM      3  N   UNL     1       3.221   4.433  17.485  0.00  0.00    +0.000 N 
ATOM      4  C   UNL     1       4.600   4.552  17.160  0.00  0.00    +0.000 A 
ATOM      5  C   UNL     1       4.911   5.072  15.889  0.00  0.00    +0.000 A 
ATOM      6  C   UNL     1       6.231   5.319  15.528  0.00  0.00    +0.000 A 
ATOM      7  C   UNL     1       7.252   5.031  16.428  0.00  0.00    +0.000 A 
ATOM      8  C   UNL     1       6.954   4.496  17.687  0.00  0.00    +0.000 A 
ATOM      9  C   UNL     1       5.627   4.254  18.067  0.00  0.00    +0.000 A 
ATOM     10  S   UNL     1       5.284   3.751  19.745  0.00  0.00    +0.000 S 
ATOM     11  C   UNL     1       3.561   3.323  19.629  0.00  0.00    +0.000 A 
ATOM     12  C   UNL     1       2.843   2.984  20.778  0.00  0.00    +0.000 A 
ATOM     13  C   UNL     1       1.493   2.630  20.692  0.00  0.00    +0.000 A 
ATOM     14  C   UNL     1       0.882   2.496  19.449  0.00  0.00    +0.000 A 
ATOM     15  C   UNL     1       1.572   2.870  18.305  0.00  0.00    +0.000 A 
ATOM     16  C   UNL     1       2.860   3.414  18.421  0.00  0.00    +0.000 A 
ENDROOT
BRANCH   2  17
ATOM     17  S   UNL     1       3.345   7.114  17.972  0.00  0.00    +0.000 S 
BRANCH  17  18
ATOM     18  C   UNL     1       2.197   7.890  18.997  0.00  0.00    +0.000 A 
ATOM     19  N   UNL     1       2.069   7.647  20.285  0.00  0.00    +0.000 NA
ATOM     20  N   UNL     1       1.113   8.529  20.748  0.00  0.00    +0.000 NA
ATOM     21  C   UNL     1       0.737   9.257  19.709  0.00  0.00    +0.000 A 
ATOM     22  O   UNL     1       1.399   8.915  18.569  0.00  0.00    +0.000 OA
BRANCH  21  23
ATOM     23  C   UNL     1      -0.222  10.343  19.635  0.00  0.00    +0.000 A 
ATOM     24  C   UNL     1      -0.460  11.140  20.767  0.00  0.00    +0.000 A 
ATOM     25  C   UNL     1      -1.385  12.186  20.713  0.00  0.00    +0.000 A 
ATOM     26  C   UNL     1      -2.080  12.446  19.536  0.00  0.00    +0.000 A 
ATOM     27  C   UNL     1      -1.847  11.666  18.403  0.00  0.00    +0.000 A 
ATOM     28  C   UNL     1      -0.925  10.616  18.452  0.00  0.00    +0.000 A 
ENDBRANCH  21  23
ENDBRANCH  17  18
ENDBRANCH   2  17
TORSDOF 3
ENDMDL
MODEL 7
REMARK VINA RESULT:      -7.6      2.476      7.338
REMARK  Name = 
REMARK  3 active torsions:
REMARK  status: ('A' for Active; 'I' for Inactive)
REMARK    1  A    between atoms: C_2  and  S_3
REMARK    2  A    between atoms: S_3  and  C_4
REMARK    3  A    between atoms: C_7  and  C_8
REMARK                            x       y       z     vdW  Elec       q    Type
REMARK                         _______ _______ _______ _____ _____    ______ ____
ROOT
ATOM      1  O   UNL     1       4.515   7.361  17.876  0.00  0.00    +0.000 OA
ATOM      2  C   UNL     1       3.778   6.451  18.249  0.00  0.00    +0.000 C 
ATOM      3  N   UNL     1       4.261   5.235  18.831  0.00  0.00    +0.000 N 
ATOM      4  C   UNL     1       3.340   4.328  19.421  0.00  0.00    +0.000 A 
ATOM      5  C   UNL     1       2.704   4.748  20.605  0.00  0.00    +0.000 A 
ATOM      6  C   UNL     1       1.713   3.969  21.193  0.00  0.00    +0.000 A 
ATOM      7  C   UNL     1       1.363   2.755  20.612  0.00  0.00    +0.000 A 
ATOM      8  C   UNL     1       2.004   2.319  19.445  0.00  0.00    +0.000 A 
ATOM      9  C   UNL     1       2.995   3.101  18.837  0.00  0.00    +0.000 A 
ATOM     10  S   UNL     1       3.647   2.596  17.254  0.00  0.00    +0.000 S 
ATOM     11  C   UNL     1       5.009   3.725  17.070  0.00  0.00    +0.000 A 
ATOM     12  C   UNL     1       5.738   3.756  15.879  0.00  0.00    +0.000 A 
ATOM     13  C   UNL     1       6.822   4.629  15.733  0.00  0.00    +0.000 A 
ATOM     14  C   UNL     1       7.259   5.388  16.814  0.00  0.00    +0.000 A 
ATOM     15  C   UNL     1       6.519   5.396  17.986  0.00  0.00    +0.000 A 
ATOM     16  C   UNL     1       5.320   4.670  18.054  0.00  0.00    +0.000 A 
ENDROOT
BRANCH   2  17
ATOM     17  S   UNL     1       2.043   6.502  17.875  0.00  0.00    +0.000 S 
BRANCH  17  18
ATOM     18  C   UNL     1       1.645   7.911  18.784  0.00  0.00    +0.000 A 
ATOM     19  N   UNL     1       1.717   7.993  20.096  0.00  0.00    +0.000 NA
ATOM     20  N   UNL     1       1.404   9.299  20.417  0.00  0.00    +0.000 NA
ATOM     21  C   UNL     1       1.178   9.924  19.272  0.00  0.00    +0.000 A 
ATOM     22  O   UNL     1       1.332   9.105  18.194  0.00  0.00    +0.000 OA
BRANCH  21  23
ATOM     23  C   UNL     1       0.834  11.311  19.025  0.00  0.00    +0.000 A 
ATOM     24  C   UNL     1      -0.512  11.710  19.055  0.00  0.00    +0.000 A 
ATOM     25  C   UNL     1      -0.860  13.043  18.813  0.00  0.00    +0.000 A 
ATOM     26  C   UNL     1       0.126  13.984  18.539  0.00  0.00    +0.000 A 
ATOM     27  C   UNL     1       1.467  13.602  18.513  0.00  0.00    +0.000 A 
ATOM     28  C   UNL     1       1.822  12.270  18.752  0.00  0.00    +0.000 A 
ENDBRANCH  21  23
ENDBRANCH  17  18
ENDBRANCH   2  17
TORSDOF 3
ENDMDL
MODEL 8
REMARK VINA RESULT:      -7.3      9.427     12.615
REMARK  Name = 
REMARK  3 active torsions:
REMARK  status: ('A' for Active; 'I' for Inactive)
REMARK    1  A    between atoms: C_2  and  S_3
REMARK    2  A    between atoms: S_3  and  C_4
REMARK    3  A    between atoms: C_7  and  C_8
REMARK                            x       y       z     vdW  Elec       q    Type
REMARK                         _______ _______ _______ _____ _____    ______ ____
ROOT
ATOM      1  O   UNL     1       7.639  13.266  17.490  0.00  0.00    +0.000 OA
ATOM      2  C   UNL     1       8.401  14.179  17.800  0.00  0.00    +0.000 C 
ATOM      3  N   UNL     1       9.823  14.024  17.881  0.00  0.00    +0.000 N 
ATOM      4  C   UNL     1      10.643  15.174  18.042  0.00  0.00    +0.000 A 
ATOM      5  C   UNL     1      10.711  16.064  16.953  0.00  0.00    +0.000 A 
ATOM      6  C   UNL     1      11.406  17.264  17.060  0.00  0.00    +0.000 A 
ATOM      7  C   UNL     1      12.054  17.575  18.251  0.00  0.00    +0.000 A 
ATOM      8  C   UNL     1      12.008  16.687  19.333  0.00  0.00    +0.000 A 
ATOM      9  C   UNL     1      11.301  15.481  19.241  0.00  0.00    +0.000 A 
ATOM     10  S   UNL     1      11.113  14.473  20.702  0.00  0.00    +0.000 S 
ATOM     11  C   UNL     1      10.414  12.992  20.008  0.00  0.00    +0.000 A 
ATOM     12  C   UNL     1       9.986  11.959  20.846  0.00  0.00    +0.000 A 
ATOM     13  C   UNL     1       9.451  10.784  20.307  0.00  0.00    +0.000 A 
ATOM     14  C   UNL     1       9.450  10.583  18.930  0.00  0.00    +0.000 A 
ATOM     15  C   UNL     1       9.832  11.617  18.089  0.00  0.00    +0.000 A 
ATOM     16  C   UNL     1      10.178  12.862  18.635  0.00  0.00    +0.000 A 
ENDROOT
BRANCH   2  17
ATOM     17  S   UNL     1       7.749  15.721  18.392  0.00  0.00    +0.000 S 
BRANCH  17  18
ATOM     18  C   UNL     1       7.045  15.137  19.853  0.00  0.00    +0.000 A 
ATOM     19  N   UNL     1       5.750  15.075  20.079  0.00  0.00    +0.000 NA
ATOM     20  N   UNL     1       5.604  14.473  21.313  0.00  0.00    +0.000 NA
ATOM     21  C   UNL     1       6.825  14.197  21.744  0.00  0.00    +0.000 A 
ATOM     22  O   UNL     1       7.786  14.576  20.856  0.00  0.00    +0.000 OA
BRANCH  21  23
ATOM     23  C   UNL     1       7.252  13.546  22.967  0.00  0.00    +0.000 A 
ATOM     24  C   UNL     1       7.837  14.307  23.992  0.00  0.00    +0.000 A 
ATOM     25  C   UNL     1       8.259  13.693  25.175  0.00  0.00    +0.000 A 
ATOM     26  C   UNL     1       8.103  12.322  25.346  0.00  0.00    +0.000 A 
ATOM     27  C   UNL     1       7.516  11.557  24.338  0.00  0.00    +0.000 A 
ATOM     28  C   UNL     1       7.094  12.164  23.152  0.00  0.00    +0.000 A 
ENDBRANCH  21  23
ENDBRANCH  17  18
ENDBRANCH   2  17
TORSDOF 3
ENDMDL
MODEL 9
REMARK VINA RESULT:      -7.2      4.568      7.408
REMARK  Name = 
REMARK  3 active torsions:
REMARK  status: ('A' for Active; 'I' for Inactive)
REMARK    1  A    between atoms: C_2  and  S_3
REMARK    2  A    between atoms: S_3  and  C_4
REMARK    3  A    between atoms: C_7  and  C_8
REMARK                            x       y       z     vdW  Elec       q    Type
REMARK                         _______ _______ _______ _____ _____    ______ ____
ROOT
ATOM      1  O   UNL     1       1.806  12.373  19.509  0.00  0.00    +0.000 OA
ATOM      2  C   UNL     1       0.706  11.866  19.306  0.00  0.00    +0.000 C 
ATOM      3  N   UNL     1      -0.389  12.573  18.711  0.00  0.00    +0.000 N 
ATOM      4  C   UNL     1      -1.555  11.858  18.323  0.00  0.00    +0.000 A 
ATOM      5  C   UNL     1      -1.423  10.968  17.240  0.00  0.00    +0.000 A 
ATOM      6  C   UNL     1      -2.484  10.152  16.859  0.00  0.00    +0.000 A 
ATOM      7  C   UNL     1      -3.690  10.233  17.547  0.00  0.00    +0.000 A 
ATOM      8  C   UNL     1      -3.836  11.130  18.613  0.00  0.00    +0.000 A 
ATOM      9  C   UNL     1      -2.771  11.948  19.014  0.00  0.00    +0.000 A 
ATOM     10  S   UNL     1      -2.944  12.933  20.491  0.00  0.00    +0.000 S 
ATOM     11  C   UNL     1      -1.487  13.949  20.397  0.00  0.00    +0.000 A 
ATOM     12  C   UNL     1      -1.159  14.805  21.451  0.00  0.00    +0.000 A 
ATOM     13  C   UNL     1      -0.024  15.620  21.376  0.00  0.00    +0.000 A 
ATOM     14  C   UNL     1       0.723  15.674  20.204  0.00  0.00    +0.000 A 
ATOM     15  C   UNL     1       0.432  14.798  19.169  0.00  0.00    +0.000 A 
ATOM     16  C   UNL     1      -0.585  13.846  19.332  0.00  0.00    +0.000 A 
ENDROOT
BRANCH   2  17
ATOM     17  S   UNL     1       0.335  10.255  19.954  0.00  0.00    +0.000 S 
BRANCH  17  18
ATOM     18  C   UNL     1       1.307   9.332  18.870  0.00  0.00    +0.000 A 
ATOM     19  N   UNL     1       1.866   9.816  17.781  0.00  0.00    +0.000 NA
ATOM     20  N   UNL     1       2.623   8.790  17.250  0.00  0.00    +0.000 NA
ATOM     21  C   UNL     1       2.481   7.757  18.065  0.00  0.00    +0.000 A 
ATOM     22  O   UNL     1       1.672   8.039  19.125  0.00  0.00    +0.000 OA
BRANCH  21  23
ATOM     23  C   UNL     1       3.071   6.434  17.998  0.00  0.00    +0.000 A 
ATOM     24  C   UNL     1       4.453   6.299  17.784  0.00  0.00    +0.000 A 
ATOM     25  C   UNL     1       5.036   5.030  17.710  0.00  0.00    +0.000 A 
ATOM     26  C   UNL     1       4.251   3.891  17.849  0.00  0.00    +0.000 A 
ATOM     27  C   UNL     1       2.879   4.012  18.070  0.00  0.00    +0.000 A 
ATOM     28  C   UNL     1       2.289   5.278  18.141  0.00  0.00    +0.000 A 
ENDBRANCH  21  23
ENDBRANCH  17  18
ENDBRANCH   2  17
TORSDOF 3
ENDMDL
