MODEL 1
REMARK VINA RESULT:      -6.3      0.000      0.000
REMARK  Name = 
REMARK  10 active torsions:
REMARK  status: ('A' for Active; 'I' for Inactive)
REMARK    1  A    between atoms: C_1  and  C_2
REMARK    2  A    between atoms: C_2  and  O_3
REMARK    3  A    between atoms: O_3  and  C_4
REMARK    4  A    between atoms: C_9  and  O_10
REMARK    5  A    between atoms: O_10  and  C_11
REMARK    6  A    between atoms: C_11  and  C_12
REMARK    7  A    between atoms: C_13  and  C_14
REMARK    8  A    between atoms: C_16  and  O_17
REMARK    9  A    between atoms: O_17  and  C_18
REMARK   10  A    between atoms: C_19  and  O_20
REMARK                            x       y       z     vdW  Elec       q    Type
REMARK                         _______ _______ _______ _____ _____    ______ ____
ROOT
ATOM      1  C   UNL     1      -4.575  11.310  17.814  0.00  0.00    +0.000 A 
ATOM      2  C   UNL     1      -4.192  11.898  19.022  0.00  0.00    +0.000 A 
ATOM      3  C   UNL     1      -2.851  12.194  19.286  0.00  0.00    +0.000 A 
ATOM      4  C   UNL     1      -1.857  11.840  18.365  0.00  0.00    +0.000 A 
ATOM      5  C   UNL     1      -2.250  11.308  17.123  0.00  0.00    +0.000 A 
ATOM      6  C   UNL     1      -3.600  11.068  16.824  0.00  0.00    +0.000 A 
ATOM      7  C   UNL     1      -0.388  11.996  18.750  0.00  0.00    +0.000 C 
ATOM      8  N   UNL     1      -0.109  13.229  19.517  0.00  0.00    +0.000 NA
ATOM      9  C   UNL     1      -1.227  13.783  20.295  0.00  0.00    +0.000 C 
ATOM     10  C   UNL     1      -2.441  12.880  20.554  0.00  0.00    +0.000 C 
ATOM     11  H   UNL     1       0.205  13.946  18.863  0.00  0.00    +0.000 HD
ENDROOT
BRANCH   7  12
ATOM     12  C   UNL     1       0.175  10.749  19.450  0.00  0.00    +0.000 A 
ATOM     13  C   UNL     1      -0.423  10.252  20.631  0.00  0.00    +0.000 A 
ATOM     14  C   UNL     1      -0.011   9.064  21.249  0.00  0.00    +0.000 A 
ATOM     15  C   UNL     1       1.052   8.358  20.697  0.00  0.00    +0.000 A 
ATOM     16  C   UNL     1       1.697   8.841  19.560  0.00  0.00    +0.000 A 
ATOM     17  C   UNL     1       1.276  10.029  18.948  0.00  0.00    +0.000 A 
ATOM     18 CL   UNL     1       2.218  10.575  17.603  0.00  0.00    +0.000 Cl
BRANCH  14  19
ATOM     19  O   UNL     1      -0.630   8.778  22.434  0.00  0.00    +0.000 OA
ATOM     20  C   UNL     1      -0.200   9.516  23.574  0.00  0.00    +0.000 C 
ENDBRANCH  14  19
BRANCH  15  21
ATOM     21  O   UNL     1       1.567   7.219  21.241  0.00  0.00    +0.000 OA
ATOM     22  H   UNL     1       1.722   7.393  22.183  0.00  0.00    +0.000 HD
ENDBRANCH  15  21
ENDBRANCH   7  12
BRANCH   1  23
ATOM     23  O   UNL     1      -5.919  11.072  17.722  0.00  0.00    +0.000 OA
BRANCH  23  25
ATOM     24  C   UNL     1      -6.977   9.576  19.253  0.00  0.00    +0.000 C 
ATOM     25  C   UNL     1      -6.650  11.027  18.947  0.00  0.00    +0.000 C 
ENDBRANCH  23  25
ENDBRANCH   1  23
BRANCH   6  26
ATOM     26  O   UNL     1      -4.046  10.622  15.611  0.00  0.00    +0.000 OA
BRANCH  26  27
ATOM     27  C   UNL     1      -3.102  10.144  14.657  0.00  0.00    +0.000 C 
ATOM     28  C   UNL     1      -3.856   9.922  13.354  0.00  0.00    +0.000 C 
ENDBRANCH  26  27
ENDBRANCH   6  26
TORSDOF 7
ENDMDL
MODEL 2
REMARK VINA RESULT:      -6.1      3.340      7.353
REMARK  Name = 
REMARK  10 active torsions:
REMARK  status: ('A' for Active; 'I' for Inactive)
REMARK    1  A    between atoms: C_1  and  C_2
REMARK    2  A    between atoms: C_2  and  O_3
REMARK    3  A    between atoms: O_3  and  C_4
REMARK    4  A    between atoms: C_9  and  O_10
REMARK    5  A    between atoms: O_10  and  C_11
REMARK    6  A    between atoms: C_11  and  C_12
REMARK    7  A    between atoms: C_13  and  C_14
REMARK    8  A    between atoms: C_16  and  O_17
REMARK    9  A    between atoms: O_17  and  C_18
REMARK   10  A    between atoms: C_19  and  O_20
REMARK                            x       y       z     vdW  Elec       q    Type
REMARK                         _______ _______ _______ _____ _____    ______ ____
ROOT
ATOM      1  C   UNL     1      -0.332  12.682  21.987  0.00  0.00    +0.000 A 
ATOM      2  C   UNL     1      -0.975  13.824  21.505  0.00  0.00    +0.000 A 
ATOM      3  C   UNL     1      -2.325  14.061  21.783  0.00  0.00    +0.000 A 
ATOM      4  C   UNL     1      -3.074  13.117  22.497  0.00  0.00    +0.000 A 
ATOM      5  C   UNL     1      -2.410  12.001  23.037  0.00  0.00    +0.000 A 
ATOM      6  C   UNL     1      -1.040  11.787  22.817  0.00  0.00    +0.000 A 
ATOM      7  C   UNL     1      -4.584  13.301  22.628  0.00  0.00    +0.000 C 
ATOM      8  N   UNL     1      -4.988  14.707  22.849  0.00  0.00    +0.000 NA
ATOM      9  C   UNL     1      -4.075  15.738  22.337  0.00  0.00    +0.000 C 
ATOM     10  C   UNL     1      -3.006  15.314  21.321  0.00  0.00    +0.000 C 
ATOM     11  H   UNL     1      -5.096  14.851  23.853  0.00  0.00    +0.000 HD
ENDROOT
BRANCH   7  12
ATOM     12  C   UNL     1      -5.359  12.661  21.465  0.00  0.00    +0.000 A 
ATOM     13  C   UNL     1      -4.774  12.544  20.183  0.00  0.00    +0.000 A 
ATOM     14  C   UNL     1      -5.399  11.880  19.120  0.00  0.00    +0.000 A 
ATOM     15  C   UNL     1      -6.663  11.338  19.323  0.00  0.00    +0.000 A 
ATOM     16  C   UNL     1      -7.292  11.473  20.559  0.00  0.00    +0.000 A 
ATOM     17  C   UNL     1      -6.658  12.138  21.616  0.00  0.00    +0.000 A 
ATOM     18 CL   UNL     1      -7.581  12.326  23.068  0.00  0.00    +0.000 Cl
BRANCH  14  19
ATOM     19  O   UNL     1      -4.738  11.942  17.925  0.00  0.00    +0.000 OA
ATOM     20  C   UNL     1      -3.869  10.856  17.619  0.00  0.00    +0.000 C 
ENDBRANCH  14  19
BRANCH  15  21
ATOM     21  O   UNL     1      -7.383  10.714  18.348  0.00  0.00    +0.000 OA
ATOM     22  H   UNL     1      -8.242  10.475  18.730  0.00  0.00    +0.000 HD
ENDBRANCH  15  21
ENDBRANCH   7  12
BRANCH   1  23
ATOM     23  O   UNL     1       0.981  12.592  21.611  0.00  0.00    +0.000 OA
BRANCH  23  25
ATOM     24  C   UNL     1       2.237  13.212  19.678  0.00  0.00    +0.000 C 
ATOM     25  C   UNL     1       1.239  12.225  20.256  0.00  0.00    +0.000 C 
ENDBRANCH  23  25
ENDBRANCH   1  23
BRANCH   6  26
ATOM     26  O   UNL     1      -0.327  10.762  23.374  0.00  0.00    +0.000 OA
BRANCH  26  27
ATOM     27  C   UNL     1      -0.424   9.460  22.805  0.00  0.00    +0.000 C 
ATOM     28  C   UNL     1       0.953   9.107  22.260  0.00  0.00    +0.000 C 
ENDBRANCH  26  27
ENDBRANCH   6  26
TORSDOF 7
ENDMDL
MODEL 3
REMARK VINA RESULT:      -6.0      2.393      7.123
REMARK  Name = 
REMARK  10 active torsions:
REMARK  status: ('A' for Active; 'I' for Inactive)
REMARK    1  A    between atoms: C_1  and  C_2
REMARK    2  A    between atoms: C_2  and  O_3
REMARK    3  A    between atoms: O_3  and  C_4
REMARK    4  A    between atoms: C_9  and  O_10
REMARK    5  A    between atoms: O_10  and  C_11
REMARK    6  A    between atoms: C_11  and  C_12
REMARK    7  A    between atoms: C_13  and  C_14
REMARK    8  A    between atoms: C_16  and  O_17
REMARK    9  A    between atoms: O_17  and  C_18
REMARK   10  A    between atoms: C_19  and  O_20
REMARK                            x       y       z     vdW  Elec       q    Type
REMARK                         _______ _______ _______ _____ _____    ______ ____
ROOT
ATOM      1  C   UNL     1       2.327   7.387  18.804  0.00  0.00    +0.000 A 
ATOM      2  C   UNL     1       2.479   8.525  18.010  0.00  0.00    +0.000 A 
ATOM      3  C   UNL     1       1.940   9.754  18.400  0.00  0.00    +0.000 A 
ATOM      4  C   UNL     1       1.176   9.848  19.570  0.00  0.00    +0.000 A 
ATOM      5  C   UNL     1       1.078   8.718  20.402  0.00  0.00    +0.000 A 
ATOM      6  C   UNL     1       1.671   7.496  20.049  0.00  0.00    +0.000 A 
ATOM      7  C   UNL     1       0.439  11.148  19.882  0.00  0.00    +0.000 C 
ATOM      8  N   UNL     1       1.221  12.360  19.556  0.00  0.00    +0.000 NA
ATOM      9  C   UNL     1       2.232  12.221  18.498  0.00  0.00    +0.000 C 
ATOM     10  C   UNL     1       2.152  10.992  17.582  0.00  0.00    +0.000 C 
ATOM     11  H   UNL     1       1.693  12.671  20.405  0.00  0.00    +0.000 HD
ENDROOT
BRANCH   7  12
ATOM     12  C   UNL     1      -0.968  11.192  19.265  0.00  0.00    +0.000 A 
ATOM     13  C   UNL     1      -1.291  10.390  18.145  0.00  0.00    +0.000 A 
ATOM     14  C   UNL     1      -2.582  10.320  17.609  0.00  0.00    +0.000 A 
ATOM     15  C   UNL     1      -3.586  11.094  18.181  0.00  0.00    +0.000 A 
ATOM     16  C   UNL     1      -3.296  11.933  19.255  0.00  0.00    +0.000 A 
ATOM     17  C   UNL     1      -2.000  11.995  19.785  0.00  0.00    +0.000 A 
ATOM     18 CL   UNL     1      -1.745  13.145  21.053  0.00  0.00    +0.000 Cl
BRANCH  14  19
ATOM     19  O   UNL     1      -2.702   9.572  16.470  0.00  0.00    +0.000 OA
ATOM     20  C   UNL     1      -2.770  10.288  15.241  0.00  0.00    +0.000 C 
ENDBRANCH  14  19
BRANCH  15  21
ATOM     21  O   UNL     1      -4.865  11.141  17.711  0.00  0.00    +0.000 OA
ATOM     22  H   UNL     1      -5.434  11.411  18.449  0.00  0.00    +0.000 HD
ENDBRANCH  15  21
ENDBRANCH   7  12
BRANCH   1  23
ATOM     23  O   UNL     1       2.898   6.264  18.271  0.00  0.00    +0.000 OA
BRANCH  23  25
ATOM     24  C   UNL     1       4.882   5.317  19.204  0.00  0.00    +0.000 C 
ATOM     25  C   UNL     1       4.321   6.259  18.154  0.00  0.00    +0.000 C 
ENDBRANCH  23  25
ENDBRANCH   1  23
BRANCH   6  26
ATOM     26  O   UNL     1       1.672   6.387  20.848  0.00  0.00    +0.000 OA
BRANCH  26  27
ATOM     27  C   UNL     1       1.096   5.179  20.360  0.00  0.00    +0.000 C 
ATOM     28  C   UNL     1       1.842   4.028  21.020  0.00  0.00    +0.000 C 
ENDBRANCH  26  27
ENDBRANCH   6  26
TORSDOF 7
ENDMDL
MODEL 4
REMARK VINA RESULT:      -5.8      3.360      5.368
REMARK  Name = 
REMARK  10 active torsions:
REMARK  status: ('A' for Active; 'I' for Inactive)
REMARK    1  A    between atoms: C_1  and  C_2
REMARK    2  A    between atoms: C_2  and  O_3
REMARK    3  A    between atoms: O_3  and  C_4
REMARK    4  A    between atoms: C_9  and  O_10
REMARK    5  A    between atoms: O_10  and  C_11
REMARK    6  A    between atoms: C_11  and  C_12
REMARK    7  A    between atoms: C_13  and  C_14
REMARK    8  A    between atoms: C_16  and  O_17
REMARK    9  A    between atoms: O_17  and  C_18
REMARK   10  A    between atoms: C_19  and  O_20
REMARK                            x       y       z     vdW  Elec       q    Type
REMARK                         _______ _______ _______ _____ _____    ______ ____
ROOT
ATOM      1  C   UNL     1      -2.682  10.405  17.492  0.00  0.00    +0.000 A 
ATOM      2  C   UNL     1      -1.331  10.265  17.814  0.00  0.00    +0.000 A 
ATOM      3  C   UNL     1      -0.767  10.968  18.883  0.00  0.00    +0.000 A 
ATOM      4  C   UNL     1      -1.541  11.882  19.610  0.00  0.00    +0.000 A 
ATOM      5  C   UNL     1      -2.916  11.973  19.328  0.00  0.00    +0.000 A 
ATOM      6  C   UNL     1      -3.503  11.222  18.298  0.00  0.00    +0.000 A 
ATOM      7  C   UNL     1      -0.866  12.777  20.647  0.00  0.00    +0.000 C 
ATOM      8  N   UNL     1       0.176  12.083  21.435  0.00  0.00    +0.000 NA
ATOM      9  C   UNL     1       0.830  10.936  20.788  0.00  0.00    +0.000 C 
ATOM     10  C   UNL     1       0.668  10.777  19.270  0.00  0.00    +0.000 C 
ATOM     11  H   UNL     1      -0.248  11.756  22.303  0.00  0.00    +0.000 HD
ENDROOT
BRANCH   7  12
ATOM     12  C   UNL     1      -0.344  14.090  20.042  0.00  0.00    +0.000 A 
ATOM     13  C   UNL     1       0.944  14.158  19.464  0.00  0.00    +0.000 A 
ATOM     14  C   UNL     1       1.425  15.301  18.812  0.00  0.00    +0.000 A 
ATOM     15  C   UNL     1       0.614  16.429  18.757  0.00  0.00    +0.000 A 
ATOM     16  C   UNL     1      -0.644  16.416  19.357  0.00  0.00    +0.000 A 
ATOM     17  C   UNL     1      -1.116  15.267  20.005  0.00  0.00    +0.000 A 
ATOM     18 CL   UNL     1      -2.650  15.407  20.793  0.00  0.00    +0.000 Cl
BRANCH  14  19
ATOM     19  O   UNL     1       2.725  15.231  18.394  0.00  0.00    +0.000 OA
ATOM     20  C   UNL     1       3.322  13.937  18.380  0.00  0.00    +0.000 C 
ENDBRANCH  14  19
BRANCH  15  21
ATOM     21  O   UNL     1       0.998  17.609  18.193  0.00  0.00    +0.000 OA
ATOM     22  H   UNL     1       1.870  17.467  17.791  0.00  0.00    +0.000 HD
ENDBRANCH  15  21
ENDBRANCH   7  12
BRANCH   1  23
ATOM     23  O   UNL     1      -3.070   9.662  16.411  0.00  0.00    +0.000 OA
BRANCH  23  25
ATOM     24  C   UNL     1      -3.927  10.049  14.216  0.00  0.00    +0.000 C 
ATOM     25  C   UNL     1      -2.715  10.167  15.123  0.00  0.00    +0.000 C 
ENDBRANCH  23  25
ENDBRANCH   1  23
BRANCH   6  26
ATOM     26  O   UNL     1      -4.843  11.214  18.026  0.00  0.00    +0.000 OA
BRANCH  26  27
ATOM     27  C   UNL     1      -5.375  12.191  17.136  0.00  0.00    +0.000 C 
ATOM     28  C   UNL     1      -6.825  12.421  17.539  0.00  0.00    +0.000 C 
ENDBRANCH  26  27
ENDBRANCH   6  26
TORSDOF 7
ENDMDL
MODEL 5
REMARK VINA RESULT:      -5.8      3.172      5.215
REMARK  Name = 
REMARK  10 active torsions:
REMARK  status: ('A' for Active; 'I' for Inactive)
REMARK    1  A    between atoms: C_1  and  C_2
REMARK    2  A    between atoms: C_2  and  O_3
REMARK    3  A    between atoms: O_3  and  C_4
REMARK    4  A    between atoms: C_9  and  O_10
REMARK    5  A    between atoms: O_10  and  C_11
REMARK    6  A    between atoms: C_11  and  C_12
REMARK    7  A    between atoms: C_13  and  C_14
REMARK    8  A    between atoms: C_16  and  O_17
REMARK    9  A    between atoms: O_17  and  C_18
REMARK   10  A    between atoms: C_19  and  O_20
REMARK                            x       y       z     vdW  Elec       q    Type
REMARK                         _______ _______ _______ _____ _____    ______ ____
ROOT
ATOM      1  C   UNL     1      -3.448  10.705  16.638  0.00  0.00    +0.000 A 
ATOM      2  C   UNL     1      -2.134  10.282  16.847  0.00  0.00    +0.000 A 
ATOM      3  C   UNL     1      -1.438  10.638  18.006  0.00  0.00    +0.000 A 
ATOM      4  C   UNL     1      -2.031  11.486  18.950  0.00  0.00    +0.000 A 
ATOM      5  C   UNL     1      -3.375  11.858  18.770  0.00  0.00    +0.000 A 
ATOM      6  C   UNL     1      -4.102  11.451  17.640  0.00  0.00    +0.000 A 
ATOM      7  C   UNL     1      -1.193  12.017  20.112  0.00  0.00    +0.000 C 
ATOM      8  N   UNL     1      -0.269  11.010  20.679  0.00  0.00    +0.000 NA
ATOM      9  C   UNL     1       0.167   9.939  19.772  0.00  0.00    +0.000 C 
ATOM     10  C   UNL     1      -0.049  10.137  18.265  0.00  0.00    +0.000 C 
ATOM     11  H   UNL     1      -0.726  10.577  21.482  0.00  0.00    +0.000 HD
ENDROOT
BRANCH   7  12
ATOM     12  C   UNL     1      -0.468  13.327  19.767  0.00  0.00    +0.000 A 
ATOM     13  C   UNL     1       0.825  13.308  19.194  0.00  0.00    +0.000 A 
ATOM     14  C   UNL     1       1.485  14.469  18.770  0.00  0.00    +0.000 A 
ATOM     15  C   UNL     1       0.856  15.696  18.947  0.00  0.00    +0.000 A 
ATOM     16  C   UNL     1      -0.398  15.759  19.551  0.00  0.00    +0.000 A 
ATOM     17  C   UNL     1      -1.050  14.592  19.969  0.00  0.00    +0.000 A 
ATOM     18 CL   UNL     1      -2.557  14.809  20.792  0.00  0.00    +0.000 Cl
BRANCH  14  19
ATOM     19  O   UNL     1       2.765  14.283  18.328  0.00  0.00    +0.000 OA
ATOM     20  C   UNL     1       3.805  14.485  19.280  0.00  0.00    +0.000 C 
ENDBRANCH  14  19
BRANCH  15  21
ATOM     21  O   UNL     1       1.425  16.891  18.617  0.00  0.00    +0.000 OA
ATOM     22  H   UNL     1       2.373  16.823  18.812  0.00  0.00    +0.000 HD
ENDBRANCH  15  21
ENDBRANCH   7  12
BRANCH   1  23
ATOM     23  O   UNL     1      -3.977  10.284  15.448  0.00  0.00    +0.000 OA
BRANCH  23  25
ATOM     24  C   UNL     1      -3.871   9.857  13.101  0.00  0.00    +0.000 C 
ATOM     25  C   UNL     1      -3.066  10.118  14.361  0.00  0.00    +0.000 C 
ENDBRANCH  23  25
ENDBRANCH   1  23
BRANCH   6  26
ATOM     26  O   UNL     1      -5.429  11.719  17.447  0.00  0.00    +0.000 OA
BRANCH  26  27
ATOM     27  C   UNL     1      -6.146  12.430  18.452  0.00  0.00    +0.000 C 
ATOM     28  C   UNL     1      -7.139  11.455  19.067  0.00  0.00    +0.000 C 
ENDBRANCH  26  27
ENDBRANCH   6  26
TORSDOF 7
ENDMDL
MODEL 6
REMARK VINA RESULT:      -5.8      3.441      5.268
REMARK  Name = 
REMARK  10 active torsions:
REMARK  status: ('A' for Active; 'I' for Inactive)
REMARK    1  A    between atoms: C_1  and  C_2
REMARK    2  A    between atoms: C_2  and  O_3
REMARK    3  A    between atoms: O_3  and  C_4
REMARK    4  A    between atoms: C_9  and  O_10
REMARK    5  A    between atoms: O_10  and  C_11
REMARK    6  A    between atoms: C_11  and  C_12
REMARK    7  A    between atoms: C_13  and  C_14
REMARK    8  A    between atoms: C_16  and  O_17
REMARK    9  A    between atoms: O_17  and  C_18
REMARK   10  A    between atoms: C_19  and  O_20
REMARK                            x       y       z     vdW  Elec       q    Type
REMARK                         _______ _______ _______ _____ _____    ______ ____
ROOT
ATOM      1  C   UNL     1      -2.938  10.700  17.785  0.00  0.00    +0.000 A 
ATOM      2  C   UNL     1      -1.637  10.272  18.055  0.00  0.00    +0.000 A 
ATOM      3  C   UNL     1      -0.879  10.867  19.069  0.00  0.00    +0.000 A 
ATOM      4  C   UNL     1      -1.393  11.953  19.787  0.00  0.00    +0.000 A 
ATOM      5  C   UNL     1      -2.726  12.340  19.559  0.00  0.00    +0.000 A 
ATOM      6  C   UNL     1      -3.516  11.706  18.588  0.00  0.00    +0.000 A 
ATOM      7  C   UNL     1      -0.486  12.709  20.755  0.00  0.00    +0.000 C 
ATOM      8  N   UNL     1       0.414  11.827  21.528  0.00  0.00    +0.000 NA
ATOM      9  C   UNL     1       0.764  10.542  20.906  0.00  0.00    +0.000 C 
ATOM     10  C   UNL     1       0.496  10.372  19.404  0.00  0.00    +0.000 C 
ATOM     11  H   UNL     1      -0.028  11.631  22.427  0.00  0.00    +0.000 HD
ENDROOT
BRANCH   7  12
ATOM     12  C   UNL     1       0.283  13.852  20.073  0.00  0.00    +0.000 A 
ATOM     13  C   UNL     1       1.604  13.658  19.607  0.00  0.00    +0.000 A 
ATOM     14  C   UNL     1       2.308  14.635  18.892  0.00  0.00    +0.000 A 
ATOM     15  C   UNL     1       1.695  15.860  18.655  0.00  0.00    +0.000 A 
ATOM     16  C   UNL     1       0.412  16.106  19.139  0.00  0.00    +0.000 A 
ATOM     17  C   UNL     1      -0.285  15.122  19.853  0.00  0.00    +0.000 A 
ATOM     18 CL   UNL     1      -1.828  15.581  20.485  0.00  0.00    +0.000 Cl
BRANCH  14  19
ATOM     19  O   UNL     1       3.606  14.320  18.599  0.00  0.00    +0.000 OA
ATOM     20  C   UNL     1       4.607  14.907  19.425  0.00  0.00    +0.000 C 
ENDBRANCH  14  19
BRANCH  15  21
ATOM     21  O   UNL     1       2.304  16.898  18.014  0.00  0.00    +0.000 OA
ATOM     22  H   UNL     1       2.548  17.551  18.688  0.00  0.00    +0.000 HD
ENDBRANCH  15  21
ENDBRANCH   7  12
BRANCH   1  23
ATOM     23  O   UNL     1      -3.534  10.027  16.753  0.00  0.00    +0.000 OA
BRANCH  23  25
ATOM     24  C   UNL     1      -2.919   9.993  14.446  0.00  0.00    +0.000 C 
ATOM     25  C   UNL     1      -3.686  10.737  15.524  0.00  0.00    +0.000 C 
ENDBRANCH  23  25
ENDBRANCH   1  23
BRANCH   6  26
ATOM     26  O   UNL     1      -4.836  11.989  18.372  0.00  0.00    +0.000 OA
BRANCH  26  27
ATOM     27  C   UNL     1      -5.794  11.624  19.362  0.00  0.00    +0.000 C 
ATOM     28  C   UNL     1      -6.642  10.506  18.773  0.00  0.00    +0.000 C 
ENDBRANCH  26  27
ENDBRANCH   6  26
TORSDOF 7
ENDMDL
MODEL 7
REMARK VINA RESULT:      -5.7      3.437      6.096
REMARK  Name = 
REMARK  10 active torsions:
REMARK  status: ('A' for Active; 'I' for Inactive)
REMARK    1  A    between atoms: C_1  and  C_2
REMARK    2  A    between atoms: C_2  and  O_3
REMARK    3  A    between atoms: O_3  and  C_4
REMARK    4  A    between atoms: C_9  and  O_10
REMARK    5  A    between atoms: O_10  and  C_11
REMARK    6  A    between atoms: C_11  and  C_12
REMARK    7  A    between atoms: C_13  and  C_14
REMARK    8  A    between atoms: C_16  and  O_17
REMARK    9  A    between atoms: O_17  and  C_18
REMARK   10  A    between atoms: C_19  and  O_20
REMARK                            x       y       z     vdW  Elec       q    Type
REMARK                         _______ _______ _______ _____ _____    ______ ____
ROOT
ATOM      1  C   UNL     1       1.349  10.406  18.280  0.00  0.00    +0.000 A 
ATOM      2  C   UNL     1       0.112   9.778  18.125  0.00  0.00    +0.000 A 
ATOM      3  C   UNL     1      -1.082  10.497  18.241  0.00  0.00    +0.000 A 
ATOM      4  C   UNL     1      -1.055  11.854  18.584  0.00  0.00    +0.000 A 
ATOM      5  C   UNL     1       0.191  12.501  18.676  0.00  0.00    +0.000 A 
ATOM      6  C   UNL     1       1.394  11.800  18.497  0.00  0.00    +0.000 A 
ATOM      7  C   UNL     1      -2.366  12.576  18.892  0.00  0.00    +0.000 C 
ATOM      8  N   UNL     1      -3.476  12.186  17.996  0.00  0.00    +0.000 NA
ATOM      9  C   UNL     1      -3.396  10.845  17.400  0.00  0.00    +0.000 C 
ATOM     10  C   UNL     1      -2.411   9.841  18.015  0.00  0.00    +0.000 C 
ATOM     11  H   UNL     1      -3.525  12.866  17.237  0.00  0.00    +0.000 HD
ENDROOT
BRANCH   7  12
ATOM     12  C   UNL     1      -2.762  12.472  20.373  0.00  0.00    +0.000 A 
ATOM     13  C   UNL     1      -1.846  11.988  21.334  0.00  0.00    +0.000 A 
ATOM     14  C   UNL     1      -2.124  11.967  22.707  0.00  0.00    +0.000 A 
ATOM     15  C   UNL     1      -3.367  12.413  23.142  0.00  0.00    +0.000 A 
ATOM     16  C   UNL     1      -4.315  12.854  22.220  0.00  0.00    +0.000 A 
ATOM     17  C   UNL     1      -4.025  12.872  20.849  0.00  0.00    +0.000 A 
ATOM     18 CL   UNL     1      -5.316  13.347  19.799  0.00  0.00    +0.000 Cl
BRANCH  14  19
ATOM     19  O   UNL     1      -1.168  11.380  23.488  0.00  0.00    +0.000 OA
ATOM     20  C   UNL     1      -0.671  10.120  23.048  0.00  0.00    +0.000 C 
ENDBRANCH  14  19
BRANCH  15  21
ATOM     21  O   UNL     1      -3.763  12.393  24.447  0.00  0.00    +0.000 OA
ATOM     22  H   UNL     1      -3.461  13.221  24.854  0.00  0.00    +0.000 HD
ENDBRANCH  15  21
ENDBRANCH   7  12
BRANCH   1  23
ATOM     23  O   UNL     1       2.415   9.558  18.153  0.00  0.00    +0.000 OA
BRANCH  23  25
ATOM     24  C   UNL     1       3.106   7.274  18.228  0.00  0.00    +0.000 C 
ATOM     25  C   UNL     1       2.151   8.271  17.595  0.00  0.00    +0.000 C 
ENDBRANCH  23  25
ENDBRANCH   1  23
BRANCH   6  26
ATOM     26  O   UNL     1       2.629  12.386  18.502  0.00  0.00    +0.000 OA
BRANCH  26  27
ATOM     27  C   UNL     1       2.792  13.652  19.135  0.00  0.00    +0.000 C 
ATOM     28  C   UNL     1       3.346  14.607  18.087  0.00  0.00    +0.000 C 
ENDBRANCH  26  27
ENDBRANCH   6  26
TORSDOF 7
ENDMDL
MODEL 8
REMARK VINA RESULT:      -5.7      2.846      6.637
REMARK  Name = 
REMARK  10 active torsions:
REMARK  status: ('A' for Active; 'I' for Inactive)
REMARK    1  A    between atoms: C_1  and  C_2
REMARK    2  A    between atoms: C_2  and  O_3
REMARK    3  A    between atoms: O_3  and  C_4
REMARK    4  A    between atoms: C_9  and  O_10
REMARK    5  A    between atoms: O_10  and  C_11
REMARK    6  A    between atoms: C_11  and  C_12
REMARK    7  A    between atoms: C_13  and  C_14
REMARK    8  A    between atoms: C_16  and  O_17
REMARK    9  A    between atoms: O_17  and  C_18
REMARK   10  A    between atoms: C_19  and  O_20
REMARK                            x       y       z     vdW  Elec       q    Type
REMARK                         _______ _______ _______ _____ _____    ______ ____
ROOT
ATOM      1  C   UNL     1      -0.153  10.619  19.659  0.00  0.00    +0.000 A 
ATOM      2  C   UNL     1      -1.060   9.887  18.890  0.00  0.00    +0.000 A 
ATOM      3  C   UNL     1      -2.215  10.483  18.376  0.00  0.00    +0.000 A 
ATOM      4  C   UNL     1      -2.516  11.816  18.683  0.00  0.00    +0.000 A 
ATOM      5  C   UNL     1      -1.570  12.570  19.402  0.00  0.00    +0.000 A 
ATOM      6  C   UNL     1      -0.377  11.996  19.867  0.00  0.00    +0.000 A 
ATOM      7  C   UNL     1      -3.869  12.394  18.274  0.00  0.00    +0.000 C 
ATOM      8  N   UNL     1      -4.316  11.952  16.935  0.00  0.00    +0.000 NA
ATOM      9  C   UNL     1      -3.797  10.659  16.466  0.00  0.00    +0.000 C 
ATOM     10  C   UNL     1      -3.162   9.719  17.500  0.00  0.00    +0.000 C 
ATOM     11  H   UNL     1      -4.044  12.665  16.258  0.00  0.00    +0.000 HD
ENDROOT
BRANCH   7  12
ATOM     12  C   UNL     1      -4.953  12.170  19.340  0.00  0.00    +0.000 A 
ATOM     13  C   UNL     1      -5.859  11.090  19.235  0.00  0.00    +0.000 A 
ATOM     14  C   UNL     1      -6.797  10.786  20.229  0.00  0.00    +0.000 A 
ATOM     15  C   UNL     1      -6.863  11.599  21.355  0.00  0.00    +0.000 A 
ATOM     16  C   UNL     1      -6.019  12.701  21.473  0.00  0.00    +0.000 A 
ATOM     17  C   UNL     1      -5.082  12.996  20.473  0.00  0.00    +0.000 A 
ATOM     18 CL   UNL     1      -4.161  14.444  20.689  0.00  0.00    +0.000 Cl
BRANCH  14  19
ATOM     19  O   UNL     1      -7.659   9.768  19.927  0.00  0.00    +0.000 OA
ATOM     20  C   UNL     1      -7.094   8.465  19.821  0.00  0.00    +0.000 C 
ENDBRANCH  14  19
BRANCH  15  21
ATOM     21  O   UNL     1      -7.769  11.426  22.360  0.00  0.00    +0.000 OA
ATOM     22  H   UNL     1      -8.308  10.652  22.133  0.00  0.00    +0.000 HD
ENDBRANCH  15  21
ENDBRANCH   7  12
BRANCH   1  23
ATOM     23  O   UNL     1       0.914   9.883  20.098  0.00  0.00    +0.000 OA
BRANCH  23  25
ATOM     24  C   UNL     1       0.582   9.444  22.422  0.00  0.00    +0.000 C 
ATOM     25  C   UNL     1       0.635   8.839  21.030  0.00  0.00    +0.000 C 
ENDBRANCH  23  25
ENDBRANCH   1  23
BRANCH   6  26
ATOM     26  O   UNL     1       0.610  12.695  20.505  0.00  0.00    +0.000 OA
BRANCH  26  27
ATOM     27  C   UNL     1       1.072  13.917  19.938  0.00  0.00    +0.000 C 
ATOM     28  C   UNL     1       2.437  13.638  19.326  0.00  0.00    +0.000 C 
ENDBRANCH  26  27
ENDBRANCH   6  26
TORSDOF 7
ENDMDL
MODEL 9
REMARK VINA RESULT:      -5.7      1.880      2.453
REMARK  Name = 
REMARK  10 active torsions:
REMARK  status: ('A' for Active; 'I' for Inactive)
REMARK    1  A    between atoms: C_1  and  C_2
REMARK    2  A    between atoms: C_2  and  O_3
REMARK    3  A    between atoms: O_3  and  C_4
REMARK    4  A    between atoms: C_9  and  O_10
REMARK    5  A    between atoms: O_10  and  C_11
REMARK    6  A    between atoms: C_11  and  C_12
REMARK    7  A    between atoms: C_13  and  C_14
REMARK    8  A    between atoms: C_16  and  O_17
REMARK    9  A    between atoms: O_17  and  C_18
REMARK   10  A    between atoms: C_19  and  O_20
REMARK                            x       y       z     vdW  Elec       q    Type
REMARK                         _______ _______ _______ _____ _____    ______ ____
ROOT
ATOM      1  C   UNL     1      -2.820  11.720  18.909  0.00  0.00    +0.000 A 
ATOM      2  C   UNL     1      -1.694  12.253  19.539  0.00  0.00    +0.000 A 
ATOM      3  C   UNL     1      -0.406  11.841  19.184  0.00  0.00    +0.000 A 
ATOM      4  C   UNL     1      -0.228  10.830  18.231  0.00  0.00    +0.000 A 
ATOM      5  C   UNL     1      -1.358  10.341  17.550  0.00  0.00    +0.000 A 
ATOM      6  C   UNL     1      -2.650  10.796  17.856  0.00  0.00    +0.000 A 
ATOM      7  C   UNL     1       1.169  10.260  17.993  0.00  0.00    +0.000 C 
ATOM      8  N   UNL     1       2.233  11.286  18.012  0.00  0.00    +0.000 NA
ATOM      9  C   UNL     1       1.962  12.496  18.801  0.00  0.00    +0.000 C 
ATOM     10  C   UNL     1       0.809  12.452  19.814  0.00  0.00    +0.000 C 
ATOM     11  H   UNL     1       2.416  11.572  17.049  0.00  0.00    +0.000 HD
ENDROOT
BRANCH   7  12
ATOM     12  C   UNL     1       1.493   9.084  18.927  0.00  0.00    +0.000 A 
ATOM     13  C   UNL     1       0.993   9.052  20.249  0.00  0.00    +0.000 A 
ATOM     14  C   UNL     1       1.176   7.958  21.105  0.00  0.00    +0.000 A 
ATOM     15  C   UNL     1       1.907   6.868  20.647  0.00  0.00    +0.000 A 
ATOM     16  C   UNL     1       2.456   6.882  19.365  0.00  0.00    +0.000 A 
ATOM     17  C   UNL     1       2.265   7.980  18.517  0.00  0.00    +0.000 A 
ATOM     18 CL   UNL     1       3.077   7.920  16.990  0.00  0.00    +0.000 Cl
BRANCH  14  19
ATOM     19  O   UNL     1       0.712   8.130  22.379  0.00  0.00    +0.000 OA
ATOM     20  C   UNL     1      -0.233   9.177  22.578  0.00  0.00    +0.000 C 
ENDBRANCH  14  19
BRANCH  15  21
ATOM     21  O   UNL     1       2.188   5.773  21.408  0.00  0.00    +0.000 OA
ATOM     22  H   UNL     1       1.769   5.906  22.273  0.00  0.00    +0.000 HD
ENDBRANCH  15  21
ENDBRANCH   7  12
BRANCH   1  23
ATOM     23  O   UNL     1      -4.002  12.217  19.385  0.00  0.00    +0.000 OA
BRANCH  23  25
ATOM     24  C   UNL     1      -5.338  13.498  20.894  0.00  0.00    +0.000 C 
ATOM     25  C   UNL     1      -3.925  13.098  20.505  0.00  0.00    +0.000 C 
ENDBRANCH  23  25
ENDBRANCH   1  23
BRANCH   6  26
ATOM     26  O   UNL     1      -3.776  10.413  17.181  0.00  0.00    +0.000 OA
BRANCH  26  27
ATOM     27  C   UNL     1      -4.077  11.025  15.930  0.00  0.00    +0.000 C 
ATOM     28  C   UNL     1      -3.527  10.114  14.843  0.00  0.00    +0.000 C 
ENDBRANCH  26  27
ENDBRANCH   6  26
TORSDOF 7
ENDMDL
