MODEL 1
REMARK VINA RESULT:      -8.0      0.000      0.000
REMARK  Name = 
REMARK  9 active torsions:
REMARK  status: ('A' for Active; 'I' for Inactive)
REMARK    1  A    between atoms: C_1  and  C_2
REMARK    2  A    between atoms: N_4  and  C_5
REMARK    3  A    between atoms: C_5  and  C_6
REMARK    4  A    between atoms: C_10  and  C_11
REMARK    5  A    between atoms: N_18  and  C_19
REMARK    6  A    between atoms: C_19  and  C_20
REMARK    7  A    between atoms: C_20  and  O_21
REMARK    8  A    between atoms: O_21  and  C_22
REMARK    9  A    between atoms: C_22  and  C_23
REMARK                            x       y       z     vdW  Elec       q    Type
REMARK                         _______ _______ _______ _____ _____    ______ ____
ROOT
ATOM      1  C   UNL     1      -1.032  11.442  18.743  0.00  0.00    +0.000 A 
ATOM      2  C   UNL     1      -0.205  12.543  18.815  0.00  0.00    +0.000 A 
ATOM      3  S   UNL     1       1.131  12.212  19.849  0.00  0.00    +0.000 S 
ATOM      4  C   UNL     1       0.511  10.634  20.147  0.00  0.00    +0.000 A 
ATOM      5  N   UNL     1       1.173   9.737  20.917  0.00  0.00    +0.000 N 
ATOM      6  C   UNL     1       0.798   8.436  21.084  0.00  0.00    +0.000 C 
ATOM      7  N   UNL     1      -0.422   8.010  21.015  0.00  0.00    +0.000 NA
ATOM      8  N   UNL     1       1.847   7.571  21.217  0.00  0.00    +0.000 N 
ATOM      9  N   UNL     1      -0.627  10.385  19.538  0.00  0.00    +0.000 NA
ATOM     10  H   UNL     1       2.125   9.956  21.165  0.00  0.00    +0.000 HD
ATOM     11  H   UNL     1      -1.010   8.837  20.832  0.00  0.00    +0.000 HD
ATOM     12  H   UNL     1       2.464   7.743  22.006  0.00  0.00    +0.000 HD
ENDROOT
BRANCH   1  17
ATOM     13  C   UNL     1      -3.251  10.649  15.793  0.00  0.00    +0.000 A 
ATOM     14  C   UNL     1      -4.506  11.028  16.281  0.00  0.00    +0.000 A 
ATOM     15  C   UNL     1      -4.629  11.574  17.557  0.00  0.00    +0.000 A 
ATOM     16  C   UNL     1      -3.503  11.734  18.369  0.00  0.00    +0.000 A 
ATOM     17  C   UNL     1      -2.242  11.317  17.926  0.00  0.00    +0.000 A 
ATOM     18  C   UNL     1      -2.132  10.774  16.632  0.00  0.00    +0.000 A 
BRANCH  13  19
ATOM     19  C   UNL     1      -3.099  10.122  14.389  0.00  0.00    +0.000 C 
BRANCH  19  23
ATOM     20  C   UNL     1      -5.874   9.521  11.900  0.00  0.00    +0.000 C 
ATOM     21  C   UNL     1      -4.454   9.658  12.388  0.00  0.00    +0.000 C 
ATOM     22  O   UNL     1      -3.492   9.495  11.654  0.00  0.00    +0.000 OA
ATOM     23  N   UNL     1      -4.369   9.952  13.731  0.00  0.00    +0.000 N 
ATOM     24  H   UNL     1      -5.208  10.182  14.247  0.00  0.00    +0.000 HD
ENDBRANCH  19  23
ENDBRANCH  13  19
ENDBRANCH   1  17
BRANCH   8  25
ATOM     25  C   UNL     1       1.595   6.141  21.007  0.00  0.00    +0.000 C 
BRANCH  25  26
ATOM     26  C   UNL     1       2.609   5.521  20.046  0.00  0.00    +0.000 C 
BRANCH  26  27
ATOM     27  O   UNL     1       2.295   5.920  18.711  0.00  0.00    +0.000 OA
BRANCH  27  28
ATOM     28  C   UNL     1       2.617   4.905  17.758  0.00  0.00    +0.000 C 
BRANCH  28  29
ATOM     29  C   UNL     1       4.016   5.124  17.239  0.00  0.00    +0.000 A 
ATOM     30  C   UNL     1       4.788   4.054  16.762  0.00  0.00    +0.000 A 
ATOM     31  C   UNL     1       6.088   4.262  16.301  0.00  0.00    +0.000 A 
ATOM     32  C   UNL     1       6.626   5.547  16.289  0.00  0.00    +0.000 A 
ATOM     33  C   UNL     1       5.857   6.625  16.723  0.00  0.00    +0.000 A 
ATOM     34  C   UNL     1       4.557   6.417  17.189  0.00  0.00    +0.000 A 
ENDBRANCH  28  29
ENDBRANCH  27  28
ENDBRANCH  26  27
ENDBRANCH  25  26
ENDBRANCH   8  25
TORSDOF 8
ENDMDL
MODEL 2
REMARK VINA RESULT:      -7.9      3.317      5.555
REMARK  Name = 
REMARK  9 active torsions:
REMARK  status: ('A' for Active; 'I' for Inactive)
REMARK    1  A    between atoms: C_1  and  C_2
REMARK    2  A    between atoms: N_4  and  C_5
REMARK    3  A    between atoms: C_5  and  C_6
REMARK    4  A    between atoms: C_10  and  C_11
REMARK    5  A    between atoms: N_18  and  C_19
REMARK    6  A    between atoms: C_19  and  C_20
REMARK    7  A    between atoms: C_20  and  O_21
REMARK    8  A    between atoms: O_21  and  C_22
REMARK    9  A    between atoms: C_22  and  C_23
REMARK                            x       y       z     vdW  Elec       q    Type
REMARK                         _______ _______ _______ _____ _____    ______ ____
ROOT
ATOM      1  C   UNL     1      -4.174  11.331  17.912  0.00  0.00    +0.000 A 
ATOM      2  C   UNL     1      -4.370  11.215  16.552  0.00  0.00    +0.000 A 
ATOM      3  S   UNL     1      -2.891  10.802  15.773  0.00  0.00    +0.000 S 
ATOM      4  C   UNL     1      -2.085  10.823  17.294  0.00  0.00    +0.000 A 
ATOM      5  N   UNL     1      -0.774  10.503  17.414  0.00  0.00    +0.000 N 
ATOM      6  C   UNL     1      -0.115  10.377  18.603  0.00  0.00    +0.000 C 
ATOM      7  N   UNL     1      -0.421  11.021  19.683  0.00  0.00    +0.000 NA
ATOM      8  N   UNL     1       0.848   9.408  18.602  0.00  0.00    +0.000 N 
ATOM      9  N   UNL     1      -2.861  11.145  18.305  0.00  0.00    +0.000 NA
ATOM     10  H   UNL     1      -0.328  10.077  16.617  0.00  0.00    +0.000 HD
ATOM     11  H   UNL     1      -1.222  11.625  19.445  0.00  0.00    +0.000 HD
ATOM     12  H   UNL     1       1.597   9.530  17.926  0.00  0.00    +0.000 HD
ENDROOT
BRANCH   1  17
ATOM     13  C   UNL     1      -5.760  12.594  21.096  0.00  0.00    +0.000 A 
ATOM     14  C   UNL     1      -7.098  12.234  20.901  0.00  0.00    +0.000 A 
ATOM     15  C   UNL     1      -7.481  11.549  19.750  0.00  0.00    +0.000 A 
ATOM     16  C   UNL     1      -6.537  11.229  18.770  0.00  0.00    +0.000 A 
ATOM     17  C   UNL     1      -5.201  11.621  18.916  0.00  0.00    +0.000 A 
ATOM     18  C   UNL     1      -4.827  12.306  20.087  0.00  0.00    +0.000 A 
BRANCH  13  19
ATOM     19  C   UNL     1      -5.325  13.274  22.370  0.00  0.00    +0.000 C 
BRANCH  19  23
ATOM     20  C   UNL     1      -1.646  13.029  23.179  0.00  0.00    +0.000 C 
ATOM     21  C   UNL     1      -3.111  12.685  23.267  0.00  0.00    +0.000 C 
ATOM     22  O   UNL     1      -3.532  11.798  23.993  0.00  0.00    +0.000 OA
ATOM     23  N   UNL     1      -3.897  13.449  22.433  0.00  0.00    +0.000 N 
ATOM     24  H   UNL     1      -3.492  14.238  21.946  0.00  0.00    +0.000 HD
ENDBRANCH  19  23
ENDBRANCH  13  19
ENDBRANCH   1  17
BRANCH   8  25
ATOM     25  C   UNL     1       1.336   8.917  19.895  0.00  0.00    +0.000 C 
BRANCH  25  26
ATOM     26  C   UNL     1       2.099   7.601  19.751  0.00  0.00    +0.000 C 
BRANCH  26  27
ATOM     27  O   UNL     1       2.369   7.364  18.369  0.00  0.00    +0.000 OA
BRANCH  27  28
ATOM     28  C   UNL     1       2.863   6.044  18.137  0.00  0.00    +0.000 C 
BRANCH  28  29
ATOM     29  C   UNL     1       4.372   6.057  18.157  0.00  0.00    +0.000 A 
ATOM     30  C   UNL     1       5.102   6.815  17.228  0.00  0.00    +0.000 A 
ATOM     31  C   UNL     1       6.497   6.807  17.240  0.00  0.00    +0.000 A 
ATOM     32  C   UNL     1       7.181   6.060  18.197  0.00  0.00    +0.000 A 
ATOM     33  C   UNL     1       6.469   5.334  19.150  0.00  0.00    +0.000 A 
ATOM     34  C   UNL     1       5.073   5.338  19.135  0.00  0.00    +0.000 A 
ENDBRANCH  28  29
ENDBRANCH  27  28
ENDBRANCH  26  27
ENDBRANCH  25  26
ENDBRANCH   8  25
TORSDOF 8
ENDMDL
MODEL 3
REMARK VINA RESULT:      -7.8      4.521      6.795
REMARK  Name = 
REMARK  9 active torsions:
REMARK  status: ('A' for Active; 'I' for Inactive)
REMARK    1  A    between atoms: C_1  and  C_2
REMARK    2  A    between atoms: N_4  and  C_5
REMARK    3  A    between atoms: C_5  and  C_6
REMARK    4  A    between atoms: C_10  and  C_11
REMARK    5  A    between atoms: N_18  and  C_19
REMARK    6  A    between atoms: C_19  and  C_20
REMARK    7  A    between atoms: C_20  and  O_21
REMARK    8  A    between atoms: O_21  and  C_22
REMARK    9  A    between atoms: C_22  and  C_23
REMARK                            x       y       z     vdW  Elec       q    Type
REMARK                         _______ _______ _______ _____ _____    ______ ____
ROOT
ATOM      1  C   UNL     1       1.965   6.898  20.275  0.00  0.00    +0.000 A 
ATOM      2  C   UNL     1       1.696   5.683  20.869  0.00  0.00    +0.000 A 
ATOM      3  S   UNL     1       2.723   4.465  20.216  0.00  0.00    +0.000 S 
ATOM      4  C   UNL     1       3.443   5.630  19.174  0.00  0.00    +0.000 A 
ATOM      5  N   UNL     1       4.466   5.314  18.343  0.00  0.00    +0.000 N 
ATOM      6  C   UNL     1       5.159   6.218  17.592  0.00  0.00    +0.000 C 
ATOM      7  N   UNL     1       4.668   7.326  17.140  0.00  0.00    +0.000 NA
ATOM      8  N   UNL     1       6.483   5.914  17.444  0.00  0.00    +0.000 N 
ATOM      9  N   UNL     1       2.931   6.835  19.287  0.00  0.00    +0.000 NA
ATOM     10  H   UNL     1       4.913   4.421  18.482  0.00  0.00    +0.000 HD
ATOM     11  H   UNL     1       3.685   7.357  17.450  0.00  0.00    +0.000 HD
ATOM     12  H   UNL     1       6.685   5.026  16.994  0.00  0.00    +0.000 HD
ENDROOT
BRANCH   1  17
ATOM     13  C   UNL     1       0.358  10.279  19.788  0.00  0.00    +0.000 A 
ATOM     14  C   UNL     1       0.110  10.661  21.111  0.00  0.00    +0.000 A 
ATOM     15  C   UNL     1       0.496   9.836  22.165  0.00  0.00    +0.000 A 
ATOM     16  C   UNL     1       1.119   8.611  21.913  0.00  0.00    +0.000 A 
ATOM     17  C   UNL     1       1.335   8.181  20.598  0.00  0.00    +0.000 A 
ATOM     18  C   UNL     1       0.947   9.028  19.543  0.00  0.00    +0.000 A 
BRANCH  13  19
ATOM     19  C   UNL     1       0.007  11.197  18.645  0.00  0.00    +0.000 C 
BRANCH  19  23
ATOM     20  C   UNL     1      -2.597   9.952  16.212  0.00  0.00    +0.000 C 
ATOM     21  C   UNL     1      -2.039  10.773  17.346  0.00  0.00    +0.000 C 
ATOM     22  O   UNL     1      -2.710  11.596  17.949  0.00  0.00    +0.000 OA
ATOM     23  N   UNL     1      -0.710  10.514  17.599  0.00  0.00    +0.000 N 
ATOM     24  H   UNL     1      -0.253   9.741  17.134  0.00  0.00    +0.000 HD
ENDBRANCH  19  23
ENDBRANCH  13  19
ENDBRANCH   1  17
BRANCH   8  25
ATOM     25  C   UNL     1       7.393   6.980  17.010  0.00  0.00    +0.000 C 
BRANCH  25  26
ATOM     26  C   UNL     1       8.021   7.709  18.197  0.00  0.00    +0.000 C 
BRANCH  26  27
ATOM     27  O   UNL     1       8.363   9.038  17.804  0.00  0.00    +0.000 OA
BRANCH  27  28
ATOM     28  C   UNL     1       8.909   9.794  18.887  0.00  0.00    +0.000 C 
BRANCH  28  29
ATOM     29  C   UNL     1       9.488  11.085  18.361  0.00  0.00    +0.000 A 
ATOM     30  C   UNL     1      10.839  11.176  17.993  0.00  0.00    +0.000 A 
ATOM     31  C   UNL     1      11.372  12.377  17.526  0.00  0.00    +0.000 A 
ATOM     32  C   UNL     1      10.555  13.498  17.399  0.00  0.00    +0.000 A 
ATOM     33  C   UNL     1       9.203  13.413  17.724  0.00  0.00    +0.000 A 
ATOM     34  C   UNL     1       8.670  12.211  18.195  0.00  0.00    +0.000 A 
ENDBRANCH  28  29
ENDBRANCH  27  28
ENDBRANCH  26  27
ENDBRANCH  25  26
ENDBRANCH   8  25
TORSDOF 8
ENDMDL
MODEL 4
REMARK VINA RESULT:      -7.7      3.014      9.767
REMARK  Name = 
REMARK  9 active torsions:
REMARK  status: ('A' for Active; 'I' for Inactive)
REMARK    1  A    between atoms: C_1  and  C_2
REMARK    2  A    between atoms: N_4  and  C_5
REMARK    3  A    between atoms: C_5  and  C_6
REMARK    4  A    between atoms: C_10  and  C_11
REMARK    5  A    between atoms: N_18  and  C_19
REMARK    6  A    between atoms: C_19  and  C_20
REMARK    7  A    between atoms: C_20  and  O_21
REMARK    8  A    between atoms: O_21  and  C_22
REMARK    9  A    between atoms: C_22  and  C_23
REMARK                            x       y       z     vdW  Elec       q    Type
REMARK                         _______ _______ _______ _____ _____    ______ ____
ROOT
ATOM      1  C   UNL     1       1.046   8.527  20.793  0.00  0.00    +0.000 A 
ATOM      2  C   UNL     1       0.963   8.919  22.113  0.00  0.00    +0.000 A 
ATOM      3  S   UNL     1      -0.038  10.313  22.254  0.00  0.00    +0.000 S 
ATOM      4  C   UNL     1      -0.279  10.313  20.550  0.00  0.00    +0.000 A 
ATOM      5  N   UNL     1      -1.091  11.210  19.941  0.00  0.00    +0.000 N 
ATOM      6  C   UNL     1      -1.422  11.180  18.617  0.00  0.00    +0.000 C 
ATOM      7  N   UNL     1      -0.667  10.698  17.684  0.00  0.00    +0.000 NA
ATOM      8  N   UNL     1      -2.694  11.603  18.355  0.00  0.00    +0.000 N 
ATOM      9  N   UNL     1       0.366   9.356  19.920  0.00  0.00    +0.000 NA
ATOM     10  H   UNL     1      -1.692  11.764  20.532  0.00  0.00    +0.000 HD
ATOM     11  H   UNL     1       0.198  10.375  18.145  0.00  0.00    +0.000 HD
ATOM     12  H   UNL     1      -2.909  12.557  18.632  0.00  0.00    +0.000 HD
ENDROOT
BRANCH   1  17
ATOM     13  C   UNL     1       3.279   6.424  18.593  0.00  0.00    +0.000 A 
ATOM     14  C   UNL     1       3.186   5.175  19.217  0.00  0.00    +0.000 A 
ATOM     15  C   UNL     1       2.370   5.006  20.333  0.00  0.00    +0.000 A 
ATOM     16  C   UNL     1       1.649   6.084  20.852  0.00  0.00    +0.000 A 
ATOM     17  C   UNL     1       1.762   7.356  20.279  0.00  0.00    +0.000 A 
ATOM     18  C   UNL     1       2.584   7.511  19.147  0.00  0.00    +0.000 A 
BRANCH  13  19
ATOM     19  C   UNL     1       4.105   6.600  17.344  0.00  0.00    +0.000 C 
BRANCH  19  23
ATOM     20  C   UNL     1       5.864   3.885  15.398  0.00  0.00    +0.000 C 
ATOM     21  C   UNL     1       5.441   5.289  15.747  0.00  0.00    +0.000 C 
ATOM     22  O   UNL     1       5.822   6.263  15.116  0.00  0.00    +0.000 OA
ATOM     23  N   UNL     1       4.618   5.348  16.850  0.00  0.00    +0.000 N 
ATOM     24  H   UNL     1       4.256   4.493  17.251  0.00  0.00    +0.000 HD
ENDBRANCH  19  23
ENDBRANCH  13  19
ENDBRANCH   1  17
BRANCH   8  25
ATOM     25  C   UNL     1      -3.287  11.250  17.060  0.00  0.00    +0.000 C 
BRANCH  25  26
ATOM     26  C   UNL     1      -4.795  11.494  17.041  0.00  0.00    +0.000 C 
BRANCH  26  27
ATOM     27  O   UNL     1      -5.405  10.749  18.096  0.00  0.00    +0.000 OA
BRANCH  27  28
ATOM     28  C   UNL     1      -6.738  11.188  18.363  0.00  0.00    +0.000 C 
BRANCH  28  29
ATOM     29  C   UNL     1      -6.842  11.645  19.797  0.00  0.00    +0.000 A 
ATOM     30  C   UNL     1      -5.993  12.639  20.304  0.00  0.00    +0.000 A 
ATOM     31  C   UNL     1      -6.083  13.044  21.636  0.00  0.00    +0.000 A 
ATOM     32  C   UNL     1      -7.040  12.474  22.473  0.00  0.00    +0.000 A 
ATOM     33  C   UNL     1      -7.916  11.513  21.973  0.00  0.00    +0.000 A 
ATOM     34  C   UNL     1      -7.824  11.105  20.641  0.00  0.00    +0.000 A 
ENDBRANCH  28  29
ENDBRANCH  27  28
ENDBRANCH  26  27
ENDBRANCH  25  26
ENDBRANCH   8  25
TORSDOF 8
ENDMDL
MODEL 5
REMARK VINA RESULT:      -7.7      3.807      6.064
REMARK  Name = 
REMARK  9 active torsions:
REMARK  status: ('A' for Active; 'I' for Inactive)
REMARK    1  A    between atoms: C_1  and  C_2
REMARK    2  A    between atoms: N_4  and  C_5
REMARK    3  A    between atoms: C_5  and  C_6
REMARK    4  A    between atoms: C_10  and  C_11
REMARK    5  A    between atoms: N_18  and  C_19
REMARK    6  A    between atoms: C_19  and  C_20
REMARK    7  A    between atoms: C_20  and  O_21
REMARK    8  A    between atoms: O_21  and  C_22
REMARK    9  A    between atoms: C_22  and  C_23
REMARK                            x       y       z     vdW  Elec       q    Type
REMARK                         _______ _______ _______ _____ _____    ______ ____
ROOT
ATOM      1  C   UNL     1      -4.298  11.386  17.881  0.00  0.00    +0.000 A 
ATOM      2  C   UNL     1      -4.394  11.297  16.508  0.00  0.00    +0.000 A 
ATOM      3  S   UNL     1      -2.857  10.918  15.831  0.00  0.00    +0.000 S 
ATOM      4  C   UNL     1      -2.163  10.917  17.406  0.00  0.00    +0.000 A 
ATOM      5  N   UNL     1      -0.860  10.609  17.615  0.00  0.00    +0.000 N 
ATOM      6  C   UNL     1      -0.287  10.466  18.845  0.00  0.00    +0.000 C 
ATOM      7  N   UNL     1      -0.679  11.083  19.913  0.00  0.00    +0.000 NA
ATOM      8  N   UNL     1       0.687   9.510  18.894  0.00  0.00    +0.000 N 
ATOM      9  N   UNL     1      -3.015  11.207  18.364  0.00  0.00    +0.000 NA
ATOM     10  H   UNL     1      -0.351  10.206  16.843  0.00  0.00    +0.000 HD
ATOM     11  H   UNL     1      -1.469  11.683  19.630  0.00  0.00    +0.000 HD
ATOM     12  H   UNL     1       1.481   9.655  18.277  0.00  0.00    +0.000 HD
ENDROOT
BRANCH   1  17
ATOM     13  C   UNL     1      -6.260  12.941  20.706  0.00  0.00    +0.000 A 
ATOM     14  C   UNL     1      -7.456  12.219  20.644  0.00  0.00    +0.000 A 
ATOM     15  C   UNL     1      -7.615  11.201  19.705  0.00  0.00    +0.000 A 
ATOM     16  C   UNL     1      -6.587  10.902  18.806  0.00  0.00    +0.000 A 
ATOM     17  C   UNL     1      -5.399  11.642  18.813  0.00  0.00    +0.000 A 
ATOM     18  C   UNL     1      -5.249  12.662  19.771  0.00  0.00    +0.000 A 
BRANCH  13  19
ATOM     19  C   UNL     1      -6.054  13.997  21.763  0.00  0.00    +0.000 C 
BRANCH  19  23
ATOM     20  C   UNL     1      -4.192  12.532  24.702  0.00  0.00    +0.000 C 
ATOM     21  C   UNL     1      -5.375  12.817  23.813  0.00  0.00    +0.000 C 
ATOM     22  O   UNL     1      -6.485  12.360  24.035  0.00  0.00    +0.000 OA
ATOM     23  N   UNL     1      -5.061  13.611  22.732  0.00  0.00    +0.000 N 
ATOM     24  H   UNL     1      -4.148  14.042  22.676  0.00  0.00    +0.000 HD
ENDBRANCH  19  23
ENDBRANCH  13  19
ENDBRANCH   1  17
BRANCH   8  25
ATOM     25  C   UNL     1       1.087   8.996  20.209  0.00  0.00    +0.000 C 
BRANCH  25  26
ATOM     26  C   UNL     1       2.222   7.979  20.101  0.00  0.00    +0.000 C 
BRANCH  26  27
ATOM     27  O   UNL     1       1.986   7.132  18.975  0.00  0.00    +0.000 OA
BRANCH  27  28
ATOM     28  C   UNL     1       2.997   6.132  18.836  0.00  0.00    +0.000 C 
BRANCH  28  29
ATOM     29  C   UNL     1       2.362   4.763  18.864  0.00  0.00    +0.000 A 
ATOM     30  C   UNL     1       1.531   4.372  19.924  0.00  0.00    +0.000 A 
ATOM     31  C   UNL     1       0.963   3.098  19.952  0.00  0.00    +0.000 A 
ATOM     32  C   UNL     1       1.200   2.207  18.908  0.00  0.00    +0.000 A 
ATOM     33  C   UNL     1       1.992   2.595  17.829  0.00  0.00    +0.000 A 
ATOM     34  C   UNL     1       2.564   3.869  17.803  0.00  0.00    +0.000 A 
ENDBRANCH  28  29
ENDBRANCH  27  28
ENDBRANCH  26  27
ENDBRANCH  25  26
ENDBRANCH   8  25
TORSDOF 8
ENDMDL
MODEL 6
REMARK VINA RESULT:      -7.6      3.291      5.680
REMARK  Name = 
REMARK  9 active torsions:
REMARK  status: ('A' for Active; 'I' for Inactive)
REMARK    1  A    between atoms: C_1  and  C_2
REMARK    2  A    between atoms: N_4  and  C_5
REMARK    3  A    between atoms: C_5  and  C_6
REMARK    4  A    between atoms: C_10  and  C_11
REMARK    5  A    between atoms: N_18  and  C_19
REMARK    6  A    between atoms: C_19  and  C_20
REMARK    7  A    between atoms: C_20  and  O_21
REMARK    8  A    between atoms: O_21  and  C_22
REMARK    9  A    between atoms: C_22  and  C_23
REMARK                            x       y       z     vdW  Elec       q    Type
REMARK                         _______ _______ _______ _____ _____    ______ ____
ROOT
ATOM      1  C   UNL     1      -4.140  11.390  17.890  0.00  0.00    +0.000 A 
ATOM      2  C   UNL     1      -4.298  11.244  16.528  0.00  0.00    +0.000 A 
ATOM      3  S   UNL     1      -2.808  10.768  15.808  0.00  0.00    +0.000 S 
ATOM      4  C   UNL     1      -2.049  10.807  17.352  0.00  0.00    +0.000 A 
ATOM      5  N   UNL     1      -0.752  10.453  17.522  0.00  0.00    +0.000 N 
ATOM      6  C   UNL     1      -0.134  10.340  18.733  0.00  0.00    +0.000 C 
ATOM      7  N   UNL     1      -0.455  11.021  19.786  0.00  0.00    +0.000 NA
ATOM      8  N   UNL     1       0.800   9.345  18.787  0.00  0.00    +0.000 N 
ATOM      9  N   UNL     1      -2.846  11.177  18.329  0.00  0.00    +0.000 NA
ATOM     10  H   UNL     1      -0.294   9.993  16.750  0.00  0.00    +0.000 HD
ATOM     11  H   UNL     1      -1.230  11.641  19.508  0.00  0.00    +0.000 HD
ATOM     12  H   UNL     1       1.573   9.428  18.133  0.00  0.00    +0.000 HD
ENDROOT
BRANCH   1  17
ATOM     13  C   UNL     1      -5.778  12.724  21.019  0.00  0.00    +0.000 A 
ATOM     14  C   UNL     1      -7.126  12.450  20.765  0.00  0.00    +0.000 A 
ATOM     15  C   UNL     1      -7.502  11.799  19.591  0.00  0.00    +0.000 A 
ATOM     16  C   UNL     1      -6.540  11.429  18.648  0.00  0.00    +0.000 A 
ATOM     17  C   UNL     1      -5.189  11.735  18.853  0.00  0.00    +0.000 A 
ATOM     18  C   UNL     1      -4.823  12.386  20.047  0.00  0.00    +0.000 A 
BRANCH  13  19
ATOM     19  C   UNL     1      -5.356  13.365  22.317  0.00  0.00    +0.000 C 
BRANCH  19  23
ATOM     20  C   UNL     1      -1.729  12.968  23.285  0.00  0.00    +0.000 C 
ATOM     21  C   UNL     1      -3.212  12.703  23.325  0.00  0.00    +0.000 C 
ATOM     22  O   UNL     1      -3.707  11.869  24.068  0.00  0.00    +0.000 OA
ATOM     23  N   UNL     1      -3.924  13.471  22.431  0.00  0.00    +0.000 N 
ATOM     24  H   UNL     1      -3.460  14.217  21.931  0.00  0.00    +0.000 HD
ENDBRANCH  19  23
ENDBRANCH  13  19
ENDBRANCH   1  17
BRANCH   8  25
ATOM     25  C   UNL     1       1.234   8.874  20.108  0.00  0.00    +0.000 C 
BRANCH  25  26
ATOM     26  C   UNL     1       2.053   7.588  20.012  0.00  0.00    +0.000 C 
BRANCH  26  27
ATOM     27  O   UNL     1       1.318   6.519  20.608  0.00  0.00    +0.000 OA
BRANCH  27  28
ATOM     28  C   UNL     1       2.145   5.386  20.880  0.00  0.00    +0.000 C 
BRANCH  28  29
ATOM     29  C   UNL     1       2.630   4.790  19.581  0.00  0.00    +0.000 A 
ATOM     30  C   UNL     1       1.726   4.298  18.628  0.00  0.00    +0.000 A 
ATOM     31  C   UNL     1       2.181   3.731  17.437  0.00  0.00    +0.000 A 
ATOM     32  C   UNL     1       3.548   3.669  17.175  0.00  0.00    +0.000 A 
ATOM     33  C   UNL     1       4.457   4.188  18.095  0.00  0.00    +0.000 A 
ATOM     34  C   UNL     1       4.001   4.752  19.288  0.00  0.00    +0.000 A 
ENDBRANCH  28  29
ENDBRANCH  27  28
ENDBRANCH  26  27
ENDBRANCH  25  26
ENDBRANCH   8  25
TORSDOF 8
ENDMDL
MODEL 7
REMARK VINA RESULT:      -7.6      1.672      2.859
REMARK  Name = 
REMARK  9 active torsions:
REMARK  status: ('A' for Active; 'I' for Inactive)
REMARK    1  A    between atoms: C_1  and  C_2
REMARK    2  A    between atoms: N_4  and  C_5
REMARK    3  A    between atoms: C_5  and  C_6
REMARK    4  A    between atoms: C_10  and  C_11
REMARK    5  A    between atoms: N_18  and  C_19
REMARK    6  A    between atoms: C_19  and  C_20
REMARK    7  A    between atoms: C_20  and  O_21
REMARK    8  A    between atoms: O_21  and  C_22
REMARK    9  A    between atoms: C_22  and  C_23
REMARK                            x       y       z     vdW  Elec       q    Type
REMARK                         _______ _______ _______ _____ _____    ______ ____
ROOT
ATOM      1  C   UNL     1      -1.014  10.679  18.860  0.00  0.00    +0.000 A 
ATOM      2  C   UNL     1      -0.725  11.435  19.976  0.00  0.00    +0.000 A 
ATOM      3  S   UNL     1       0.757  10.909  20.679  0.00  0.00    +0.000 S 
ATOM      4  C   UNL     1       0.904   9.699  19.463  0.00  0.00    +0.000 A 
ATOM      5  N   UNL     1       1.981   8.880  19.394  0.00  0.00    +0.000 N 
ATOM      6  C   UNL     1       2.214   7.993  18.384  0.00  0.00    +0.000 C 
ATOM      7  N   UNL     1       1.289   7.419  17.684  0.00  0.00    +0.000 NA
ATOM      8  N   UNL     1       3.536   7.837  18.078  0.00  0.00    +0.000 N 
ATOM      9  N   UNL     1      -0.098   9.673  18.612  0.00  0.00    +0.000 NA
ATOM     10  H   UNL     1       2.778   9.117  19.964  0.00  0.00    +0.000 HD
ATOM     11  H   UNL     1       0.389   7.757  18.057  0.00  0.00    +0.000 HD
ATOM     12  H   UNL     1       4.128   7.500  18.832  0.00  0.00    +0.000 HD
ENDROOT
BRANCH   1  17
ATOM     13  C   UNL     1      -3.141  10.498  15.746  0.00  0.00    +0.000 A 
ATOM     14  C   UNL     1      -4.311  11.134  16.172  0.00  0.00    +0.000 A 
ATOM     15  C   UNL     1      -4.400  11.653  17.462  0.00  0.00    +0.000 A 
ATOM     16  C   UNL     1      -3.326  11.531  18.348  0.00  0.00    +0.000 A 
ATOM     17  C   UNL     1      -2.161  10.855  17.965  0.00  0.00    +0.000 A 
ATOM     18  C   UNL     1      -2.084  10.342  16.657  0.00  0.00    +0.000 A 
BRANCH  13  19
ATOM     19  C   UNL     1      -3.011   9.995  14.330  0.00  0.00    +0.000 C 
BRANCH  19  23
ATOM     20  C   UNL     1      -5.806   9.602  11.823  0.00  0.00    +0.000 C 
ATOM     21  C   UNL     1      -4.383   9.669  12.314  0.00  0.00    +0.000 C 
ATOM     22  O   UNL     1      -3.427   9.510  11.570  0.00  0.00    +0.000 OA
ATOM     23  N   UNL     1      -4.287   9.897  13.668  0.00  0.00    +0.000 N 
ATOM     24  H   UNL     1      -5.117  10.129  14.197  0.00  0.00    +0.000 HD
ENDBRANCH  19  23
ENDBRANCH  13  19
ENDBRANCH   1  17
BRANCH   8  25
ATOM     25  C   UNL     1       3.882   7.236  16.785  0.00  0.00    +0.000 C 
BRANCH  25  26
ATOM     26  C   UNL     1       5.223   6.507  16.838  0.00  0.00    +0.000 C 
BRANCH  26  27
ATOM     27  O   UNL     1       5.176   5.511  17.861  0.00  0.00    +0.000 OA
BRANCH  27  28
ATOM     28  C   UNL     1       4.616   4.285  17.389  0.00  0.00    +0.000 C 
BRANCH  28  29
ATOM     29  C   UNL     1       3.429   3.909  18.243  0.00  0.00    +0.000 A 
ATOM     30  C   UNL     1       3.582   3.617  19.607  0.00  0.00    +0.000 A 
ATOM     31  C   UNL     1       2.484   3.252  20.386  0.00  0.00    +0.000 A 
ATOM     32  C   UNL     1       1.213   3.198  19.816  0.00  0.00    +0.000 A 
ATOM     33  C   UNL     1       1.041   3.524  18.472  0.00  0.00    +0.000 A 
ATOM     34  C   UNL     1       2.141   3.885  17.691  0.00  0.00    +0.000 A 
ENDBRANCH  28  29
ENDBRANCH  27  28
ENDBRANCH  26  27
ENDBRANCH  25  26
ENDBRANCH   8  25
TORSDOF 8
ENDMDL
MODEL 8
REMARK VINA RESULT:      -7.6      2.985      9.660
REMARK  Name = 
REMARK  9 active torsions:
REMARK  status: ('A' for Active; 'I' for Inactive)
REMARK    1  A    between atoms: C_1  and  C_2
REMARK    2  A    between atoms: N_4  and  C_5
REMARK    3  A    between atoms: C_5  and  C_6
REMARK    4  A    between atoms: C_10  and  C_11
REMARK    5  A    between atoms: N_18  and  C_19
REMARK    6  A    between atoms: C_19  and  C_20
REMARK    7  A    between atoms: C_20  and  O_21
REMARK    8  A    between atoms: O_21  and  C_22
REMARK    9  A    between atoms: C_22  and  C_23
REMARK                            x       y       z     vdW  Elec       q    Type
REMARK                         _______ _______ _______ _____ _____    ______ ____
ROOT
ATOM      1  C   UNL     1       1.367   8.157  20.603  0.00  0.00    +0.000 A 
ATOM      2  C   UNL     1       1.466   8.672  21.878  0.00  0.00    +0.000 A 
ATOM      3  S   UNL     1       0.494  10.086  22.022  0.00  0.00    +0.000 S 
ATOM      4  C   UNL     1       0.023   9.930  20.374  0.00  0.00    +0.000 A 
ATOM      5  N   UNL     1      -0.865  10.777  19.799  0.00  0.00    +0.000 N 
ATOM      6  C   UNL     1      -1.373  10.628  18.541  0.00  0.00    +0.000 C 
ATOM      7  N   UNL     1      -0.752  10.051  17.564  0.00  0.00    +0.000 NA
ATOM      8  N   UNL     1      -2.668  11.042  18.415  0.00  0.00    +0.000 N 
ATOM      9  N   UNL     1       0.575   8.910  19.756  0.00  0.00    +0.000 NA
ATOM     10  H   UNL     1      -1.378  11.392  20.411  0.00  0.00    +0.000 HD
ATOM     11  H   UNL     1       0.167   9.761  17.932  0.00  0.00    +0.000 HD
ATOM     12  H   UNL     1      -2.842  12.020  18.628  0.00  0.00    +0.000 HD
ENDROOT
BRANCH   1  17
ATOM     13  C   UNL     1       3.750   5.917  18.717  0.00  0.00    +0.000 A 
ATOM     14  C   UNL     1       3.308   4.649  19.110  0.00  0.00    +0.000 A 
ATOM     15  C   UNL     1       2.213   4.518  19.962  0.00  0.00    +0.000 A 
ATOM     16  C   UNL     1       1.554   5.652  20.445  0.00  0.00    +0.000 A 
ATOM     17  C   UNL     1       2.005   6.934  20.109  0.00  0.00    +0.000 A 
ATOM     18  C   UNL     1       3.108   7.051  19.242  0.00  0.00    +0.000 A 
BRANCH  13  19
ATOM     19  C   UNL     1       4.890   6.065  17.742  0.00  0.00    +0.000 C 
BRANCH  19  23
ATOM     20  C   UNL     1       5.320   4.196  14.491  0.00  0.00    +0.000 C 
ATOM     21  C   UNL     1       5.590   5.257  15.526  0.00  0.00    +0.000 C 
ATOM     22  O   UNL     1       6.456   6.106  15.382  0.00  0.00    +0.000 OA
ATOM     23  N   UNL     1       4.786   5.145  16.639  0.00  0.00    +0.000 N 
ATOM     24  H   UNL     1       4.018   4.488  16.637  0.00  0.00    +0.000 HD
ENDBRANCH  19  23
ENDBRANCH  13  19
ENDBRANCH   1  17
BRANCH   8  25
ATOM     25  C   UNL     1      -3.433  10.578  17.252  0.00  0.00    +0.000 C 
BRANCH  25  26
ATOM     26  C   UNL     1      -4.389  11.652  16.736  0.00  0.00    +0.000 C 
BRANCH  26  27
ATOM     27  O   UNL     1      -5.189  12.127  17.819  0.00  0.00    +0.000 OA
BRANCH  27  28
ATOM     28  C   UNL     1      -6.560  11.749  17.681  0.00  0.00    +0.000 C 
BRANCH  28  29
ATOM     29  C   UNL     1      -7.002  10.990  18.908  0.00  0.00    +0.000 A 
ATOM     30  C   UNL     1      -6.904   9.592  18.969  0.00  0.00    +0.000 A 
ATOM     31  C   UNL     1      -7.332   8.895  20.099  0.00  0.00    +0.000 A 
ATOM     32  C   UNL     1      -7.843   9.590  21.193  0.00  0.00    +0.000 A 
ATOM     33  C   UNL     1      -7.909  10.982  21.162  0.00  0.00    +0.000 A 
ATOM     34  C   UNL     1      -7.484  11.679  20.029  0.00  0.00    +0.000 A 
ENDBRANCH  28  29
ENDBRANCH  27  28
ENDBRANCH  26  27
ENDBRANCH  25  26
ENDBRANCH   8  25
TORSDOF 8
ENDMDL
MODEL 9
REMARK VINA RESULT:      -7.6      3.889      6.398
REMARK  Name = 
REMARK  9 active torsions:
REMARK  status: ('A' for Active; 'I' for Inactive)
REMARK    1  A    between atoms: C_1  and  C_2
REMARK    2  A    between atoms: N_4  and  C_5
REMARK    3  A    between atoms: C_5  and  C_6
REMARK    4  A    between atoms: C_10  and  C_11
REMARK    5  A    between atoms: N_18  and  C_19
REMARK    6  A    between atoms: C_19  and  C_20
REMARK    7  A    between atoms: C_20  and  O_21
REMARK    8  A    between atoms: O_21  and  C_22
REMARK    9  A    between atoms: C_22  and  C_23
REMARK                            x       y       z     vdW  Elec       q    Type
REMARK                         _______ _______ _______ _____ _____    ______ ____
ROOT
ATOM      1  C   UNL     1      -4.920  11.644  18.510  0.00  0.00    +0.000 A 
ATOM      2  C   UNL     1      -5.444  11.544  17.238  0.00  0.00    +0.000 A 
ATOM      3  S   UNL     1      -4.188  11.225  16.104  0.00  0.00    +0.000 S 
ATOM      4  C   UNL     1      -3.030  11.262  17.376  0.00  0.00    +0.000 A 
ATOM      5  N   UNL     1      -1.717  11.010  17.157  0.00  0.00    +0.000 N 
ATOM      6  C   UNL     1      -0.777  10.898  18.140  0.00  0.00    +0.000 C 
ATOM      7  N   UNL     1      -0.834  11.504  19.282  0.00  0.00    +0.000 NA
ATOM      8  N   UNL     1       0.200   9.983  17.869  0.00  0.00    +0.000 N 
ATOM      9  N   UNL     1      -3.544  11.522  18.558  0.00  0.00    +0.000 NA
ATOM     10  H   UNL     1      -1.464  10.624  16.261  0.00  0.00    +0.000 HD
ATOM     11  H   UNL     1      -1.697  12.069  19.270  0.00  0.00    +0.000 HD
ATOM     12  H   UNL     1       0.750  10.157  17.033  0.00  0.00    +0.000 HD
ENDROOT
BRANCH   1  17
ATOM     13  C   UNL     1      -5.796  12.927  21.950  0.00  0.00    +0.000 A 
ATOM     14  C   UNL     1      -7.053  12.345  22.151  0.00  0.00    +0.000 A 
ATOM     15  C   UNL     1      -7.603  11.507  21.184  0.00  0.00    +0.000 A 
ATOM     16  C   UNL     1      -6.913  11.251  19.995  0.00  0.00    +0.000 A 
ATOM     17  C   UNL     1      -5.677  11.860  19.745  0.00  0.00    +0.000 A 
ATOM     18  C   UNL     1      -5.130  12.698  20.735  0.00  0.00    +0.000 A 
BRANCH  13  19
ATOM     19  C   UNL     1      -5.164  13.779  23.021  0.00  0.00    +0.000 C 
BRANCH  19  23
ATOM     20  C   UNL     1      -1.408  13.735  23.403  0.00  0.00    +0.000 C 
ATOM     21  C   UNL     1      -2.764  14.317  23.093  0.00  0.00    +0.000 C 
ATOM     22  O   UNL     1      -2.914  15.478  22.748  0.00  0.00    +0.000 OA
ATOM     23  N   UNL     1      -3.792  13.416  23.266  0.00  0.00    +0.000 N 
ATOM     24  H   UNL     1      -3.580  12.443  23.444  0.00  0.00    +0.000 HD
ENDBRANCH  19  23
ENDBRANCH  13  19
ENDBRANCH   1  17
BRANCH   8  25
ATOM     25  C   UNL     1       1.019   9.494  18.985  0.00  0.00    +0.000 C 
BRANCH  25  26
ATOM     26  C   UNL     1       2.265   8.758  18.495  0.00  0.00    +0.000 C 
BRANCH  26  27
ATOM     27  O   UNL     1       1.896   7.449  18.061  0.00  0.00    +0.000 OA
BRANCH  27  28
ATOM     28  C   UNL     1       2.909   6.483  18.348  0.00  0.00    +0.000 C 
BRANCH  28  29
ATOM     29  C   UNL     1       2.274   5.237  18.914  0.00  0.00    +0.000 A 
ATOM     30  C   UNL     1       1.654   4.296  18.078  0.00  0.00    +0.000 A 
ATOM     31  C   UNL     1       1.052   3.156  18.610  0.00  0.00    +0.000 A 
ATOM     32  C   UNL     1       1.082   2.929  19.984  0.00  0.00    +0.000 A 
ATOM     33  C   UNL     1       1.729   3.835  20.823  0.00  0.00    +0.000 A 
ATOM     34  C   UNL     1       2.328   4.979  20.292  0.00  0.00    +0.000 A 
ENDBRANCH  28  29
ENDBRANCH  27  28
ENDBRANCH  26  27
ENDBRANCH  25  26
ENDBRANCH   8  25
TORSDOF 8
ENDMDL
