MODEL 1
REMARK VINA RESULT:      -7.5      0.000      0.000
REMARK  Name = 
REMARK  10 active torsions:
REMARK  status: ('A' for Active; 'I' for Inactive)
REMARK    1  A    between atoms: C_1  and  O_2
REMARK    2  A    between atoms: O_2  and  C_3
REMARK    3  A    between atoms: C_3  and  C_5
REMARK    4  A    between atoms: C_5  and  C_6
REMARK    5  A    between atoms: C_6  and  C_7
REMARK    6  A    between atoms: C_7  and  C_8
REMARK    7  A    between atoms: C_9  and  C_10
REMARK    8  A    between atoms: C_10  and  C_11
REMARK    9  A    between atoms: C_12  and  O_13
REMARK   10  A    between atoms: C_17  and  O_18
REMARK                            x       y       z     vdW  Elec       q    Type
REMARK                         _______ _______ _______ _____ _____    ______ ____
ROOT
ATOM      1  C   UNL     1       4.382   5.271  17.033  0.00  0.00    +0.000 A 
ATOM      2  C   UNL     1       3.385   5.993  17.740  0.00  0.00    +0.000 A 
ATOM      3  C   UNL     1       2.451   5.355  18.549  0.00  0.00    +0.000 A 
ATOM      4  C   UNL     1       2.508   3.982  18.611  0.00  0.00    +0.000 A 
ATOM      5  C   UNL     1       3.450   3.220  17.917  0.00  0.00    +0.000 A 
ATOM      6  C   UNL     1       4.384   3.861  17.127  0.00  0.00    +0.000 A 
ATOM      7  C   UNL     1       3.230   1.776  18.207  0.00  0.00    +0.000 C 
ATOM      8  N   UNL     1       2.038   1.790  19.013  0.00  0.00    +0.000 N 
ATOM      9  C   UNL     1       1.613   3.064  19.321  0.00  0.00    +0.000 C 
ATOM     10  O   UNL     1       0.675   3.369  20.025  0.00  0.00    +0.000 OA
ATOM     11  H   UNL     1       1.548   0.979  19.370  0.00  0.00    +0.000 HD
ENDROOT
BRANCH   2  12
ATOM     12  O   UNL     1       3.247   7.354  17.664  0.00  0.00    +0.000 OA
ATOM     13  H   UNL     1       2.466   7.571  17.136  0.00  0.00    +0.000 HD
ENDBRANCH   2  12
BRANCH   6  14
ATOM     14  O   UNL     1       5.311   3.151  16.412  0.00  0.00    +0.000 OA
ATOM     15  H   UNL     1       5.145   2.198  16.489  0.00  0.00    +0.000 HD
ENDBRANCH   6  14
BRANCH   1  16
ATOM     16  C   UNL     1       5.424   5.971  16.191  0.00  0.00    +0.000 C 
BRANCH  16  19
ATOM     17  C   UNL     1       7.341   6.588  17.743  0.00  0.00    +0.000 C 
ATOM     18  C   UNL     1       7.691   5.140  17.967  0.00  0.00    +0.000 C 
ATOM     19  C   UNL     1       6.289   6.929  16.969  0.00  0.00    +0.000 C 
BRANCH  17  20
ATOM     20  C   UNL     1       8.130   7.672  18.451  0.00  0.00    +0.000 C 
BRANCH  20  21
ATOM     21  C   UNL     1       8.078   9.041  17.772  0.00  0.00    +0.000 C 
BRANCH  21  22
ATOM     22  C   UNL     1       8.836  10.080  18.571  0.00  0.00    +0.000 C 
ATOM     23  O   UNL     1       9.412   9.895  19.629  0.00  0.00    +0.000 OA
BRANCH  22  25
ATOM     24  C   UNL     1       9.395  12.361  18.587  0.00  0.00    +0.000 C 
ATOM     25  O   UNL     1       8.772  11.275  17.908  0.00  0.00    +0.000 OA
ENDBRANCH  22  25
ENDBRANCH  21  22
ENDBRANCH  20  21
ENDBRANCH  17  20
ENDBRANCH  16  19
ENDBRANCH   1  16
TORSDOF 8
ENDMDL
MODEL 2
REMARK VINA RESULT:      -7.2      3.845      5.806
REMARK  Name = 
REMARK  10 active torsions:
REMARK  status: ('A' for Active; 'I' for Inactive)
REMARK    1  A    between atoms: C_1  and  O_2
REMARK    2  A    between atoms: O_2  and  C_3
REMARK    3  A    between atoms: C_3  and  C_5
REMARK    4  A    between atoms: C_5  and  C_6
REMARK    5  A    between atoms: C_6  and  C_7
REMARK    6  A    between atoms: C_7  and  C_8
REMARK    7  A    between atoms: C_9  and  C_10
REMARK    8  A    between atoms: C_10  and  C_11
REMARK    9  A    between atoms: C_12  and  O_13
REMARK   10  A    between atoms: C_17  and  O_18
REMARK                            x       y       z     vdW  Elec       q    Type
REMARK                         _______ _______ _______ _____ _____    ______ ____
ROOT
ATOM      1  C   UNL     1       2.365   7.826  18.642  0.00  0.00    +0.000 A 
ATOM      2  C   UNL     1       2.229   7.152  19.884  0.00  0.00    +0.000 A 
ATOM      3  C   UNL     1       1.447   7.661  20.915  0.00  0.00    +0.000 A 
ATOM      4  C   UNL     1       0.832   8.873  20.696  0.00  0.00    +0.000 A 
ATOM      5  C   UNL     1       0.952   9.591  19.505  0.00  0.00    +0.000 A 
ATOM      6  C   UNL     1       1.719   9.073  18.480  0.00  0.00    +0.000 A 
ATOM      7  C   UNL     1       0.164  10.851  19.605  0.00  0.00    +0.000 C 
ATOM      8  N   UNL     1      -0.302  10.829  20.965  0.00  0.00    +0.000 N 
ATOM      9  C   UNL     1       0.018   9.662  21.625  0.00  0.00    +0.000 C 
ATOM     10  O   UNL     1      -0.294   9.354  22.754  0.00  0.00    +0.000 OA
ATOM     11  H   UNL     1      -0.842  11.553  21.424  0.00  0.00    +0.000 HD
ENDROOT
BRANCH   2  12
ATOM     12  O   UNL     1       2.867   5.975  20.174  0.00  0.00    +0.000 OA
ATOM     13  H   UNL     1       2.212   5.289  20.362  0.00  0.00    +0.000 HD
ENDBRANCH   2  12
BRANCH   6  14
ATOM     14  O   UNL     1       1.883   9.755  17.305  0.00  0.00    +0.000 OA
ATOM     15  H   UNL     1       2.819   9.772  17.047  0.00  0.00    +0.000 HD
ENDBRANCH   6  14
BRANCH   1  16
ATOM     16  C   UNL     1       3.180   7.247  17.508  0.00  0.00    +0.000 C 
BRANCH  16  19
ATOM     17  C   UNL     1       5.616   6.954  16.840  0.00  0.00    +0.000 C 
ATOM     18  C   UNL     1       5.236   6.172  15.610  0.00  0.00    +0.000 C 
ATOM     19  C   UNL     1       4.669   7.390  17.696  0.00  0.00    +0.000 C 
BRANCH  17  20
ATOM     20  C   UNL     1       7.079   7.192  17.159  0.00  0.00    +0.000 C 
BRANCH  20  21
ATOM     21  C   UNL     1       7.609   6.388  18.347  0.00  0.00    +0.000 C 
BRANCH  21  22
ATOM     22  C   UNL     1       7.456   4.900  18.116  0.00  0.00    +0.000 C 
ATOM     23  O   UNL     1       7.997   4.248  17.239  0.00  0.00    +0.000 OA
BRANCH  22  25
ATOM     24  C   UNL     1       5.349   3.959  18.550  0.00  0.00    +0.000 C 
ATOM     25  O   UNL     1       6.605   4.394  19.060  0.00  0.00    +0.000 OA
ENDBRANCH  22  25
ENDBRANCH  21  22
ENDBRANCH  20  21
ENDBRANCH  17  20
ENDBRANCH  16  19
ENDBRANCH   1  16
TORSDOF 8
ENDMDL
MODEL 3
REMARK VINA RESULT:      -7.2      4.600      7.619
REMARK  Name = 
REMARK  10 active torsions:
REMARK  status: ('A' for Active; 'I' for Inactive)
REMARK    1  A    between atoms: C_1  and  O_2
REMARK    2  A    between atoms: O_2  and  C_3
REMARK    3  A    between atoms: C_3  and  C_5
REMARK    4  A    between atoms: C_5  and  C_6
REMARK    5  A    between atoms: C_6  and  C_7
REMARK    6  A    between atoms: C_7  and  C_8
REMARK    7  A    between atoms: C_9  and  C_10
REMARK    8  A    between atoms: C_10  and  C_11
REMARK    9  A    between atoms: C_12  and  O_13
REMARK   10  A    between atoms: C_17  and  O_18
REMARK                            x       y       z     vdW  Elec       q    Type
REMARK                         _______ _______ _______ _____ _____    ______ ____
ROOT
ATOM      1  C   UNL     1       2.073   8.174  19.005  0.00  0.00    +0.000 A 
ATOM      2  C   UNL     1       1.744   7.722  20.309  0.00  0.00    +0.000 A 
ATOM      3  C   UNL     1       0.885   8.434  21.139  0.00  0.00    +0.000 A 
ATOM      4  C   UNL     1       0.390   9.624  20.656  0.00  0.00    +0.000 A 
ATOM      5  C   UNL     1       0.701  10.129  19.393  0.00  0.00    +0.000 A 
ATOM      6  C   UNL     1       1.543   9.409  18.568  0.00  0.00    +0.000 A 
ATOM      7  C   UNL     1      -0.000  11.428  19.192  0.00  0.00    +0.000 C 
ATOM      8  N   UNL     1      -0.623  11.655  20.469  0.00  0.00    +0.000 N 
ATOM      9  C   UNL     1      -0.468  10.597  21.339  0.00  0.00    +0.000 C 
ATOM     10  O   UNL     1      -0.931  10.496  22.453  0.00  0.00    +0.000 OA
ATOM     11  H   UNL     1      -1.159  12.472  20.736  0.00  0.00    +0.000 HD
ENDROOT
BRANCH   2  12
ATOM     12  O   UNL     1       2.256   6.576  20.859  0.00  0.00    +0.000 OA
ATOM     13  H   UNL     1       2.315   5.889  20.181  0.00  0.00    +0.000 HD
ENDBRANCH   2  12
BRANCH   6  14
ATOM     14  O   UNL     1       1.892   9.879  17.331  0.00  0.00    +0.000 OA
ATOM     15  H   UNL     1       1.431   9.383  16.635  0.00  0.00    +0.000 HD
ENDBRANCH   6  14
BRANCH   1  16
ATOM     16  C   UNL     1       2.971   7.374  18.089  0.00  0.00    +0.000 C 
BRANCH  16  19
ATOM     17  C   UNL     1       3.117   4.837  17.995  0.00  0.00    +0.000 C 
ATOM     18  C   UNL     1       4.539   4.850  18.491  0.00  0.00    +0.000 C 
ATOM     19  C   UNL     1       2.451   5.992  17.786  0.00  0.00    +0.000 C 
BRANCH  17  20
ATOM     20  C   UNL     1       2.450   3.518  17.657  0.00  0.00    +0.000 C 
BRANCH  20  21
ATOM     21  C   UNL     1       1.078   3.317  18.300  0.00  0.00    +0.000 C 
BRANCH  21  22
ATOM     22  C   UNL     1       1.159   3.407  19.809  0.00  0.00    +0.000 C 
ATOM     23  O   UNL     1       0.674   4.283  20.505  0.00  0.00    +0.000 OA
BRANCH  22  25
ATOM     24  C   UNL     1       2.750   2.638  21.356  0.00  0.00    +0.000 C 
ATOM     25  O   UNL     1       1.873   2.337  20.276  0.00  0.00    +0.000 OA
ENDBRANCH  22  25
ENDBRANCH  21  22
ENDBRANCH  20  21
ENDBRANCH  17  20
ENDBRANCH  16  19
ENDBRANCH   1  16
TORSDOF 8
ENDMDL
MODEL 4
REMARK VINA RESULT:      -7.1      4.504      7.538
REMARK  Name = 
REMARK  10 active torsions:
REMARK  status: ('A' for Active; 'I' for Inactive)
REMARK    1  A    between atoms: C_1  and  O_2
REMARK    2  A    between atoms: O_2  and  C_3
REMARK    3  A    between atoms: C_3  and  C_5
REMARK    4  A    between atoms: C_5  and  C_6
REMARK    5  A    between atoms: C_6  and  C_7
REMARK    6  A    between atoms: C_7  and  C_8
REMARK    7  A    between atoms: C_9  and  C_10
REMARK    8  A    between atoms: C_10  and  C_11
REMARK    9  A    between atoms: C_12  and  O_13
REMARK   10  A    between atoms: C_17  and  O_18
REMARK                            x       y       z     vdW  Elec       q    Type
REMARK                         _______ _______ _______ _____ _____    ______ ____
ROOT
ATOM      1  C   UNL     1       2.301   7.545  18.979  0.00  0.00    +0.000 A 
ATOM      2  C   UNL     1       1.997   7.126  20.300  0.00  0.00    +0.000 A 
ATOM      3  C   UNL     1       1.185   7.878  21.142  0.00  0.00    +0.000 A 
ATOM      4  C   UNL     1       0.710   9.073  20.651  0.00  0.00    +0.000 A 
ATOM      5  C   UNL     1       0.998   9.547  19.370  0.00  0.00    +0.000 A 
ATOM      6  C   UNL     1       1.794   8.787  18.534  0.00  0.00    +0.000 A 
ATOM      7  C   UNL     1       0.329  10.862  19.166  0.00  0.00    +0.000 C 
ATOM      8  N   UNL     1      -0.249  11.130  20.456  0.00  0.00    +0.000 N 
ATOM      9  C   UNL     1      -0.099  10.083  21.340  0.00  0.00    +0.000 C 
ATOM     10  O   UNL     1      -0.532  10.016  22.469  0.00  0.00    +0.000 OA
ATOM     11  H   UNL     1      -0.753  11.967  20.723  0.00  0.00    +0.000 HD
ENDROOT
BRANCH   2  12
ATOM     12  O   UNL     1       2.492   5.976  20.856  0.00  0.00    +0.000 OA
ATOM     13  H   UNL     1       3.325   6.168  21.309  0.00  0.00    +0.000 HD
ENDBRANCH   2  12
BRANCH   6  14
ATOM     14  O   UNL     1       2.120   9.225  17.279  0.00  0.00    +0.000 OA
ATOM     15  H   UNL     1       3.009   9.615  17.274  0.00  0.00    +0.000 HD
ENDBRANCH   6  14
BRANCH   1  16
ATOM     16  C   UNL     1       3.147   6.702  18.052  0.00  0.00    +0.000 C 
BRANCH  16  19
ATOM     17  C   UNL     1       3.474   4.223  17.591  0.00  0.00    +0.000 C 
ATOM     18  C   UNL     1       4.891   4.445  17.130  0.00  0.00    +0.000 C 
ATOM     19  C   UNL     1       2.701   5.265  17.962  0.00  0.00    +0.000 C 
BRANCH  17  20
ATOM     20  C   UNL     1       2.885   2.826  17.569  0.00  0.00    +0.000 C 
BRANCH  20  21
ATOM     21  C   UNL     1       2.492   2.281  18.942  0.00  0.00    +0.000 C 
BRANCH  21  22
ATOM     22  C   UNL     1       1.042   2.581  19.259  0.00  0.00    +0.000 C 
ATOM     23  O   UNL     1       0.082   2.315  18.557  0.00  0.00    +0.000 OA
BRANCH  22  25
ATOM     24  C   UNL     1       1.761   2.596  21.494  0.00  0.00    +0.000 C 
ATOM     25  O   UNL     1       0.978   3.207  20.474  0.00  0.00    +0.000 OA
ENDBRANCH  22  25
ENDBRANCH  21  22
ENDBRANCH  20  21
ENDBRANCH  17  20
ENDBRANCH  16  19
ENDBRANCH   1  16
TORSDOF 8
ENDMDL
MODEL 5
REMARK VINA RESULT:      -7.0      3.715      6.127
REMARK  Name = 
REMARK  10 active torsions:
REMARK  status: ('A' for Active; 'I' for Inactive)
REMARK    1  A    between atoms: C_1  and  O_2
REMARK    2  A    between atoms: O_2  and  C_3
REMARK    3  A    between atoms: C_3  and  C_5
REMARK    4  A    between atoms: C_5  and  C_6
REMARK    5  A    between atoms: C_6  and  C_7
REMARK    6  A    between atoms: C_7  and  C_8
REMARK    7  A    between atoms: C_9  and  C_10
REMARK    8  A    between atoms: C_10  and  C_11
REMARK    9  A    between atoms: C_12  and  O_13
REMARK   10  A    between atoms: C_17  and  O_18
REMARK                            x       y       z     vdW  Elec       q    Type
REMARK                         _______ _______ _______ _____ _____    ______ ____
ROOT
ATOM      1  C   UNL     1       3.982   4.690  18.084  0.00  0.00    +0.000 A 
ATOM      2  C   UNL     1       4.868   3.971  18.928  0.00  0.00    +0.000 A 
ATOM      3  C   UNL     1       4.414   3.248  20.025  0.00  0.00    +0.000 A 
ATOM      4  C   UNL     1       3.063   3.285  20.285  0.00  0.00    +0.000 A 
ATOM      5  C   UNL     1       2.150   3.996  19.505  0.00  0.00    +0.000 A 
ATOM      6  C   UNL     1       2.606   4.701  18.408  0.00  0.00    +0.000 A 
ATOM      7  C   UNL     1       0.780   3.823  20.063  0.00  0.00    +0.000 C 
ATOM      8  N   UNL     1       1.017   3.064  21.262  0.00  0.00    +0.000 N 
ATOM      9  C   UNL     1       2.333   2.679  21.402  0.00  0.00    +0.000 C 
ATOM     10  O   UNL     1       2.801   1.992  22.283  0.00  0.00    +0.000 OA
ATOM     11  H   UNL     1       0.320   2.787  21.943  0.00  0.00    +0.000 HD
ENDROOT
BRANCH   2  12
ATOM     12  O   UNL     1       6.226   3.951  18.748  0.00  0.00    +0.000 OA
ATOM     13  H   UNL     1       6.610   3.225  19.259  0.00  0.00    +0.000 HD
ENDBRANCH   2  12
BRANCH   6  14
ATOM     14  O   UNL     1       1.749   5.430  17.629  0.00  0.00    +0.000 OA
ATOM     15  H   UNL     1       1.005   5.762  18.159  0.00  0.00    +0.000 HD
ENDBRANCH   6  14
BRANCH   1  16
ATOM     16  C   UNL     1       4.475   5.438  16.866  0.00  0.00    +0.000 C 
BRANCH  16  19
ATOM     17  C   UNL     1       6.084   4.421  15.180  0.00  0.00    +0.000 C 
ATOM     18  C   UNL     1       7.217   5.286  15.664  0.00  0.00    +0.000 C 
ATOM     19  C   UNL     1       4.850   4.541  15.714  0.00  0.00    +0.000 C 
BRANCH  17  20
ATOM     20  C   UNL     1       6.310   3.456  14.032  0.00  0.00    +0.000 C 
BRANCH  20  21
ATOM     21  C   UNL     1       5.983   4.024  12.651  0.00  0.00    +0.000 C 
BRANCH  21  22
ATOM     22  C   UNL     1       5.445   2.952  11.728  0.00  0.00    +0.000 C 
ATOM     23  O   UNL     1       4.296   2.852  11.333  0.00  0.00    +0.000 OA
BRANCH  22  25
ATOM     24  C   UNL     1       6.049   0.787  11.047  0.00  0.00    +0.000 C 
ATOM     25  O   UNL     1       6.466   2.101  11.401  0.00  0.00    +0.000 OA
ENDBRANCH  22  25
ENDBRANCH  21  22
ENDBRANCH  20  21
ENDBRANCH  17  20
ENDBRANCH  16  19
ENDBRANCH   1  16
TORSDOF 8
ENDMDL
MODEL 6
REMARK VINA RESULT:      -7.0      2.777      6.686
REMARK  Name = 
REMARK  10 active torsions:
REMARK  status: ('A' for Active; 'I' for Inactive)
REMARK    1  A    between atoms: C_1  and  O_2
REMARK    2  A    between atoms: O_2  and  C_3
REMARK    3  A    between atoms: C_3  and  C_5
REMARK    4  A    between atoms: C_5  and  C_6
REMARK    5  A    between atoms: C_6  and  C_7
REMARK    6  A    between atoms: C_7  and  C_8
REMARK    7  A    between atoms: C_9  and  C_10
REMARK    8  A    between atoms: C_10  and  C_11
REMARK    9  A    between atoms: C_12  and  O_13
REMARK   10  A    between atoms: C_17  and  O_18
REMARK                            x       y       z     vdW  Elec       q    Type
REMARK                         _______ _______ _______ _____ _____    ______ ____
ROOT
ATOM      1  C   UNL     1       5.178   4.215  16.990  0.00  0.00    +0.000 A 
ATOM      2  C   UNL     1       5.380   5.198  15.986  0.00  0.00    +0.000 A 
ATOM      3  C   UNL     1       6.273   6.250  16.157  0.00  0.00    +0.000 A 
ATOM      4  C   UNL     1       6.935   6.322  17.361  0.00  0.00    +0.000 A 
ATOM      5  C   UNL     1       6.756   5.399  18.392  0.00  0.00    +0.000 A 
ATOM      6  C   UNL     1       5.878   4.348  18.211  0.00  0.00    +0.000 A 
ATOM      7  C   UNL     1       7.620   5.772  19.547  0.00  0.00    +0.000 C 
ATOM      8  N   UNL     1       8.197   7.020  19.124  0.00  0.00    +0.000 N 
ATOM      9  C   UNL     1       7.867   7.352  17.828  0.00  0.00    +0.000 C 
ATOM     10  O   UNL     1       8.255   8.314  17.201  0.00  0.00    +0.000 OA
ATOM     11  H   UNL     1       8.813   7.610  19.670  0.00  0.00    +0.000 HD
ENDROOT
BRANCH   2  12
ATOM     12  O   UNL     1       4.703   5.205  14.795  0.00  0.00    +0.000 OA
ATOM     13  H   UNL     1       3.765   5.030  14.955  0.00  0.00    +0.000 HD
ENDBRANCH   2  12
BRANCH   6  14
ATOM     14  O   UNL     1       5.655   3.433  19.205  0.00  0.00    +0.000 OA
ATOM     15  H   UNL     1       4.905   3.706  19.758  0.00  0.00    +0.000 HD
ENDBRANCH   6  14
BRANCH   1  16
ATOM     16  C   UNL     1       4.240   3.047  16.783  0.00  0.00    +0.000 C 
BRANCH  16  19
ATOM     17  C   UNL     1       2.405   2.429  18.431  0.00  0.00    +0.000 C 
ATOM     18  C   UNL     1       3.153   1.202  18.881  0.00  0.00    +0.000 C 
ATOM     19  C   UNL     1       2.902   3.219  17.456  0.00  0.00    +0.000 C 
BRANCH  17  20
ATOM     20  C   UNL     1       1.046   2.743  19.026  0.00  0.00    +0.000 C 
BRANCH  20  21
ATOM     21  C   UNL     1       1.018   3.973  19.933  0.00  0.00    +0.000 C 
BRANCH  21  22
ATOM     22  C   UNL     1       2.121   3.918  20.968  0.00  0.00    +0.000 C 
ATOM     23  O   UNL     1       2.148   3.200  21.954  0.00  0.00    +0.000 OA
BRANCH  22  25
ATOM     24  C   UNL     1       2.634   5.920  19.856  0.00  0.00    +0.000 C 
ATOM     25  O   UNL     1       3.096   4.812  20.620  0.00  0.00    +0.000 OA
ENDBRANCH  22  25
ENDBRANCH  21  22
ENDBRANCH  20  21
ENDBRANCH  17  20
ENDBRANCH  16  19
ENDBRANCH   1  16
TORSDOF 8
ENDMDL
MODEL 7
REMARK VINA RESULT:      -7.0      2.697      6.999
REMARK  Name = 
REMARK  10 active torsions:
REMARK  status: ('A' for Active; 'I' for Inactive)
REMARK    1  A    between atoms: C_1  and  O_2
REMARK    2  A    between atoms: O_2  and  C_3
REMARK    3  A    between atoms: C_3  and  C_5
REMARK    4  A    between atoms: C_5  and  C_6
REMARK    5  A    between atoms: C_6  and  C_7
REMARK    6  A    between atoms: C_7  and  C_8
REMARK    7  A    between atoms: C_9  and  C_10
REMARK    8  A    between atoms: C_10  and  C_11
REMARK    9  A    between atoms: C_12  and  O_13
REMARK   10  A    between atoms: C_17  and  O_18
REMARK                            x       y       z     vdW  Elec       q    Type
REMARK                         _______ _______ _______ _____ _____    ______ ____
ROOT
ATOM      1  C   UNL     1       5.355   4.623  16.882  0.00  0.00    +0.000 A 
ATOM      2  C   UNL     1       5.520   5.739  16.020  0.00  0.00    +0.000 A 
ATOM      3  C   UNL     1       6.416   6.763  16.307  0.00  0.00    +0.000 A 
ATOM      4  C   UNL     1       7.118   6.671  17.486  0.00  0.00    +0.000 A 
ATOM      5  C   UNL     1       6.977   5.611  18.383  0.00  0.00    +0.000 A 
ATOM      6  C   UNL     1       6.095   4.589  18.086  0.00  0.00    +0.000 A 
ATOM      7  C   UNL     1       7.879   5.825  19.550  0.00  0.00    +0.000 C 
ATOM      8  N   UNL     1       8.437   7.124  19.287  0.00  0.00    +0.000 N 
ATOM      9  C   UNL     1       8.063   7.632  18.061  0.00  0.00    +0.000 C 
ATOM     10  O   UNL     1       8.426   8.675  17.563  0.00  0.00    +0.000 OA
ATOM     11  H   UNL     1       9.071   7.636  19.889  0.00  0.00    +0.000 HD
ENDROOT
BRANCH   2  12
ATOM     12  O   UNL     1       4.802   5.908  14.865  0.00  0.00    +0.000 OA
ATOM     13  H   UNL     1       5.117   6.697  14.402  0.00  0.00    +0.000 HD
ENDBRANCH   2  12
BRANCH   6  14
ATOM     14  O   UNL     1       5.909   3.543  18.948  0.00  0.00    +0.000 OA
ATOM     15  H   UNL     1       6.189   3.786  19.846  0.00  0.00    +0.000 HD
ENDBRANCH   6  14
BRANCH   1  16
ATOM     16  C   UNL     1       4.413   3.490  16.545  0.00  0.00    +0.000 C 
BRANCH  16  19
ATOM     17  C   UNL     1       2.385   2.914  17.966  0.00  0.00    +0.000 C 
ATOM     18  C   UNL     1       3.044   1.666  18.491  0.00  0.00    +0.000 C 
ATOM     19  C   UNL     1       3.011   3.694  17.060  0.00  0.00    +0.000 C 
BRANCH  17  20
ATOM     20  C   UNL     1       0.974   3.261  18.402  0.00  0.00    +0.000 C 
BRANCH  20  21
ATOM     21  C   UNL     1       0.765   3.287  19.916  0.00  0.00    +0.000 C 
BRANCH  21  22
ATOM     22  C   UNL     1       1.612   4.358  20.570  0.00  0.00    +0.000 C 
ATOM     23  O   UNL     1       1.630   5.541  20.274  0.00  0.00    +0.000 OA
BRANCH  22  25
ATOM     24  C   UNL     1       1.922   2.490  21.958  0.00  0.00    +0.000 C 
ATOM     25  O   UNL     1       2.363   3.783  21.558  0.00  0.00    +0.000 OA
ENDBRANCH  22  25
ENDBRANCH  21  22
ENDBRANCH  20  21
ENDBRANCH  17  20
ENDBRANCH  16  19
ENDBRANCH   1  16
TORSDOF 8
ENDMDL
MODEL 8
REMARK VINA RESULT:      -7.0      4.054      5.961
REMARK  Name = 
REMARK  10 active torsions:
REMARK  status: ('A' for Active; 'I' for Inactive)
REMARK    1  A    between atoms: C_1  and  O_2
REMARK    2  A    between atoms: O_2  and  C_3
REMARK    3  A    between atoms: C_3  and  C_5
REMARK    4  A    between atoms: C_5  and  C_6
REMARK    5  A    between atoms: C_6  and  C_7
REMARK    6  A    between atoms: C_7  and  C_8
REMARK    7  A    between atoms: C_9  and  C_10
REMARK    8  A    between atoms: C_10  and  C_11
REMARK    9  A    between atoms: C_12  and  O_13
REMARK   10  A    between atoms: C_17  and  O_18
REMARK                            x       y       z     vdW  Elec       q    Type
REMARK                         _______ _______ _______ _____ _____    ______ ____
ROOT
ATOM      1  C   UNL     1       2.124   7.461  19.059  0.00  0.00    +0.000 A 
ATOM      2  C   UNL     1       1.825   7.218  20.424  0.00  0.00    +0.000 A 
ATOM      3  C   UNL     1       1.231   8.182  21.231  0.00  0.00    +0.000 A 
ATOM      4  C   UNL     1       0.973   9.406  20.657  0.00  0.00    +0.000 A 
ATOM      5  C   UNL     1       1.269   9.710  19.328  0.00  0.00    +0.000 A 
ATOM      6  C   UNL     1       1.846   8.742  18.528  0.00  0.00    +0.000 A 
ATOM      7  C   UNL     1       0.862  11.113  19.037  0.00  0.00    +0.000 C 
ATOM      8  N   UNL     1       0.428  11.592  20.322  0.00  0.00    +0.000 N 
ATOM      9  C   UNL     1       0.423  10.609  21.289  0.00  0.00    +0.000 C 
ATOM     10  O   UNL     1       0.055  10.719  22.438  0.00  0.00    +0.000 OA
ATOM     11  H   UNL     1       0.117  12.532  20.536  0.00  0.00    +0.000 HD
ENDROOT
BRANCH   2  12
ATOM     12  O   UNL     1       2.117   6.038  21.058  0.00  0.00    +0.000 OA
ATOM     13  H   UNL     1       3.048   5.817  20.918  0.00  0.00    +0.000 HD
ENDBRANCH   2  12
BRANCH   6  14
ATOM     14  O   UNL     1       2.174   9.005  17.226  0.00  0.00    +0.000 OA
ATOM     15  H   UNL     1       2.508   8.204  16.790  0.00  0.00    +0.000 HD
ENDBRANCH   6  14
BRANCH   1  16
ATOM     16  C   UNL     1       2.729   6.396  18.174  0.00  0.00    +0.000 C 
BRANCH  16  19
ATOM     17  C   UNL     1       4.886   5.151  18.689  0.00  0.00    +0.000 C 
ATOM     18  C   UNL     1       4.132   3.912  19.097  0.00  0.00    +0.000 C 
ATOM     19  C   UNL     1       4.224   6.267  18.316  0.00  0.00    +0.000 C 
BRANCH  17  20
ATOM     20  C   UNL     1       6.400   5.171  18.767  0.00  0.00    +0.000 C 
BRANCH  20  21
ATOM     21  C   UNL     1       7.108   4.778  17.470  0.00  0.00    +0.000 C 
BRANCH  21  22
ATOM     22  C   UNL     1       7.144   5.932  16.491  0.00  0.00    +0.000 C 
ATOM     23  O   UNL     1       7.737   6.987  16.643  0.00  0.00    +0.000 OA
BRANCH  22  25
ATOM     24  C   UNL     1       6.388   4.211  15.083  0.00  0.00    +0.000 C 
ATOM     25  O   UNL     1       6.398   5.601  15.394  0.00  0.00    +0.000 OA
ENDBRANCH  22  25
ENDBRANCH  21  22
ENDBRANCH  20  21
ENDBRANCH  17  20
ENDBRANCH  16  19
ENDBRANCH   1  16
TORSDOF 8
ENDMDL
MODEL 9
REMARK VINA RESULT:      -6.9      4.532      7.615
REMARK  Name = 
REMARK  10 active torsions:
REMARK  status: ('A' for Active; 'I' for Inactive)
REMARK    1  A    between atoms: C_1  and  O_2
REMARK    2  A    between atoms: O_2  and  C_3
REMARK    3  A    between atoms: C_3  and  C_5
REMARK    4  A    between atoms: C_5  and  C_6
REMARK    5  A    between atoms: C_6  and  C_7
REMARK    6  A    between atoms: C_7  and  C_8
REMARK    7  A    between atoms: C_9  and  C_10
REMARK    8  A    between atoms: C_10  and  C_11
REMARK    9  A    between atoms: C_12  and  O_13
REMARK   10  A    between atoms: C_17  and  O_18
REMARK                            x       y       z     vdW  Elec       q    Type
REMARK                         _______ _______ _______ _____ _____    ______ ____
ROOT
ATOM      1  C   UNL     1       1.918   8.310  19.275  0.00  0.00    +0.000 A 
ATOM      2  C   UNL     1       1.475   9.464  18.578  0.00  0.00    +0.000 A 
ATOM      3  C   UNL     1       0.679  10.429  19.184  0.00  0.00    +0.000 A 
ATOM      4  C   UNL     1       0.304  10.204  20.489  0.00  0.00    +0.000 A 
ATOM      5  C   UNL     1       0.689   9.075  21.214  0.00  0.00    +0.000 A 
ATOM      6  C   UNL     1       1.492   8.127  20.610  0.00  0.00    +0.000 A 
ATOM      7  C   UNL     1       0.112   9.147  22.586  0.00  0.00    +0.000 C 
ATOM      8  N   UNL     1      -0.704  10.330  22.527  0.00  0.00    +0.000 N 
ATOM      9  C   UNL     1      -0.577  11.012  21.336  0.00  0.00    +0.000 C 
ATOM     10  O   UNL     1      -1.103  12.062  21.037  0.00  0.00    +0.000 OA
ATOM     11  H   UNL     1      -1.297  10.685  23.267  0.00  0.00    +0.000 HD
ENDROOT
BRANCH   2  12
ATOM     12  O   UNL     1       1.770   9.706  17.261  0.00  0.00    +0.000 OA
ATOM     13  H   UNL     1       2.417   9.057  16.950  0.00  0.00    +0.000 HD
ENDBRANCH   2  12
BRANCH   6  14
ATOM     14  O   UNL     1       1.873   6.994  21.277  0.00  0.00    +0.000 OA
ATOM     15  H   UNL     1       1.152   6.673  21.843  0.00  0.00    +0.000 HD
ENDBRANCH   6  14
BRANCH   1  16
ATOM     16  C   UNL     1       2.821   7.286  18.626  0.00  0.00    +0.000 C 
BRANCH  16  19
ATOM     17  C   UNL     1       2.705   4.909  17.730  0.00  0.00    +0.000 C 
ATOM     18  C   UNL     1       4.148   4.946  17.302  0.00  0.00    +0.000 C 
ATOM     19  C   UNL     1       2.124   5.992  18.288  0.00  0.00    +0.000 C 
BRANCH  17  20
ATOM     20  C   UNL     1       1.873   3.668  17.468  0.00  0.00    +0.000 C 
BRANCH  20  21
ATOM     21  C   UNL     1       1.504   2.874  18.721  0.00  0.00    +0.000 C 
BRANCH  21  22
ATOM     22  C   UNL     1       2.733   2.291  19.385  0.00  0.00    +0.000 C 
ATOM     23  O   UNL     1       3.559   1.564  18.860  0.00  0.00    +0.000 OA
BRANCH  22  25
ATOM     24  C   UNL     1       1.508   3.083  21.225  0.00  0.00    +0.000 C 
ATOM     25  O   UNL     1       2.772   2.715  20.685  0.00  0.00    +0.000 OA
ENDBRANCH  22  25
ENDBRANCH  21  22
ENDBRANCH  20  21
ENDBRANCH  17  20
ENDBRANCH  16  19
ENDBRANCH   1  16
TORSDOF 8
ENDMDL
