MODEL 1
REMARK VINA RESULT:      -7.5      0.000      0.000
REMARK  Name = 
REMARK  4 active torsions:
REMARK  status: ('A' for Active; 'I' for Inactive)
REMARK    1  A    between atoms: C_1  and  N_2
REMARK    2  A    between atoms: C_6  and  O_7
REMARK    3  A    between atoms: O_7  and  C_8
REMARK    4  A    between atoms: C_8  and  C_9
REMARK                            x       y       z     vdW  Elec       q    Type
REMARK                         _______ _______ _______ _____ _____    ______ ____
ROOT
ATOM      1  C   UNL     1       1.558   7.374  20.791  0.00  0.00    +0.000 C 
ATOM      2  N   UNL     1       2.106   6.445  19.818  0.00  0.00    +0.000 N 
ATOM      3  C   UNL     1       3.231   6.860  18.997  0.00  0.00    +0.000 C 
ATOM      4  C   UNL     1       3.284   6.058  17.694  0.00  0.00    +0.000 C 
ATOM      5  C   UNL     1       3.290   4.580  17.996  0.00  0.00    +0.000 A 
ATOM      6  C   UNL     1       3.905   3.634  17.156  0.00  0.00    +0.000 A 
ATOM      7  C   UNL     1       3.787   2.268  17.466  0.00  0.00    +0.000 A 
ATOM      8  C   UNL     1       3.148   1.839  18.626  0.00  0.00    +0.000 A 
ATOM      9  C   UNL     1       2.562   2.770  19.470  0.00  0.00    +0.000 A 
ATOM     10  C   UNL     1       2.603   4.131  19.146  0.00  0.00    +0.000 A 
ATOM     11  C   UNL     1       1.895   5.084  20.047  0.00  0.00    +0.000 C 
ATOM     12  O   UNL     1       1.167   4.660  20.937  0.00  0.00    +0.000 OA
ENDROOT
BRANCH   6  13
ATOM     13  O   UNL     1       4.612   4.102  16.066  0.00  0.00    +0.000 OA
BRANCH  13  14
ATOM     14  C   UNL     1       6.029   3.887  16.149  0.00  0.00    +0.000 C 
BRANCH  14  15
ATOM     15  C   UNL     1       6.772   4.952  16.920  0.00  0.00    +0.000 A 
ATOM     16  C   UNL     1       6.771   6.270  16.420  0.00  0.00    +0.000 A 
ATOM     17  C   UNL     1       7.384   7.303  17.124  0.00  0.00    +0.000 A 
ATOM     18  C   UNL     1       7.987   7.025  18.347  0.00  0.00    +0.000 A 
ATOM     19  F   UNL     1       8.571   8.017  19.031  0.00  0.00    +0.000 F 
ATOM     20  C   UNL     1       7.984   5.737  18.869  0.00  0.00    +0.000 A 
ATOM     21  C   UNL     1       7.372   4.698  18.161  0.00  0.00    +0.000 A 
ENDBRANCH  14  15
ENDBRANCH  13  14
ENDBRANCH   6  13
TORSDOF 3
ENDMDL
MODEL 2
REMARK VINA RESULT:      -7.4      0.109      1.062
REMARK  Name = 
REMARK  4 active torsions:
REMARK  status: ('A' for Active; 'I' for Inactive)
REMARK    1  A    between atoms: C_1  and  N_2
REMARK    2  A    between atoms: C_6  and  O_7
REMARK    3  A    between atoms: O_7  and  C_8
REMARK    4  A    between atoms: C_8  and  C_9
REMARK                            x       y       z     vdW  Elec       q    Type
REMARK                         _______ _______ _______ _____ _____    ______ ____
ROOT
ATOM      1  C   UNL     1       1.486   7.254  20.859  0.00  0.00    +0.000 C 
ATOM      2  N   UNL     1       2.043   6.342  19.876  0.00  0.00    +0.000 N 
ATOM      3  C   UNL     1       3.150   6.784  19.044  0.00  0.00    +0.000 C 
ATOM      4  C   UNL     1       3.205   5.990  17.738  0.00  0.00    +0.000 C 
ATOM      5  C   UNL     1       3.247   4.511  18.033  0.00  0.00    +0.000 A 
ATOM      6  C   UNL     1       3.872   3.582  17.182  0.00  0.00    +0.000 A 
ATOM      7  C   UNL     1       3.788   2.213  17.487  0.00  0.00    +0.000 A 
ATOM      8  C   UNL     1       3.171   1.765  18.652  0.00  0.00    +0.000 A 
ATOM      9  C   UNL     1       2.574   2.679  19.506  0.00  0.00    +0.000 A 
ATOM     10  C   UNL     1       2.583   4.042  19.188  0.00  0.00    +0.000 A 
ATOM     11  C   UNL     1       1.863   4.976  20.101  0.00  0.00    +0.000 C 
ATOM     12  O   UNL     1       1.155   4.532  20.997  0.00  0.00    +0.000 OA
ENDROOT
BRANCH   6  13
ATOM     13  O   UNL     1       4.557   4.070  16.086  0.00  0.00    +0.000 OA
BRANCH  13  14
ATOM     14  C   UNL     1       5.985   3.951  16.185  0.00  0.00    +0.000 C 
BRANCH  14  15
ATOM     15  C   UNL     1       6.647   5.065  16.961  0.00  0.00    +0.000 A 
ATOM     16  C   UNL     1       7.297   4.750  18.171  0.00  0.00    +0.000 A 
ATOM     17  C   UNL     1       7.980   5.725  18.892  0.00  0.00    +0.000 A 
ATOM     18  C   UNL     1       8.032   7.023  18.395  0.00  0.00    +0.000 A 
ATOM     19  F   UNL     1       8.694   7.963  19.082  0.00  0.00    +0.000 F 
ATOM     20  C   UNL     1       7.415   7.354  17.194  0.00  0.00    +0.000 A 
ATOM     21  C   UNL     1       6.727   6.377  16.470  0.00  0.00    +0.000 A 
ENDBRANCH  14  15
ENDBRANCH  13  14
ENDBRANCH   6  13
TORSDOF 3
ENDMDL
MODEL 3
REMARK VINA RESULT:      -7.1      4.405      7.026
REMARK  Name = 
REMARK  4 active torsions:
REMARK  status: ('A' for Active; 'I' for Inactive)
REMARK    1  A    between atoms: C_1  and  N_2
REMARK    2  A    between atoms: C_6  and  O_7
REMARK    3  A    between atoms: O_7  and  C_8
REMARK    4  A    between atoms: C_8  and  C_9
REMARK                            x       y       z     vdW  Elec       q    Type
REMARK                         _______ _______ _______ _____ _____    ______ ____
ROOT
ATOM      1  C   UNL     1      -1.934  11.928  23.272  0.00  0.00    +0.000 C 
ATOM      2  N   UNL     1      -1.033  11.130  22.460  0.00  0.00    +0.000 N 
ATOM      3  C   UNL     1      -0.679   9.791  22.899  0.00  0.00    +0.000 C 
ATOM      4  C   UNL     1       0.661   9.354  22.304  0.00  0.00    +0.000 C 
ATOM      5  C   UNL     1       0.628   9.489  20.802  0.00  0.00    +0.000 A 
ATOM      6  C   UNL     1       1.388   8.671  19.947  0.00  0.00    +0.000 A 
ATOM      7  C   UNL     1       1.366   8.923  18.564  0.00  0.00    +0.000 A 
ATOM      8  C   UNL     1       0.549   9.909  18.019  0.00  0.00    +0.000 A 
ATOM      9  C   UNL     1      -0.221  10.703  18.856  0.00  0.00    +0.000 A 
ATOM     10  C   UNL     1      -0.162  10.519  20.241  0.00  0.00    +0.000 A 
ATOM     11  C   UNL     1      -0.950  11.445  21.103  0.00  0.00    +0.000 C 
ATOM     12  O   UNL     1      -1.489  12.430  20.610  0.00  0.00    +0.000 OA
ENDROOT
BRANCH   6  13
ATOM     13  O   UNL     1       2.112   7.641  20.515  0.00  0.00    +0.000 OA
BRANCH  13  14
ATOM     14  C   UNL     1       2.766   6.788  19.563  0.00  0.00    +0.000 C 
BRANCH  14  15
ATOM     15  C   UNL     1       2.068   5.469  19.333  0.00  0.00    +0.000 A 
ATOM     16  C   UNL     1       2.096   4.908  18.039  0.00  0.00    +0.000 A 
ATOM     17  C   UNL     1       1.527   3.663  17.786  0.00  0.00    +0.000 A 
ATOM     18  C   UNL     1       0.941   2.960  18.834  0.00  0.00    +0.000 A 
ATOM     19  F   UNL     1       0.399   1.759  18.596  0.00  0.00    +0.000 F 
ATOM     20  C   UNL     1       0.918   3.484  20.122  0.00  0.00    +0.000 A 
ATOM     21  C   UNL     1       1.486   4.735  20.376  0.00  0.00    +0.000 A 
ENDBRANCH  14  15
ENDBRANCH  13  14
ENDBRANCH   6  13
TORSDOF 3
ENDMDL
MODEL 4
REMARK VINA RESULT:      -7.0      4.212      6.826
REMARK  Name = 
REMARK  4 active torsions:
REMARK  status: ('A' for Active; 'I' for Inactive)
REMARK    1  A    between atoms: C_1  and  N_2
REMARK    2  A    between atoms: C_6  and  O_7
REMARK    3  A    between atoms: O_7  and  C_8
REMARK    4  A    between atoms: C_8  and  C_9
REMARK                            x       y       z     vdW  Elec       q    Type
REMARK                         _______ _______ _______ _____ _____    ______ ____
ROOT
ATOM      1  C   UNL     1      -1.375  11.850  23.066  0.00  0.00    +0.000 C 
ATOM      2  N   UNL     1      -0.531  10.960  22.290  0.00  0.00    +0.000 N 
ATOM      3  C   UNL     1      -0.383   9.576  22.711  0.00  0.00    +0.000 C 
ATOM      4  C   UNL     1       0.927   8.982  22.190  0.00  0.00    +0.000 C 
ATOM      5  C   UNL     1       1.014   9.153  20.693  0.00  0.00    +0.000 A 
ATOM      6  C   UNL     1       1.718   8.261  19.864  0.00  0.00    +0.000 A 
ATOM      7  C   UNL     1       1.823   8.544  18.491  0.00  0.00    +0.000 A 
ATOM      8  C   UNL     1       1.178   9.640  17.925  0.00  0.00    +0.000 A 
ATOM      9  C   UNL     1       0.462  10.509  18.734  0.00  0.00    +0.000 A 
ATOM     10  C   UNL     1       0.402  10.288  20.115  0.00  0.00    +0.000 A 
ATOM     11  C   UNL     1      -0.317  11.291  20.951  0.00  0.00    +0.000 C 
ATOM     12  O   UNL     1      -0.689  12.348  20.455  0.00  0.00    +0.000 OA
ENDROOT
BRANCH   6  13
ATOM     13  O   UNL     1       2.264   7.134  20.446  0.00  0.00    +0.000 OA
BRANCH  13  14
ATOM     14  C   UNL     1       2.999   6.301  19.537  0.00  0.00    +0.000 C 
BRANCH  14  15
ATOM     15  C   UNL     1       2.348   4.967  19.256  0.00  0.00    +0.000 A 
ATOM     16  C   UNL     1       1.508   4.407  20.240  0.00  0.00    +0.000 A 
ATOM     17  C   UNL     1       0.830   3.213  20.008  0.00  0.00    +0.000 A 
ATOM     18  C   UNL     1       0.975   2.581  18.777  0.00  0.00    +0.000 A 
ATOM     19  F   UNL     1       0.319   1.436  18.547  0.00  0.00    +0.000 F 
ATOM     20  C   UNL     1       1.782   3.124  17.784  0.00  0.00    +0.000 A 
ATOM     21  C   UNL     1       2.466   4.320  18.017  0.00  0.00    +0.000 A 
ENDBRANCH  14  15
ENDBRANCH  13  14
ENDBRANCH   6  13
TORSDOF 3
ENDMDL
MODEL 5
REMARK VINA RESULT:      -6.9      1.618      2.495
REMARK  Name = 
REMARK  4 active torsions:
REMARK  status: ('A' for Active; 'I' for Inactive)
REMARK    1  A    between atoms: C_1  and  N_2
REMARK    2  A    between atoms: C_6  and  O_7
REMARK    3  A    between atoms: O_7  and  C_8
REMARK    4  A    between atoms: C_8  and  C_9
REMARK                            x       y       z     vdW  Elec       q    Type
REMARK                         _______ _______ _______ _____ _____    ______ ____
ROOT
ATOM      1  C   UNL     1       1.178  10.380  19.207  0.00  0.00    +0.000 C 
ATOM      2  N   UNL     1       1.584   9.008  18.958  0.00  0.00    +0.000 N 
ATOM      3  C   UNL     1       2.569   8.736  17.925  0.00  0.00    +0.000 C 
ATOM      4  C   UNL     1       2.434   7.305  17.402  0.00  0.00    +0.000 C 
ATOM      5  C   UNL     1       2.502   6.327  18.549  0.00  0.00    +0.000 A 
ATOM      6  C   UNL     1       2.993   5.017  18.405  0.00  0.00    +0.000 A 
ATOM      7  C   UNL     1       2.938   4.143  19.505  0.00  0.00    +0.000 A 
ATOM      8  C   UNL     1       2.484   4.570  20.749  0.00  0.00    +0.000 A 
ATOM      9  C   UNL     1       2.021   5.868  20.902  0.00  0.00    +0.000 A 
ATOM     10  C   UNL     1       1.999   6.736  19.805  0.00  0.00    +0.000 A 
ATOM     11  C   UNL     1       1.423   8.096  20.003  0.00  0.00    +0.000 C 
ATOM     12  O   UNL     1       0.841   8.369  21.047  0.00  0.00    +0.000 OA
ENDROOT
BRANCH   6  13
ATOM     13  O   UNL     1       3.524   4.658  17.182  0.00  0.00    +0.000 OA
BRANCH  13  14
ATOM     14  C   UNL     1       4.879   4.185  17.246  0.00  0.00    +0.000 C 
BRANCH  14  15
ATOM     15  C   UNL     1       5.883   5.237  17.652  0.00  0.00    +0.000 A 
ATOM     16  C   UNL     1       6.761   4.955  18.719  0.00  0.00    +0.000 A 
ATOM     17  C   UNL     1       7.749   5.861  19.092  0.00  0.00    +0.000 A 
ATOM     18  C   UNL     1       7.879   7.051  18.384  0.00  0.00    +0.000 A 
ATOM     19  F   UNL     1       8.833   7.922  18.735  0.00  0.00    +0.000 F 
ATOM     20  C   UNL     1       7.038   7.344  17.316  0.00  0.00    +0.000 A 
ATOM     21  C   UNL     1       6.043   6.436  16.943  0.00  0.00    +0.000 A 
ENDBRANCH  14  15
ENDBRANCH  13  14
ENDBRANCH   6  13
TORSDOF 3
ENDMDL
MODEL 6
REMARK VINA RESULT:      -6.9      0.964      1.546
REMARK  Name = 
REMARK  4 active torsions:
REMARK  status: ('A' for Active; 'I' for Inactive)
REMARK    1  A    between atoms: C_1  and  N_2
REMARK    2  A    between atoms: C_6  and  O_7
REMARK    3  A    between atoms: O_7  and  C_8
REMARK    4  A    between atoms: C_8  and  C_9
REMARK                            x       y       z     vdW  Elec       q    Type
REMARK                         _______ _______ _______ _____ _____    ______ ____
ROOT
ATOM      1  C   UNL     1       1.458   8.952  19.842  0.00  0.00    +0.000 C 
ATOM      2  N   UNL     1       1.977   7.711  19.297  0.00  0.00    +0.000 N 
ATOM      3  C   UNL     1       2.955   7.760  18.223  0.00  0.00    +0.000 C 
ATOM      4  C   UNL     1       2.933   6.470  17.402  0.00  0.00    +0.000 C 
ATOM      5  C   UNL     1       3.116   5.277  18.308  0.00  0.00    +0.000 A 
ATOM      6  C   UNL     1       3.717   4.080  17.878  0.00  0.00    +0.000 A 
ATOM      7  C   UNL     1       3.768   2.987  18.761  0.00  0.00    +0.000 A 
ATOM      8  C   UNL     1       3.311   3.091  20.072  0.00  0.00    +0.000 A 
ATOM      9  C   UNL     1       2.739   4.277  20.507  0.00  0.00    +0.000 A 
ATOM     10  C   UNL     1       2.612   5.356  19.626  0.00  0.00    +0.000 A 
ATOM     11  C   UNL     1       1.924   6.583  20.119  0.00  0.00    +0.000 C 
ATOM     12  O   UNL     1       1.348   6.569  21.201  0.00  0.00    +0.000 OA
ENDROOT
BRANCH   6  13
ATOM     13  O   UNL     1       4.246   4.045  16.603  0.00  0.00    +0.000 OA
BRANCH  13  14
ATOM     14  C   UNL     1       5.675   3.912  16.563  0.00  0.00    +0.000 C 
BRANCH  14  15
ATOM     15  C   UNL     1       6.421   5.063  17.194  0.00  0.00    +0.000 A 
ATOM     16  C   UNL     1       7.184   4.817  18.354  0.00  0.00    +0.000 A 
ATOM     17  C   UNL     1       7.945   5.826  18.938  0.00  0.00    +0.000 A 
ATOM     18  C   UNL     1       7.962   7.087  18.351  0.00  0.00    +0.000 A 
ATOM     19  F   UNL     1       8.698   8.059  18.906  0.00  0.00    +0.000 F 
ATOM     20  C   UNL     1       7.234   7.349  17.196  0.00  0.00    +0.000 A 
ATOM     21  C   UNL     1       6.467   6.338  16.611  0.00  0.00    +0.000 A 
ENDBRANCH  14  15
ENDBRANCH  13  14
ENDBRANCH   6  13
TORSDOF 3
ENDMDL
MODEL 7
REMARK VINA RESULT:      -6.8      1.082      1.249
REMARK  Name = 
REMARK  4 active torsions:
REMARK  status: ('A' for Active; 'I' for Inactive)
REMARK    1  A    between atoms: C_1  and  N_2
REMARK    2  A    between atoms: C_6  and  O_7
REMARK    3  A    between atoms: O_7  and  C_8
REMARK    4  A    between atoms: C_8  and  C_9
REMARK                            x       y       z     vdW  Elec       q    Type
REMARK                         _______ _______ _______ _____ _____    ______ ____
ROOT
ATOM      1  C   UNL     1       1.553   9.163  19.514  0.00  0.00    +0.000 C 
ATOM      2  N   UNL     1       2.105   7.914  19.021  0.00  0.00    +0.000 N 
ATOM      3  C   UNL     1       3.159   7.950  18.021  0.00  0.00    +0.000 C 
ATOM      4  C   UNL     1       3.193   6.651  17.214  0.00  0.00    +0.000 C 
ATOM      5  C   UNL     1       3.305   5.467  18.142  0.00  0.00    +0.000 A 
ATOM      6  C   UNL     1       3.932   4.264  17.770  0.00  0.00    +0.000 A 
ATOM      7  C   UNL     1       3.914   3.180  18.666  0.00  0.00    +0.000 A 
ATOM      8  C   UNL     1       3.362   3.299  19.938  0.00  0.00    +0.000 A 
ATOM      9  C   UNL     1       2.765   4.491  20.318  0.00  0.00    +0.000 A 
ATOM     10  C   UNL     1       2.707   5.562  19.419  0.00  0.00    +0.000 A 
ATOM     11  C   UNL     1       1.989   6.795  19.848  0.00  0.00    +0.000 C 
ATOM     12  O   UNL     1       1.335   6.794  20.885  0.00  0.00    +0.000 OA
ENDROOT
BRANCH   6  13
ATOM     13  O   UNL     1       4.552   4.214  16.537  0.00  0.00    +0.000 OA
BRANCH  13  14
ATOM     14  C   UNL     1       5.968   3.986  16.601  0.00  0.00    +0.000 C 
BRANCH  14  15
ATOM     15  C   UNL     1       6.750   5.121  17.219  0.00  0.00    +0.000 A 
ATOM     16  C   UNL     1       6.718   6.382  16.590  0.00  0.00    +0.000 A 
ATOM     17  C   UNL     1       7.366   7.479  17.152  0.00  0.00    +0.000 A 
ATOM     18  C   UNL     1       8.036   7.324  18.361  0.00  0.00    +0.000 A 
ATOM     19  F   UNL     1       8.654   8.378  18.909  0.00  0.00    +0.000 F 
ATOM     20  C   UNL     1       8.065   6.095  19.010  0.00  0.00    +0.000 A 
ATOM     21  C   UNL     1       7.418   4.992  18.446  0.00  0.00    +0.000 A 
ENDBRANCH  14  15
ENDBRANCH  13  14
ENDBRANCH   6  13
TORSDOF 3
ENDMDL
MODEL 8
REMARK VINA RESULT:      -6.8      1.120      2.539
REMARK  Name = 
REMARK  4 active torsions:
REMARK  status: ('A' for Active; 'I' for Inactive)
REMARK    1  A    between atoms: C_1  and  N_2
REMARK    2  A    between atoms: C_6  and  O_7
REMARK    3  A    between atoms: O_7  and  C_8
REMARK    4  A    between atoms: C_8  and  C_9
REMARK                            x       y       z     vdW  Elec       q    Type
REMARK                         _______ _______ _______ _____ _____    ______ ____
ROOT
ATOM      1  C   UNL     1       1.413   2.675  21.335  0.00  0.00    +0.000 C 
ATOM      2  N   UNL     1       2.169   3.314  20.274  0.00  0.00    +0.000 N 
ATOM      3  C   UNL     1       2.422   2.585  19.043  0.00  0.00    +0.000 C 
ATOM      4  C   UNL     1       3.665   3.122  18.332  0.00  0.00    +0.000 C 
ATOM      5  C   UNL     1       3.536   4.610  18.117  0.00  0.00    +0.000 A 
ATOM      6  C   UNL     1       4.148   5.280  17.042  0.00  0.00    +0.000 A 
ATOM      7  C   UNL     1       4.050   6.680  16.966  0.00  0.00    +0.000 A 
ATOM      8  C   UNL     1       3.295   7.406  17.883  0.00  0.00    +0.000 A 
ATOM      9  C   UNL     1       2.671   6.747  18.931  0.00  0.00    +0.000 A 
ATOM     10  C   UNL     1       2.812   5.362  19.069  0.00  0.00    +0.000 A 
ATOM     11  C   UNL     1       2.183   4.710  20.254  0.00  0.00    +0.000 C 
ATOM     12  O   UNL     1       1.709   5.398  21.151  0.00  0.00    +0.000 OA
ENDROOT
BRANCH   6  13
ATOM     13  O   UNL     1       4.807   4.517  16.098  0.00  0.00    +0.000 OA
BRANCH  13  14
ATOM     14  C   UNL     1       6.146   4.152  16.468  0.00  0.00    +0.000 C 
BRANCH  14  15
ATOM     15  C   UNL     1       6.913   5.247  17.171  0.00  0.00    +0.000 A 
ATOM     16  C   UNL     1       7.099   6.475  16.504  0.00  0.00    +0.000 A 
ATOM     17  C   UNL     1       7.741   7.540  17.129  0.00  0.00    +0.000 A 
ATOM     18  C   UNL     1       8.185   7.388  18.439  0.00  0.00    +0.000 A 
ATOM     19  F   UNL     1       8.796   8.412  19.047  0.00  0.00    +0.000 F 
ATOM     20  C   UNL     1       7.996   6.194  19.125  0.00  0.00    +0.000 A 
ATOM     21  C   UNL     1       7.355   5.122  18.496  0.00  0.00    +0.000 A 
ENDBRANCH  14  15
ENDBRANCH  13  14
ENDBRANCH   6  13
TORSDOF 3
ENDMDL
MODEL 9
REMARK VINA RESULT:      -6.8      3.828      6.135
REMARK  Name = 
REMARK  4 active torsions:
REMARK  status: ('A' for Active; 'I' for Inactive)
REMARK    1  A    between atoms: C_1  and  N_2
REMARK    2  A    between atoms: C_6  and  O_7
REMARK    3  A    between atoms: O_7  and  C_8
REMARK    4  A    between atoms: C_8  and  C_9
REMARK                            x       y       z     vdW  Elec       q    Type
REMARK                         _______ _______ _______ _____ _____    ______ ____
ROOT
ATOM      1  C   UNL     1      -1.003  11.967  21.183  0.00  0.00    +0.000 C 
ATOM      2  N   UNL     1      -0.166  10.821  20.880  0.00  0.00    +0.000 N 
ATOM      3  C   UNL     1      -0.397   9.568  21.580  0.00  0.00    +0.000 C 
ATOM      4  C   UNL     1       0.868   8.709  21.599  0.00  0.00    +0.000 C 
ATOM      5  C   UNL     1       1.380   8.510  20.194  0.00  0.00    +0.000 A 
ATOM      6  C   UNL     1       2.099   7.367  19.800  0.00  0.00    +0.000 A 
ATOM      7  C   UNL     1       2.616   7.302  18.495  0.00  0.00    +0.000 A 
ATOM      8  C   UNL     1       2.362   8.305  17.563  0.00  0.00    +0.000 A 
ATOM      9  C   UNL     1       1.633   9.423  17.940  0.00  0.00    +0.000 A 
ATOM     10  C   UNL     1       1.169   9.544  19.254  0.00  0.00    +0.000 A 
ATOM     11  C   UNL     1       0.455  10.797  19.630  0.00  0.00    +0.000 C 
ATOM     12  O   UNL     1       0.432  11.745  18.853  0.00  0.00    +0.000 OA
ENDROOT
BRANCH   6  13
ATOM     13  O   UNL     1       2.249   6.349  20.722  0.00  0.00    +0.000 OA
BRANCH  13  14
ATOM     14  C   UNL     1       1.352   5.245  20.529  0.00  0.00    +0.000 C 
BRANCH  14  15
ATOM     15  C   UNL     1       1.981   4.048  19.856  0.00  0.00    +0.000 A 
ATOM     16  C   UNL     1       3.386   3.929  19.868  0.00  0.00    +0.000 A 
ATOM     17  C   UNL     1       4.015   2.814  19.322  0.00  0.00    +0.000 A 
ATOM     18  C   UNL     1       3.238   1.797  18.776  0.00  0.00    +0.000 A 
ATOM     19  F   UNL     1       3.838   0.719  18.256  0.00  0.00    +0.000 F 
ATOM     20  C   UNL     1       1.850   1.882  18.770  0.00  0.00    +0.000 A 
ATOM     21  C   UNL     1       1.218   3.003  19.315  0.00  0.00    +0.000 A 
ENDBRANCH  14  15
ENDBRANCH  13  14
ENDBRANCH   6  13
TORSDOF 3
ENDMDL
