MODEL 1
REMARK VINA RESULT:      -8.5      0.000      0.000
REMARK  Name = 
REMARK  9 active torsions:
REMARK  status: ('A' for Active; 'I' for Inactive)
REMARK    1  A    between atoms: C_1  and  O_2
REMARK    2  A    between atoms: O_2  and  C_3
REMARK    3  A    between atoms: C_4  and  N_5
REMARK    4  A    between atoms: C_6  and  C_8
REMARK    5  A    between atoms: C_8  and  O_9
REMARK    6  A    between atoms: O_9  and  C_10
REMARK    7  A    between atoms: C_26  and  C_28
REMARK    8  A    between atoms: C_29  and  C_30
REMARK    9  A    between atoms: C_33  and  C_34
REMARK                            x       y       z     vdW  Elec       q    Type
REMARK                         _______ _______ _______ _____ _____    ______ ____
ROOT
ATOM      1  C   UNL     1      -0.774  10.699  19.708  0.00  0.00    +0.000 C 
ATOM      2  C   UNL     1       0.474  10.503  18.790  0.00  0.00    +0.000 C 
ATOM      3  C   UNL     1       1.239  11.780  18.929  0.00  0.00    +0.000 A 
ATOM      4  C   UNL     1       2.392  12.129  18.233  0.00  0.00    +0.000 A 
ATOM      5  C   UNL     1       2.927  13.403  18.409  0.00  0.00    +0.000 A 
ATOM      6  C   UNL     1       2.311  14.314  19.274  0.00  0.00    +0.000 A 
ATOM      7  C   UNL     1       1.168  13.947  19.985  0.00  0.00    +0.000 A 
ATOM      8  C   UNL     1       0.637  12.671  19.809  0.00  0.00    +0.000 A 
ATOM      9  C   UNL     1      -0.653  12.123  20.384  0.00  0.00    +0.000 C 
ATOM     10  C   UNL     1      -0.599  11.994  21.925  0.00  0.00    +0.000 C 
ATOM     11  C   UNL     1      -1.967  11.643  22.534  0.00  0.00    +0.000 C 
ATOM     12  N   UNL     1      -3.024  12.554  22.086  0.00  0.00    +0.000 N 
ATOM     13  C   UNL     1      -4.069  12.896  22.959  0.00  0.00    +0.000 C 
ATOM     14  O   UNL     1      -4.030  12.570  24.143  0.00  0.00    +0.000 OA
ATOM     15  C   UNL     1      -3.088  12.772  20.652  0.00  0.00    +0.000 C 
ATOM     16  C   UNL     1      -1.764  13.108  20.019  0.00  0.00    +0.000 C 
ENDROOT
BRANCH  13  17
ATOM     17  C   UNL     1      -5.169  13.741  22.478  0.00  0.00    +0.000 A 
ATOM     18  C   UNL     1      -5.190  15.173  22.449  0.00  0.00    +0.000 A 
ATOM     19  C   UNL     1      -4.185  16.158  22.915  0.00  0.00    +0.000 C 
ATOM     20  N   UNL     1      -6.310  15.640  21.885  0.00  0.00    +0.000 NA
ATOM     21  O   UNL     1      -7.081  14.540  21.616  0.00  0.00    +0.000 OA
ATOM     22  C   UNL     1      -6.438  13.410  22.014  0.00  0.00    +0.000 A 
ATOM     23  C   UNL     1      -7.245  12.181  21.834  0.00  0.00    +0.000 C 
ENDBRANCH  13  17
BRANCH   2  24
ATOM     24  N   UNL     1       1.289   9.385  19.219  0.00  0.00    +0.000 N 
ATOM     25  C   UNL     1       1.962   8.588  18.327  0.00  0.00    +0.000 C 
ATOM     26  O   UNL     1       1.920   8.741  17.117  0.00  0.00    +0.000 OA
ATOM     27  H   UNL     1       1.344   9.191  20.215  0.00  0.00    +0.000 HD
BRANCH  25  28
ATOM     28  C   UNL     1       2.765   7.472  18.979  0.00  0.00    +0.000 C 
BRANCH  28  29
ATOM     29  O   UNL     1       2.695   6.343  18.115  0.00  0.00    +0.000 OA
BRANCH  29  30
ATOM     30  C   UNL     1       2.098   5.226  18.626  0.00  0.00    +0.000 A 
ATOM     31  C   UNL     1       1.668   4.117  17.895  0.00  0.00    +0.000 A 
ATOM     32  C   UNL     1       1.084   3.029  18.547  0.00  0.00    +0.000 A 
ATOM     33  C   UNL     1       0.928   3.042  19.933  0.00  0.00    +0.000 A 
ATOM     34  C   UNL     1       1.347   4.151  20.665  0.00  0.00    +0.000 A 
ATOM     35  C   UNL     1       1.931   5.238  20.014  0.00  0.00    +0.000 A 
ENDBRANCH  29  30
ENDBRANCH  28  29
ENDBRANCH  25  28
ENDBRANCH   2  24
BRANCH   1  37
ATOM     36  C   UNL     1      -1.821  10.188  17.614  0.00  0.00    +0.000 C 
ATOM     37  O   UNL     1      -2.005  10.557  18.981  0.00  0.00    +0.000 OA
ENDBRANCH   1  37
TORSDOF 6
ENDMDL
MODEL 2
REMARK VINA RESULT:      -8.4      0.383      1.353
REMARK  Name = 
REMARK  9 active torsions:
REMARK  status: ('A' for Active; 'I' for Inactive)
REMARK    1  A    between atoms: C_1  and  O_2
REMARK    2  A    between atoms: O_2  and  C_3
REMARK    3  A    between atoms: C_4  and  N_5
REMARK    4  A    between atoms: C_6  and  C_8
REMARK    5  A    between atoms: C_8  and  O_9
REMARK    6  A    between atoms: O_9  and  C_10
REMARK    7  A    between atoms: C_26  and  C_28
REMARK    8  A    between atoms: C_29  and  C_30
REMARK    9  A    between atoms: C_33  and  C_34
REMARK                            x       y       z     vdW  Elec       q    Type
REMARK                         _______ _______ _______ _____ _____    ______ ____
ROOT
ATOM      1  C   UNL     1      -0.783  10.693  19.661  0.00  0.00    +0.000 C 
ATOM      2  C   UNL     1       0.483  10.512  18.764  0.00  0.00    +0.000 C 
ATOM      3  C   UNL     1       1.251  11.781  18.949  0.00  0.00    +0.000 A 
ATOM      4  C   UNL     1       2.420  12.140  18.286  0.00  0.00    +0.000 A 
ATOM      5  C   UNL     1       2.958  13.407  18.503  0.00  0.00    +0.000 A 
ATOM      6  C   UNL     1       2.328  14.301  19.376  0.00  0.00    +0.000 A 
ATOM      7  C   UNL     1       1.169  13.923  20.055  0.00  0.00    +0.000 A 
ATOM      8  C   UNL     1       0.635  12.654  19.838  0.00  0.00    +0.000 A 
ATOM      9  C   UNL     1      -0.669  12.100  20.373  0.00  0.00    +0.000 C 
ATOM     10  C   UNL     1      -0.648  11.935  21.911  0.00  0.00    +0.000 C 
ATOM     11  C   UNL     1      -2.030  11.577  22.483  0.00  0.00    +0.000 C 
ATOM     12  N   UNL     1      -3.073  12.503  22.035  0.00  0.00    +0.000 N 
ATOM     13  C   UNL     1      -4.134  12.831  22.894  0.00  0.00    +0.000 C 
ATOM     14  O   UNL     1      -4.121  12.477  24.070  0.00  0.00    +0.000 OA
ATOM     15  C   UNL     1      -3.106  12.756  20.606  0.00  0.00    +0.000 C 
ATOM     16  C   UNL     1      -1.767  13.100  20.008  0.00  0.00    +0.000 C 
ENDROOT
BRANCH  13  17
ATOM     17  C   UNL     1      -5.220  13.693  22.410  0.00  0.00    +0.000 A 
ATOM     18  C   UNL     1      -6.366  13.273  21.659  0.00  0.00    +0.000 A 
ATOM     19  C   UNL     1      -6.739  11.935  21.143  0.00  0.00    +0.000 C 
ATOM     20  N   UNL     1      -7.206  14.289  21.432  0.00  0.00    +0.000 NA
ATOM     21  O   UNL     1      -6.596  15.403  21.945  0.00  0.00    +0.000 OA
ATOM     22  C   UNL     1      -5.391  15.071  22.479  0.00  0.00    +0.000 A 
ATOM     23  C   UNL     1      -4.629  16.239  22.979  0.00  0.00    +0.000 C 
ENDBRANCH  13  17
BRANCH   2  24
ATOM     24  N   UNL     1       1.283   9.380  19.184  0.00  0.00    +0.000 N 
ATOM     25  C   UNL     1       2.002   8.624  18.292  0.00  0.00    +0.000 C 
ATOM     26  O   UNL     1       2.015   8.828  17.088  0.00  0.00    +0.000 OA
ATOM     27  H   UNL     1       1.293   9.144  20.172  0.00  0.00    +0.000 HD
BRANCH  25  28
ATOM     28  C   UNL     1       2.780   7.485  18.933  0.00  0.00    +0.000 C 
BRANCH  28  29
ATOM     29  O   UNL     1       2.665   6.359  18.070  0.00  0.00    +0.000 OA
BRANCH  29  30
ATOM     30  C   UNL     1       2.087   5.242  18.604  0.00  0.00    +0.000 A 
ATOM     31  C   UNL     1       1.674   4.112  17.897  0.00  0.00    +0.000 A 
ATOM     32  C   UNL     1       1.109   3.028  18.571  0.00  0.00    +0.000 A 
ATOM     33  C   UNL     1       0.955   3.067  19.957  0.00  0.00    +0.000 A 
ATOM     34  C   UNL     1       1.358   4.196  20.666  0.00  0.00    +0.000 A 
ATOM     35  C   UNL     1       1.923   5.279  19.992  0.00  0.00    +0.000 A 
ENDBRANCH  29  30
ENDBRANCH  28  29
ENDBRANCH  25  28
ENDBRANCH   2  24
BRANCH   1  37
ATOM     36  C   UNL     1      -1.799  10.104  17.572  0.00  0.00    +0.000 C 
ATOM     37  O   UNL     1      -1.999  10.575  18.906  0.00  0.00    +0.000 OA
ENDBRANCH   1  37
TORSDOF 6
ENDMDL
MODEL 3
REMARK VINA RESULT:      -8.1      0.810      1.144
REMARK  Name = 
REMARK  9 active torsions:
REMARK  status: ('A' for Active; 'I' for Inactive)
REMARK    1  A    between atoms: C_1  and  O_2
REMARK    2  A    between atoms: O_2  and  C_3
REMARK    3  A    between atoms: C_4  and  N_5
REMARK    4  A    between atoms: C_6  and  C_8
REMARK    5  A    between atoms: C_8  and  O_9
REMARK    6  A    between atoms: O_9  and  C_10
REMARK    7  A    between atoms: C_26  and  C_28
REMARK    8  A    between atoms: C_29  and  C_30
REMARK    9  A    between atoms: C_33  and  C_34
REMARK                            x       y       z     vdW  Elec       q    Type
REMARK                         _______ _______ _______ _____ _____    ______ ____
ROOT
ATOM      1  C   UNL     1      -0.878  10.909  19.873  0.00  0.00    +0.000 C 
ATOM      2  C   UNL     1       0.364  10.738  18.942  0.00  0.00    +0.000 C 
ATOM      3  C   UNL     1       1.151  11.993  19.140  0.00  0.00    +0.000 A 
ATOM      4  C   UNL     1       2.307  12.356  18.458  0.00  0.00    +0.000 A 
ATOM      5  C   UNL     1       2.864  13.612  18.694  0.00  0.00    +0.000 A 
ATOM      6  C   UNL     1       2.266  14.489  19.605  0.00  0.00    +0.000 A 
ATOM      7  C   UNL     1       1.119  14.106  20.302  0.00  0.00    +0.000 A 
ATOM      8  C   UNL     1       0.566  12.849  20.066  0.00  0.00    +0.000 A 
ATOM      9  C   UNL     1      -0.731  12.295  20.618  0.00  0.00    +0.000 C 
ATOM     10  C   UNL     1      -0.675  12.091  22.151  0.00  0.00    +0.000 C 
ATOM     11  C   UNL     1      -2.046  11.733  22.747  0.00  0.00    +0.000 C 
ATOM     12  N   UNL     1      -3.089  12.682  22.348  0.00  0.00    +0.000 N 
ATOM     13  C   UNL     1      -4.126  12.998  23.241  0.00  0.00    +0.000 C 
ATOM     14  O   UNL     1      -4.089  12.613  24.407  0.00  0.00    +0.000 OA
ATOM     15  C   UNL     1      -3.154  12.972  20.927  0.00  0.00    +0.000 C 
ATOM     16  C   UNL     1      -1.826  13.316  20.306  0.00  0.00    +0.000 C 
ENDROOT
BRANCH  13  17
ATOM     17  C   UNL     1      -5.213  13.884  22.806  0.00  0.00    +0.000 A 
ATOM     18  C   UNL     1      -5.243  15.312  22.923  0.00  0.00    +0.000 A 
ATOM     19  C   UNL     1      -4.265  16.247  23.526  0.00  0.00    +0.000 C 
ATOM     20  N   UNL     1      -6.344  15.829  22.367  0.00  0.00    +0.000 NA
ATOM     21  O   UNL     1      -7.096  14.760  21.956  0.00  0.00    +0.000 OA
ATOM     22  C   UNL     1      -6.460  13.598  22.261  0.00  0.00    +0.000 A 
ATOM     23  C   UNL     1      -7.251  12.390  21.925  0.00  0.00    +0.000 C 
ENDBRANCH  13  17
BRANCH   2  24
ATOM     24  N   UNL     1       1.161   9.587  19.312  0.00  0.00    +0.000 N 
ATOM     25  C   UNL     1       1.815   8.821  18.380  0.00  0.00    +0.000 C 
ATOM     26  O   UNL     1       1.769   9.032  17.178  0.00  0.00    +0.000 OA
ATOM     27  H   UNL     1       1.218   9.344  20.298  0.00  0.00    +0.000 HD
BRANCH  25  28
ATOM     28  C   UNL     1       2.602   7.662  18.973  0.00  0.00    +0.000 C 
BRANCH  28  29
ATOM     29  O   UNL     1       3.391   7.109  17.925  0.00  0.00    +0.000 OA
BRANCH  29  30
ATOM     30  C   UNL     1       3.268   5.764  17.719  0.00  0.00    +0.000 A 
ATOM     31  C   UNL     1       4.257   4.916  17.220  0.00  0.00    +0.000 A 
ATOM     32  C   UNL     1       4.005   3.550  17.073  0.00  0.00    +0.000 A 
ATOM     33  C   UNL     1       2.761   3.026  17.425  0.00  0.00    +0.000 A 
ATOM     34  C   UNL     1       1.768   3.870  17.914  0.00  0.00    +0.000 A 
ATOM     35  C   UNL     1       2.021   5.234  18.062  0.00  0.00    +0.000 A 
ENDBRANCH  29  30
ENDBRANCH  28  29
ENDBRANCH  25  28
ENDBRANCH   2  24
BRANCH   1  37
ATOM     36  C   UNL     1      -1.969  10.259  17.841  0.00  0.00    +0.000 C 
ATOM     37  O   UNL     1      -2.113  10.823  19.145  0.00  0.00    +0.000 OA
ENDBRANCH   1  37
TORSDOF 6
ENDMDL
MODEL 4
REMARK VINA RESULT:      -8.0      0.827      1.703
REMARK  Name = 
REMARK  9 active torsions:
REMARK  status: ('A' for Active; 'I' for Inactive)
REMARK    1  A    between atoms: C_1  and  O_2
REMARK    2  A    between atoms: O_2  and  C_3
REMARK    3  A    between atoms: C_4  and  N_5
REMARK    4  A    between atoms: C_6  and  C_8
REMARK    5  A    between atoms: C_8  and  O_9
REMARK    6  A    between atoms: O_9  and  C_10
REMARK    7  A    between atoms: C_26  and  C_28
REMARK    8  A    between atoms: C_29  and  C_30
REMARK    9  A    between atoms: C_33  and  C_34
REMARK                            x       y       z     vdW  Elec       q    Type
REMARK                         _______ _______ _______ _____ _____    ______ ____
ROOT
ATOM      1  C   UNL     1      -0.827  10.833  19.747  0.00  0.00    +0.000 C 
ATOM      2  C   UNL     1       0.417  10.635  18.825  0.00  0.00    +0.000 C 
ATOM      3  C   UNL     1       1.218  11.883  19.013  0.00  0.00    +0.000 A 
ATOM      4  C   UNL     1       2.383  12.224  18.333  0.00  0.00    +0.000 A 
ATOM      5  C   UNL     1       2.954  13.475  18.558  0.00  0.00    +0.000 A 
ATOM      6  C   UNL     1       2.362  14.370  19.455  0.00  0.00    +0.000 A 
ATOM      7  C   UNL     1       1.207  14.010  20.150  0.00  0.00    +0.000 A 
ATOM      8  C   UNL     1       0.640  12.757  19.925  0.00  0.00    +0.000 A 
ATOM      9  C   UNL     1      -0.667  12.226  20.477  0.00  0.00    +0.000 C 
ATOM     10  C   UNL     1      -0.622  12.039  22.012  0.00  0.00    +0.000 C 
ATOM     11  C   UNL     1      -2.001  11.705  22.604  0.00  0.00    +0.000 C 
ATOM     12  N   UNL     1      -3.030  12.662  22.189  0.00  0.00    +0.000 N 
ATOM     13  C   UNL     1      -4.067  13.002  23.073  0.00  0.00    +0.000 C 
ATOM     14  O   UNL     1      -4.041  12.630  24.243  0.00  0.00    +0.000 OA
ATOM     15  C   UNL     1      -3.083  12.936  20.764  0.00  0.00    +0.000 C 
ATOM     16  C   UNL     1      -1.748  13.257  20.147  0.00  0.00    +0.000 C 
ENDROOT
BRANCH  13  17
ATOM     17  C   UNL     1      -5.141  13.895  22.621  0.00  0.00    +0.000 A 
ATOM     18  C   UNL     1      -6.359  13.501  21.976  0.00  0.00    +0.000 A 
ATOM     19  C   UNL     1      -6.835  12.161  21.560  0.00  0.00    +0.000 C 
ATOM     20  N   UNL     1      -7.161  14.548  21.755  0.00  0.00    +0.000 NA
ATOM     21  O   UNL     1      -6.460  15.652  22.164  0.00  0.00    +0.000 OA
ATOM     22  C   UNL     1      -5.237  15.283  22.628  0.00  0.00    +0.000 A 
ATOM     23  C   UNL     1      -4.383  16.431  23.010  0.00  0.00    +0.000 C 
ENDBRANCH  13  17
BRANCH   2  24
ATOM     24  N   UNL     1       1.198   9.479  19.213  0.00  0.00    +0.000 N 
ATOM     25  C   UNL     1       1.896   8.730  18.300  0.00  0.00    +0.000 C 
ATOM     26  O   UNL     1       1.906   8.961  17.101  0.00  0.00    +0.000 OA
ATOM     27  H   UNL     1       1.209   9.220  20.196  0.00  0.00    +0.000 HD
BRANCH  25  28
ATOM     28  C   UNL     1       2.656   7.561  18.910  0.00  0.00    +0.000 C 
BRANCH  28  29
ATOM     29  O   UNL     1       3.293   6.870  17.841  0.00  0.00    +0.000 OA
BRANCH  29  30
ATOM     30  C   UNL     1       3.180   5.508  17.847  0.00  0.00    +0.000 A 
ATOM     31  C   UNL     1       4.234   4.595  17.809  0.00  0.00    +0.000 A 
ATOM     32  C   UNL     1       3.979   3.223  17.837  0.00  0.00    +0.000 A 
ATOM     33  C   UNL     1       2.667   2.755  17.904  0.00  0.00    +0.000 A 
ATOM     34  C   UNL     1       1.610   3.662  17.933  0.00  0.00    +0.000 A 
ATOM     35  C   UNL     1       1.865   5.034  17.905  0.00  0.00    +0.000 A 
ENDBRANCH  29  30
ENDBRANCH  28  29
ENDBRANCH  25  28
ENDBRANCH   2  24
BRANCH   1  37
ATOM     36  C   UNL     1      -1.891  10.344  17.656  0.00  0.00    +0.000 C 
ATOM     37  O   UNL     1      -2.060  10.754  19.013  0.00  0.00    +0.000 OA
ENDBRANCH   1  37
TORSDOF 6
ENDMDL
MODEL 5
REMARK VINA RESULT:      -7.9      1.181      1.521
REMARK  Name = 
REMARK  9 active torsions:
REMARK  status: ('A' for Active; 'I' for Inactive)
REMARK    1  A    between atoms: C_1  and  O_2
REMARK    2  A    between atoms: O_2  and  C_3
REMARK    3  A    between atoms: C_4  and  N_5
REMARK    4  A    between atoms: C_6  and  C_8
REMARK    5  A    between atoms: C_8  and  O_9
REMARK    6  A    between atoms: O_9  and  C_10
REMARK    7  A    between atoms: C_26  and  C_28
REMARK    8  A    between atoms: C_29  and  C_30
REMARK    9  A    between atoms: C_33  and  C_34
REMARK                            x       y       z     vdW  Elec       q    Type
REMARK                         _______ _______ _______ _____ _____    ______ ____
ROOT
ATOM      1  C   UNL     1      -0.958  11.196  20.236  0.00  0.00    +0.000 C 
ATOM      2  C   UNL     1       0.344  11.147  19.375  0.00  0.00    +0.000 C 
ATOM      3  C   UNL     1       1.139  12.325  19.840  0.00  0.00    +0.000 A 
ATOM      4  C   UNL     1       2.348  12.763  19.310  0.00  0.00    +0.000 A 
ATOM      5  C   UNL     1       2.911  13.942  19.796  0.00  0.00    +0.000 A 
ATOM      6  C   UNL     1       2.265  14.669  20.802  0.00  0.00    +0.000 A 
ATOM      7  C   UNL     1       1.064  14.209  21.343  0.00  0.00    +0.000 A 
ATOM      8  C   UNL     1       0.506  13.029  20.857  0.00  0.00    +0.000 A 
ATOM      9  C   UNL     1      -0.839  12.430  21.217  0.00  0.00    +0.000 C 
ATOM     10  C   UNL     1      -0.897  11.965  22.691  0.00  0.00    +0.000 C 
ATOM     11  C   UNL     1      -2.314  11.554  23.122  0.00  0.00    +0.000 C 
ATOM     12  N   UNL     1      -3.307  12.589  22.823  0.00  0.00    +0.000 N 
ATOM     13  C   UNL     1      -4.399  12.781  23.685  0.00  0.00    +0.000 C 
ATOM     14  O   UNL     1      -4.454  12.202  24.767  0.00  0.00    +0.000 OA
ATOM     15  C   UNL     1      -3.264  13.119  21.472  0.00  0.00    +0.000 C 
ATOM     16  C   UNL     1      -1.888  13.523  21.012  0.00  0.00    +0.000 C 
ENDROOT
BRANCH  13  17
ATOM     17  C   UNL     1      -5.435  13.761  23.336  0.00  0.00    +0.000 A 
ATOM     18  C   UNL     1      -5.429  15.156  23.665  0.00  0.00    +0.000 A 
ATOM     19  C   UNL     1      -4.456  15.954  24.447  0.00  0.00    +0.000 C 
ATOM     20  N   UNL     1      -6.483  15.791  23.141  0.00  0.00    +0.000 NA
ATOM     21  O   UNL     1      -7.244  14.824  22.539  0.00  0.00    +0.000 OA
ATOM     22  C   UNL     1      -6.660  13.606  22.697  0.00  0.00    +0.000 A 
ATOM     23  C   UNL     1      -7.468  12.492  22.146  0.00  0.00    +0.000 C 
ENDBRANCH  13  17
BRANCH   2  24
ATOM     24  N   UNL     1       1.091   9.926  19.595  0.00  0.00    +0.000 N 
ATOM     25  C   UNL     1       1.567   9.164  18.557  0.00  0.00    +0.000 C 
ATOM     26  O   UNL     1       1.392   9.439  17.380  0.00  0.00    +0.000 OA
ATOM     27  H   UNL     1       1.248   9.630  20.555  0.00  0.00    +0.000 HD
BRANCH  25  28
ATOM     28  C   UNL     1       2.329   7.924  18.998  0.00  0.00    +0.000 C 
BRANCH  28  29
ATOM     29  O   UNL     1       2.981   7.399  17.847  0.00  0.00    +0.000 OA
BRANCH  29  30
ATOM     30  C   UNL     1       3.017   6.038  17.739  0.00  0.00    +0.000 A 
ATOM     31  C   UNL     1       1.953   5.165  17.972  0.00  0.00    +0.000 A 
ATOM     32  C   UNL     1       2.122   3.789  17.810  0.00  0.00    +0.000 A 
ATOM     33  C   UNL     1       3.358   3.277  17.413  0.00  0.00    +0.000 A 
ATOM     34  C   UNL     1       4.426   4.142  17.189  0.00  0.00    +0.000 A 
ATOM     35  C   UNL     1       4.256   5.517  17.351  0.00  0.00    +0.000 A 
ENDBRANCH  29  30
ENDBRANCH  28  29
ENDBRANCH  25  28
ENDBRANCH   2  24
BRANCH   1  37
ATOM     36  C   UNL     1      -1.898  11.009  18.039  0.00  0.00    +0.000 C 
ATOM     37  O   UNL     1      -2.139  11.274  19.422  0.00  0.00    +0.000 OA
ENDBRANCH   1  37
TORSDOF 6
ENDMDL
MODEL 6
REMARK VINA RESULT:      -7.8      1.628      2.213
REMARK  Name = 
REMARK  9 active torsions:
REMARK  status: ('A' for Active; 'I' for Inactive)
REMARK    1  A    between atoms: C_1  and  O_2
REMARK    2  A    between atoms: O_2  and  C_3
REMARK    3  A    between atoms: C_4  and  N_5
REMARK    4  A    between atoms: C_6  and  C_8
REMARK    5  A    between atoms: C_8  and  O_9
REMARK    6  A    between atoms: O_9  and  C_10
REMARK    7  A    between atoms: C_26  and  C_28
REMARK    8  A    between atoms: C_29  and  C_30
REMARK    9  A    between atoms: C_33  and  C_34
REMARK                            x       y       z     vdW  Elec       q    Type
REMARK                         _______ _______ _______ _____ _____    ______ ____
ROOT
ATOM      1  C   UNL     1      -0.755  10.655  19.747  0.00  0.00    +0.000 C 
ATOM      2  C   UNL     1       0.485  10.498  18.811  0.00  0.00    +0.000 C 
ATOM      3  C   UNL     1       1.256  11.764  19.005  0.00  0.00    +0.000 A 
ATOM      4  C   UNL     1       2.406  12.141  18.318  0.00  0.00    +0.000 A 
ATOM      5  C   UNL     1       2.948  13.404  18.551  0.00  0.00    +0.000 A 
ATOM      6  C   UNL     1       2.342  14.273  19.464  0.00  0.00    +0.000 A 
ATOM      7  C   UNL     1       1.203  13.877  20.166  0.00  0.00    +0.000 A 
ATOM      8  C   UNL     1       0.665  12.613  19.933  0.00  0.00    +0.000 A 
ATOM      9  C   UNL     1      -0.622  12.043  20.491  0.00  0.00    +0.000 C 
ATOM     10  C   UNL     1      -0.557  11.840  22.024  0.00  0.00    +0.000 C 
ATOM     11  C   UNL     1      -1.921  11.465  22.626  0.00  0.00    +0.000 C 
ATOM     12  N   UNL     1      -2.978  12.400  22.231  0.00  0.00    +0.000 N 
ATOM     13  C   UNL     1      -4.014  12.704  23.129  0.00  0.00    +0.000 C 
ATOM     14  O   UNL     1      -3.967  12.320  24.295  0.00  0.00    +0.000 OA
ATOM     15  C   UNL     1      -3.052  12.688  20.810  0.00  0.00    +0.000 C 
ATOM     16  C   UNL     1      -1.732  13.050  20.183  0.00  0.00    +0.000 C 
ENDROOT
BRANCH  13  17
ATOM     17  C   UNL     1      -5.115  13.575  22.698  0.00  0.00    +0.000 A 
ATOM     18  C   UNL     1      -5.266  14.967  23.006  0.00  0.00    +0.000 A 
ATOM     19  C   UNL     1      -4.431  15.863  23.840  0.00  0.00    +0.000 C 
ATOM     20  N   UNL     1      -6.339  15.491  22.404  0.00  0.00    +0.000 NA
ATOM     21  O   UNL     1      -6.960  14.450  21.766  0.00  0.00    +0.000 OA
ATOM     22  C   UNL     1      -6.273  13.296  21.980  0.00  0.00    +0.000 A 
ATOM     23  C   UNL     1      -6.929  12.104  21.393  0.00  0.00    +0.000 C 
ENDBRANCH  13  17
BRANCH   2  24
ATOM     24  N   UNL     1       1.298   9.358  19.178  0.00  0.00    +0.000 N 
ATOM     25  C   UNL     1       1.996   8.628  18.248  0.00  0.00    +0.000 C 
ATOM     26  O   UNL     1       1.979   8.866  17.051  0.00  0.00    +0.000 OA
ATOM     27  H   UNL     1       1.333   9.094  20.160  0.00  0.00    +0.000 HD
BRANCH  25  28
ATOM     28  C   UNL     1       2.793   7.474  18.838  0.00  0.00    +0.000 C 
BRANCH  28  29
ATOM     29  O   UNL     1       3.364   6.758  17.749  0.00  0.00    +0.000 OA
BRANCH  29  30
ATOM     30  C   UNL     1       4.690   6.449  17.855  0.00  0.00    +0.000 A 
ATOM     31  C   UNL     1       5.713   6.915  17.028  0.00  0.00    +0.000 A 
ATOM     32  C   UNL     1       7.035   6.532  17.258  0.00  0.00    +0.000 A 
ATOM     33  C   UNL     1       7.344   5.680  18.318  0.00  0.00    +0.000 A 
ATOM     34  C   UNL     1       6.326   5.204  19.142  0.00  0.00    +0.000 A 
ATOM     35  C   UNL     1       5.004   5.588  18.912  0.00  0.00    +0.000 A 
ENDBRANCH  29  30
ENDBRANCH  28  29
ENDBRANCH  25  28
ENDBRANCH   2  24
BRANCH   1  37
ATOM     36  C   UNL     1      -1.825  10.182  17.656  0.00  0.00    +0.000 C 
ATOM     37  O   UNL     1      -1.992  10.552  19.025  0.00  0.00    +0.000 OA
ENDBRANCH   1  37
TORSDOF 6
ENDMDL
MODEL 7
REMARK VINA RESULT:      -7.8      1.529      2.381
REMARK  Name = 
REMARK  9 active torsions:
REMARK  status: ('A' for Active; 'I' for Inactive)
REMARK    1  A    between atoms: C_1  and  O_2
REMARK    2  A    between atoms: O_2  and  C_3
REMARK    3  A    between atoms: C_4  and  N_5
REMARK    4  A    between atoms: C_6  and  C_8
REMARK    5  A    between atoms: C_8  and  O_9
REMARK    6  A    between atoms: O_9  and  C_10
REMARK    7  A    between atoms: C_26  and  C_28
REMARK    8  A    between atoms: C_29  and  C_30
REMARK    9  A    between atoms: C_33  and  C_34
REMARK                            x       y       z     vdW  Elec       q    Type
REMARK                         _______ _______ _______ _____ _____    ______ ____
ROOT
ATOM      1  C   UNL     1      -0.979  11.331  20.265  0.00  0.00    +0.000 C 
ATOM      2  C   UNL     1       0.325  11.307  19.408  0.00  0.00    +0.000 C 
ATOM      3  C   UNL     1       1.130  12.454  19.928  0.00  0.00    +0.000 A 
ATOM      4  C   UNL     1       2.347  12.902  19.424  0.00  0.00    +0.000 A 
ATOM      5  C   UNL     1       2.920  14.052  19.965  0.00  0.00    +0.000 A 
ATOM      6  C   UNL     1       2.277  14.740  21.000  0.00  0.00    +0.000 A 
ATOM      7  C   UNL     1       1.069  14.270  21.515  0.00  0.00    +0.000 A 
ATOM      8  C   UNL     1       0.500  13.118  20.973  0.00  0.00    +0.000 A 
ATOM      9  C   UNL     1      -0.852  12.518  21.300  0.00  0.00    +0.000 C 
ATOM     10  C   UNL     1      -0.922  11.989  22.752  0.00  0.00    +0.000 C 
ATOM     11  C   UNL     1      -2.346  11.574  23.159  0.00  0.00    +0.000 C 
ATOM     12  N   UNL     1      -3.326  12.632  22.902  0.00  0.00    +0.000 N 
ATOM     13  C   UNL     1      -4.420  12.797  23.768  0.00  0.00    +0.000 C 
ATOM     14  O   UNL     1      -4.486  12.171  24.822  0.00  0.00    +0.000 OA
ATOM     15  C   UNL     1      -3.271  13.221  21.577  0.00  0.00    +0.000 C 
ATOM     16  C   UNL     1      -1.889  13.631  21.140  0.00  0.00    +0.000 C 
ENDROOT
BRANCH  13  17
ATOM     17  C   UNL     1      -5.444  13.803  23.459  0.00  0.00    +0.000 A 
ATOM     18  C   UNL     1      -6.618  13.603  22.662  0.00  0.00    +0.000 A 
ATOM     19  C   UNL     1      -7.085  12.406  21.923  0.00  0.00    +0.000 C 
ATOM     20  N   UNL     1      -7.386  14.698  22.630  0.00  0.00    +0.000 NA
ATOM     21  O   UNL     1      -6.698  15.659  23.323  0.00  0.00    +0.000 OA
ATOM     22  C   UNL     1      -5.518  15.156  23.772  0.00  0.00    +0.000 A 
ATOM     23  C   UNL     1      -4.675  16.162  24.459  0.00  0.00    +0.000 C 
ENDBRANCH  13  17
BRANCH   2  24
ATOM     24  N   UNL     1       1.058  10.068  19.576  0.00  0.00    +0.000 N 
ATOM     25  C   UNL     1       1.442   9.297  18.508  0.00  0.00    +0.000 C 
ATOM     26  O   UNL     1       1.191   9.576  17.346  0.00  0.00    +0.000 OA
ATOM     27  H   UNL     1       1.276   9.768  20.523  0.00  0.00    +0.000 HD
BRANCH  25  28
ATOM     28  C   UNL     1       2.206   8.040  18.896  0.00  0.00    +0.000 C 
BRANCH  28  29
ATOM     29  O   UNL     1       3.321   7.937  18.017  0.00  0.00    +0.000 OA
BRANCH  29  30
ATOM     30  C   UNL     1       3.667   6.675  17.623  0.00  0.00    +0.000 A 
ATOM     31  C   UNL     1       3.050   5.490  18.024  0.00  0.00    +0.000 A 
ATOM     32  C   UNL     1       3.496   4.262  17.531  0.00  0.00    +0.000 A 
ATOM     33  C   UNL     1       4.561   4.213  16.632  0.00  0.00    +0.000 A 
ATOM     34  C   UNL     1       5.186   5.393  16.235  0.00  0.00    +0.000 A 
ATOM     35  C   UNL     1       4.740   6.619  16.728  0.00  0.00    +0.000 A 
ENDBRANCH  29  30
ENDBRANCH  28  29
ENDBRANCH  25  28
ENDBRANCH   2  24
BRANCH   1  37
ATOM     36  C   UNL     1      -1.876  11.540  18.052  0.00  0.00    +0.000 C 
ATOM     37  O   UNL     1      -2.156  11.458  19.450  0.00  0.00    +0.000 OA
ENDBRANCH   1  37
TORSDOF 6
ENDMDL
MODEL 8
REMARK VINA RESULT:      -7.8      2.804      9.454
REMARK  Name = 
REMARK  9 active torsions:
REMARK  status: ('A' for Active; 'I' for Inactive)
REMARK    1  A    between atoms: C_1  and  O_2
REMARK    2  A    between atoms: O_2  and  C_3
REMARK    3  A    between atoms: C_4  and  N_5
REMARK    4  A    between atoms: C_6  and  C_8
REMARK    5  A    between atoms: C_8  and  O_9
REMARK    6  A    between atoms: O_9  and  C_10
REMARK    7  A    between atoms: C_26  and  C_28
REMARK    8  A    between atoms: C_29  and  C_30
REMARK    9  A    between atoms: C_33  and  C_34
REMARK                            x       y       z     vdW  Elec       q    Type
REMARK                         _______ _______ _______ _____ _____    ______ ____
ROOT
ATOM      1  C   UNL     1       1.266  11.118  19.202  0.00  0.00    +0.000 C 
ATOM      2  C   UNL     1       0.275  12.311  19.026  0.00  0.00    +0.000 C 
ATOM      3  C   UNL     1      -1.000  11.669  18.581  0.00  0.00    +0.000 A 
ATOM      4  C   UNL     1      -2.167  12.328  18.207  0.00  0.00    +0.000 A 
ATOM      5  C   UNL     1      -3.238  11.580  17.721  0.00  0.00    +0.000 A 
ATOM      6  C   UNL     1      -3.136  10.189  17.614  0.00  0.00    +0.000 A 
ATOM      7  C   UNL     1      -1.970   9.535  18.014  0.00  0.00    +0.000 A 
ATOM      8  C   UNL     1      -0.902  10.285  18.502  0.00  0.00    +0.000 A 
ATOM      9  C   UNL     1       0.481   9.787  18.868  0.00  0.00    +0.000 C 
ATOM     10  C   UNL     1       0.458   8.842  20.092  0.00  0.00    +0.000 C 
ATOM     11  C   UNL     1       1.818   8.167  20.339  0.00  0.00    +0.000 C 
ATOM     12  N   UNL     1       2.339   7.512  19.137  0.00  0.00    +0.000 N 
ATOM     13  C   UNL     1       3.085   6.327  19.253  0.00  0.00    +0.000 C 
ATOM     14  O   UNL     1       3.175   5.746  20.332  0.00  0.00    +0.000 OA
ATOM     15  C   UNL     1       2.326   8.323  17.933  0.00  0.00    +0.000 C 
ATOM     16  C   UNL     1       1.013   9.008  17.664  0.00  0.00    +0.000 C 
ENDROOT
BRANCH  13  17
ATOM     17  C   UNL     1       3.675   5.721  18.053  0.00  0.00    +0.000 A 
ATOM     18  C   UNL     1       3.230   4.526  17.399  0.00  0.00    +0.000 A 
ATOM     19  C   UNL     1       2.141   3.586  17.753  0.00  0.00    +0.000 C 
ATOM     20  N   UNL     1       3.936   4.279  16.290  0.00  0.00    +0.000 NA
ATOM     21  O   UNL     1       4.906   5.245  16.238  0.00  0.00    +0.000 OA
ATOM     22  C   UNL     1       4.796   6.074  17.310  0.00  0.00    +0.000 A 
ATOM     23  C   UNL     1       5.866   7.097  17.373  0.00  0.00    +0.000 C 
ENDBRANCH  13  17
BRANCH   2  24
ATOM     24  N   UNL     1       0.065  13.026  20.267  0.00  0.00    +0.000 N 
ATOM     25  C   UNL     1       0.242  14.384  20.367  0.00  0.00    +0.000 C 
ATOM     26  O   UNL     1       0.600  15.089  19.437  0.00  0.00    +0.000 OA
ATOM     27  H   UNL     1      -0.210  12.490  21.086  0.00  0.00    +0.000 HD
BRANCH  25  28
ATOM     28  C   UNL     1      -0.034  14.944  21.754  0.00  0.00    +0.000 C 
BRANCH  28  29
ATOM     29  O   UNL     1      -0.153  13.835  22.639  0.00  0.00    +0.000 OA
BRANCH  29  30
ATOM     30  C   UNL     1      -1.342  13.712  23.300  0.00  0.00    +0.000 A 
ATOM     31  C   UNL     1      -1.896  14.646  24.177  0.00  0.00    +0.000 A 
ATOM     32  C   UNL     1      -3.133  14.402  24.777  0.00  0.00    +0.000 A 
ATOM     33  C   UNL     1      -3.824  13.222  24.502  0.00  0.00    +0.000 A 
ATOM     34  C   UNL     1      -3.272  12.283  23.634  0.00  0.00    +0.000 A 
ATOM     35  C   UNL     1      -2.036  12.527  23.035  0.00  0.00    +0.000 A 
ENDBRANCH  29  30
ENDBRANCH  28  29
ENDBRANCH  25  28
ENDBRANCH   2  24
BRANCH   1  37
ATOM     36  C   UNL     1       2.762  12.625  18.092  0.00  0.00    +0.000 C 
ATOM     37  O   UNL     1       2.438  11.266  18.385  0.00  0.00    +0.000 OA
ENDBRANCH   1  37
TORSDOF 6
ENDMDL
MODEL 9
REMARK VINA RESULT:      -7.7      1.584      2.517
REMARK  Name = 
REMARK  9 active torsions:
REMARK  status: ('A' for Active; 'I' for Inactive)
REMARK    1  A    between atoms: C_1  and  O_2
REMARK    2  A    between atoms: O_2  and  C_3
REMARK    3  A    between atoms: C_4  and  N_5
REMARK    4  A    between atoms: C_6  and  C_8
REMARK    5  A    between atoms: C_8  and  O_9
REMARK    6  A    between atoms: O_9  and  C_10
REMARK    7  A    between atoms: C_26  and  C_28
REMARK    8  A    between atoms: C_29  and  C_30
REMARK    9  A    between atoms: C_33  and  C_34
REMARK                            x       y       z     vdW  Elec       q    Type
REMARK                         _______ _______ _______ _____ _____    ______ ____
ROOT
ATOM      1  C   UNL     1      -0.817  10.781  19.701  0.00  0.00    +0.000 C 
ATOM      2  C   UNL     1       0.428  10.550  18.788  0.00  0.00    +0.000 C 
ATOM      3  C   UNL     1       1.233  11.801  18.939  0.00  0.00    +0.000 A 
ATOM      4  C   UNL     1       2.400  12.117  18.251  0.00  0.00    +0.000 A 
ATOM      5  C   UNL     1       2.975  13.373  18.438  0.00  0.00    +0.000 A 
ATOM      6  C   UNL     1       2.383  14.297  19.305  0.00  0.00    +0.000 A 
ATOM      7  C   UNL     1       1.225  13.963  20.008  0.00  0.00    +0.000 A 
ATOM      8  C   UNL     1       0.655  12.705  19.821  0.00  0.00    +0.000 A 
ATOM      9  C   UNL     1      -0.655  12.195  20.387  0.00  0.00    +0.000 C 
ATOM     10  C   UNL     1      -0.613  12.056  21.927  0.00  0.00    +0.000 C 
ATOM     11  C   UNL     1      -1.995  11.745  22.527  0.00  0.00    +0.000 C 
ATOM     12  N   UNL     1      -3.020  12.691  22.079  0.00  0.00    +0.000 N 
ATOM     13  C   UNL     1      -4.058  13.062  22.949  0.00  0.00    +0.000 C 
ATOM     14  O   UNL     1      -4.035  12.727  24.131  0.00  0.00    +0.000 OA
ATOM     15  C   UNL     1      -3.069  12.921  20.646  0.00  0.00    +0.000 C 
ATOM     16  C   UNL     1      -1.731  13.218  20.022  0.00  0.00    +0.000 C 
ENDROOT
BRANCH  13  17
ATOM     17  C   UNL     1      -5.128  13.945  22.467  0.00  0.00    +0.000 A 
ATOM     18  C   UNL     1      -6.366  13.532  21.875  0.00  0.00    +0.000 A 
ATOM     19  C   UNL     1      -6.872  12.177  21.551  0.00  0.00    +0.000 C 
ATOM     20  N   UNL     1      -7.157  14.577  21.608  0.00  0.00    +0.000 NA
ATOM     21  O   UNL     1      -6.431  15.692  21.932  0.00  0.00    +0.000 OA
ATOM     22  C   UNL     1      -5.203  15.331  22.392  0.00  0.00    +0.000 A 
ATOM     23  C   UNL     1      -4.322  16.486  22.684  0.00  0.00    +0.000 C 
ENDBRANCH  13  17
BRANCH   2  24
ATOM     24  N   UNL     1       1.204   9.404  19.214  0.00  0.00    +0.000 N 
ATOM     25  C   UNL     1       1.907   8.628  18.327  0.00  0.00    +0.000 C 
ATOM     26  O   UNL     1       1.925   8.824  17.122  0.00  0.00    +0.000 OA
ATOM     27  H   UNL     1       1.209   9.174  20.204  0.00  0.00    +0.000 HD
BRANCH  25  28
ATOM     28  C   UNL     1       2.661   7.476  18.975  0.00  0.00    +0.000 C 
BRANCH  28  29
ATOM     29  O   UNL     1       3.125   6.634  17.925  0.00  0.00    +0.000 OA
BRANCH  29  30
ATOM     30  C   UNL     1       4.462   6.353  17.920  0.00  0.00    +0.000 A 
ATOM     31  C   UNL     1       5.393   6.801  16.982  0.00  0.00    +0.000 A 
ATOM     32  C   UNL     1       6.739   6.450  17.103  0.00  0.00    +0.000 A 
ATOM     33  C   UNL     1       7.162   5.650  18.164  0.00  0.00    +0.000 A 
ATOM     34  C   UNL     1       6.235   5.192  19.098  0.00  0.00    +0.000 A 
ATOM     35  C   UNL     1       4.891   5.543  18.977  0.00  0.00    +0.000 A 
ENDBRANCH  29  30
ENDBRANCH  28  29
ENDBRANCH  25  28
ENDBRANCH   2  24
BRANCH   1  37
ATOM     36  C   UNL     1      -1.881  10.198  17.634  0.00  0.00    +0.000 C 
ATOM     37  O   UNL     1      -2.049  10.682  18.967  0.00  0.00    +0.000 OA
ENDBRANCH   1  37
TORSDOF 6
ENDMDL
