MODEL 1
REMARK VINA RESULT:      -8.0      0.000      0.000
REMARK  Name = 
REMARK  5 active torsions:
REMARK  status: ('A' for Active; 'I' for Inactive)
REMARK    1  A    between atoms: C_1  and  C_2
REMARK    2  A    between atoms: C_8  and  C_9
REMARK    3  A    between atoms: N_11  and  C_12
REMARK    4  A    between atoms: C_12  and  C_13
REMARK    5  A    between atoms: C_13  and  C_14
REMARK                            x       y       z     vdW  Elec       q    Type
REMARK                         _______ _______ _______ _____ _____    ______ ____
ROOT
ATOM      1  C   UNL     1       6.995   6.347  17.297  0.00  0.00    +0.000 C 
ATOM      2  O   UNL     1       7.476   6.196  16.176  0.00  0.00    +0.000 OA
ATOM      3  N   UNL     1       7.342   7.427  18.100  0.00  0.00    +0.000 N 
ATOM      4  H   UNL     1       6.908   7.489  19.017  0.00  0.00    +0.000 HD
ENDROOT
BRANCH   1  12
ATOM      5  C   UNL     1       1.795   4.829  17.773  0.00  0.00    +0.000 C 
ATOM      6  C   UNL     1       2.852   4.065  18.511  0.00  0.00    +0.000 A 
ATOM      7  C   UNL     1       2.574   3.008  19.294  0.00  0.00    +0.000 A 
ATOM      8  C   UNL     1       3.743   2.364  19.955  0.00  0.00    +0.000 A 
ATOM      9  N   UNL     1       4.986   2.723  19.845  0.00  0.00    +0.000 NA
ATOM     10  C   UNL     1       5.227   3.801  19.039  0.00  0.00    +0.000 A 
ATOM     11  N   UNL     1       6.374   4.380  18.744  0.00  0.00    +0.000 NA
ATOM     12  C   UNL     1       6.015   5.409  17.894  0.00  0.00    +0.000 A 
ATOM     13  N   UNL     1       4.697   5.490  17.652  0.00  0.00    +0.000 NA
ATOM     14  N   UNL     1       4.189   4.472  18.376  0.00  0.00    +0.000 N 
ENDBRANCH   1  12
BRANCH   3  15
ATOM     15  C   UNL     1       8.296   8.412  17.620  0.00  0.00    +0.000 C 
BRANCH  15  16
ATOM     16  C   UNL     1       7.939   9.855  17.982  0.00  0.00    +0.000 C 
BRANCH  16  17
ATOM     17  C   UNL     1       9.116  10.609  18.563  0.00  0.00    +0.000 A 
ATOM     18  C   UNL     1       9.257  10.752  19.953  0.00  0.00    +0.000 A 
ATOM     19  C   UNL     1      10.345  11.448  20.489  0.00  0.00    +0.000 A 
ATOM     20  C   UNL     1      11.289  12.008  19.638  0.00  0.00    +0.000 A 
ATOM     21  F   UNL     1      12.332  12.671  20.152  0.00  0.00    +0.000 F 
ATOM     22  C   UNL     1      11.164  11.889  18.259  0.00  0.00    +0.000 A 
ATOM     23  C   UNL     1      10.078  11.193  17.721  0.00  0.00    +0.000 A 
ENDBRANCH  16  17
ENDBRANCH  15  16
ENDBRANCH   3  15
TORSDOF 4
ENDMDL
MODEL 2
REMARK VINA RESULT:      -7.8      1.187      1.501
REMARK  Name = 
REMARK  5 active torsions:
REMARK  status: ('A' for Active; 'I' for Inactive)
REMARK    1  A    between atoms: C_1  and  C_2
REMARK    2  A    between atoms: C_8  and  C_9
REMARK    3  A    between atoms: N_11  and  C_12
REMARK    4  A    between atoms: C_12  and  C_13
REMARK    5  A    between atoms: C_13  and  C_14
REMARK                            x       y       z     vdW  Elec       q    Type
REMARK                         _______ _______ _______ _____ _____    ______ ____
ROOT
ATOM      1  C   UNL     1       6.963   6.526  17.295  0.00  0.00    +0.000 C 
ATOM      2  O   UNL     1       7.474   6.393  16.185  0.00  0.00    +0.000 OA
ATOM      3  N   UNL     1       7.250   7.618  18.104  0.00  0.00    +0.000 N 
ATOM      4  H   UNL     1       6.793   7.664  19.011  0.00  0.00    +0.000 HD
ENDROOT
BRANCH   1  12
ATOM      5  C   UNL     1       1.809   4.839  17.696  0.00  0.00    +0.000 C 
ATOM      6  C   UNL     1       2.881   4.101  18.437  0.00  0.00    +0.000 A 
ATOM      7  C   UNL     1       2.628   3.027  19.206  0.00  0.00    +0.000 A 
ATOM      8  C   UNL     1       3.809   2.412  19.872  0.00  0.00    +0.000 A 
ATOM      9  N   UNL     1       5.042   2.811  19.780  0.00  0.00    +0.000 NA
ATOM     10  C   UNL     1       5.257   3.905  18.989  0.00  0.00    +0.000 A 
ATOM     11  N   UNL     1       6.389   4.524  18.712  0.00  0.00    +0.000 NA
ATOM     12  C   UNL     1       6.007   5.551  17.870  0.00  0.00    +0.000 A 
ATOM     13  N   UNL     1       4.689   5.593  17.615  0.00  0.00    +0.000 NA
ATOM     14  N   UNL     1       4.205   4.551  18.322  0.00  0.00    +0.000 N 
ENDBRANCH   1  12
BRANCH   3  15
ATOM     15  C   UNL     1       8.175   8.640  17.645  0.00  0.00    +0.000 C 
BRANCH  15  16
ATOM     16  C   UNL     1       8.792   9.474  18.768  0.00  0.00    +0.000 C 
BRANCH  16  17
ATOM     17  C   UNL     1       9.350  10.790  18.267  0.00  0.00    +0.000 A 
ATOM     18  C   UNL     1      10.737  10.979  18.150  0.00  0.00    +0.000 A 
ATOM     19  C   UNL     1      11.250  12.194  17.686  0.00  0.00    +0.000 A 
ATOM     20  C   UNL     1      10.382  13.223  17.346  0.00  0.00    +0.000 A 
ATOM     21  F   UNL     1      10.875  14.384  16.898  0.00  0.00    +0.000 F 
ATOM     22  C   UNL     1       9.006  13.061  17.465  0.00  0.00    +0.000 A 
ATOM     23  C   UNL     1       8.490  11.847  17.927  0.00  0.00    +0.000 A 
ENDBRANCH  16  17
ENDBRANCH  15  16
ENDBRANCH   3  15
TORSDOF 4
ENDMDL
MODEL 3
REMARK VINA RESULT:      -7.7      5.528      7.707
REMARK  Name = 
REMARK  5 active torsions:
REMARK  status: ('A' for Active; 'I' for Inactive)
REMARK    1  A    between atoms: C_1  and  C_2
REMARK    2  A    between atoms: C_8  and  C_9
REMARK    3  A    between atoms: N_11  and  C_12
REMARK    4  A    between atoms: C_12  and  C_13
REMARK    5  A    between atoms: C_13  and  C_14
REMARK                            x       y       z     vdW  Elec       q    Type
REMARK                         _______ _______ _______ _____ _____    ______ ____
ROOT
ATOM      1  C   UNL     1       5.388   3.858  17.426  0.00  0.00    +0.000 C 
ATOM      2  O   UNL     1       5.747   4.407  18.465  0.00  0.00    +0.000 OA
ATOM      3  N   UNL     1       4.365   2.919  17.412  0.00  0.00    +0.000 N 
ATOM      4  H   UNL     1       4.120   2.503  16.518  0.00  0.00    +0.000 HD
ENDROOT
BRANCH   1  12
ATOM      5  C   UNL     1       5.381   2.925  12.068  0.00  0.00    +0.000 C 
ATOM      6  C   UNL     1       6.393   3.867  12.646  0.00  0.00    +0.000 A 
ATOM      7  C   UNL     1       7.311   4.501  11.896  0.00  0.00    +0.000 A 
ATOM      8  C   UNL     1       8.242   5.402  12.631  0.00  0.00    +0.000 A 
ATOM      9  N   UNL     1       8.247   5.628  13.910  0.00  0.00    +0.000 NA
ATOM     10  C   UNL     1       7.299   4.964  14.638  0.00  0.00    +0.000 A 
ATOM     11  N   UNL     1       7.070   4.999  15.936  0.00  0.00    +0.000 NA
ATOM     12  C   UNL     1       6.001   4.140  16.106  0.00  0.00    +0.000 A 
ATOM     13  N   UNL     1       5.561   3.576  14.969  0.00  0.00    +0.000 NA
ATOM     14  N   UNL     1       6.380   4.095  14.031  0.00  0.00    +0.000 N 
ENDBRANCH   1  12
BRANCH   3  15
ATOM     15  C   UNL     1       3.690   2.562  18.648  0.00  0.00    +0.000 C 
BRANCH  15  16
ATOM     16  C   UNL     1       2.241   3.044  18.731  0.00  0.00    +0.000 C 
BRANCH  16  17
ATOM     17  C   UNL     1       2.143   4.502  19.131  0.00  0.00    +0.000 A 
ATOM     18  C   UNL     1       2.373   5.517  18.188  0.00  0.00    +0.000 A 
ATOM     19  C   UNL     1       2.281   6.863  18.557  0.00  0.00    +0.000 A 
ATOM     20  C   UNL     1       1.967   7.195  19.868  0.00  0.00    +0.000 A 
ATOM     21  F   UNL     1       1.875   8.484  20.220  0.00  0.00    +0.000 F 
ATOM     22  C   UNL     1       1.746   6.207  20.820  0.00  0.00    +0.000 A 
ATOM     23  C   UNL     1       1.837   4.861  20.453  0.00  0.00    +0.000 A 
ENDBRANCH  16  17
ENDBRANCH  15  16
ENDBRANCH   3  15
TORSDOF 4
ENDMDL
MODEL 4
REMARK VINA RESULT:      -7.7      1.604      1.941
REMARK  Name = 
REMARK  5 active torsions:
REMARK  status: ('A' for Active; 'I' for Inactive)
REMARK    1  A    between atoms: C_1  and  C_2
REMARK    2  A    between atoms: C_8  and  C_9
REMARK    3  A    between atoms: N_11  and  C_12
REMARK    4  A    between atoms: C_12  and  C_13
REMARK    5  A    between atoms: C_13  and  C_14
REMARK                            x       y       z     vdW  Elec       q    Type
REMARK                         _______ _______ _______ _____ _____    ______ ____
ROOT
ATOM      1  C   UNL     1       6.893   5.694  19.037  0.00  0.00    +0.000 C 
ATOM      2  O   UNL     1       7.809   5.339  19.775  0.00  0.00    +0.000 OA
ATOM      3  N   UNL     1       6.985   6.844  18.261  0.00  0.00    +0.000 N 
ATOM      4  H   UNL     1       6.189   7.080  17.675  0.00  0.00    +0.000 HD
ENDROOT
BRANCH   1  12
ATOM      5  C   UNL     1       1.683   5.194  20.510  0.00  0.00    +0.000 C 
ATOM      6  C   UNL     1       2.265   4.218  19.533  0.00  0.00    +0.000 A 
ATOM      7  C   UNL     1       1.552   3.212  18.996  0.00  0.00    +0.000 A 
ATOM      8  C   UNL     1       2.286   2.333  18.043  0.00  0.00    +0.000 A 
ATOM      9  N   UNL     1       3.530   2.448  17.689  0.00  0.00    +0.000 NA
ATOM     10  C   UNL     1       4.219   3.484  18.256  0.00  0.00    +0.000 A 
ATOM     11  N   UNL     1       5.477   3.840  18.086  0.00  0.00    +0.000 NA
ATOM     12  C   UNL     1       5.622   4.945  18.903  0.00  0.00    +0.000 A 
ATOM     13  N   UNL     1       4.507   5.286  19.571  0.00  0.00    +0.000 NA
ATOM     14  N   UNL     1       3.611   4.363  19.165  0.00  0.00    +0.000 N 
ENDBRANCH   1  12
BRANCH   3  15
ATOM     15  C   UNL     1       8.186   7.660  18.311  0.00  0.00    +0.000 C 
BRANCH  15  16
ATOM     16  C   UNL     1       8.071   8.987  17.560  0.00  0.00    +0.000 C 
BRANCH  16  17
ATOM     17  C   UNL     1       8.694  10.136  18.324  0.00  0.00    +0.000 A 
ATOM     18  C   UNL     1       8.725  11.427  17.772  0.00  0.00    +0.000 A 
ATOM     19  C   UNL     1       9.300  12.488  18.479  0.00  0.00    +0.000 A 
ATOM     20  C   UNL     1       9.851  12.259  19.733  0.00  0.00    +0.000 A 
ATOM     21  F   UNL     1      10.398  13.277  20.411  0.00  0.00    +0.000 F 
ATOM     22  C   UNL     1       9.842  10.988  20.294  0.00  0.00    +0.000 A 
ATOM     23  C   UNL     1       9.266   9.926  19.590  0.00  0.00    +0.000 A 
ENDBRANCH  16  17
ENDBRANCH  15  16
ENDBRANCH   3  15
TORSDOF 4
ENDMDL
MODEL 5
REMARK VINA RESULT:      -7.6      1.150      2.192
REMARK  Name = 
REMARK  5 active torsions:
REMARK  status: ('A' for Active; 'I' for Inactive)
REMARK    1  A    between atoms: C_1  and  C_2
REMARK    2  A    between atoms: C_8  and  C_9
REMARK    3  A    between atoms: N_11  and  C_12
REMARK    4  A    between atoms: C_12  and  C_13
REMARK    5  A    between atoms: C_13  and  C_14
REMARK                            x       y       z     vdW  Elec       q    Type
REMARK                         _______ _______ _______ _____ _____    ______ ____
ROOT
ATOM      1  C   UNL     1       6.934   5.902  18.628  0.00  0.00    +0.000 C 
ATOM      2  O   UNL     1       7.898   5.352  19.157  0.00  0.00    +0.000 OA
ATOM      3  N   UNL     1       7.012   7.200  18.140  0.00  0.00    +0.000 N 
ATOM      4  H   UNL     1       6.176   7.594  17.716  0.00  0.00    +0.000 HD
ENDROOT
BRANCH   1  12
ATOM      5  C   UNL     1       4.074   1.277  18.635  0.00  0.00    +0.000 C 
ATOM      6  C   UNL     1       3.372   2.572  18.358  0.00  0.00    +0.000 A 
ATOM      7  C   UNL     1       2.053   2.647  18.109  0.00  0.00    +0.000 A 
ATOM      8  C   UNL     1       1.517   4.013  17.855  0.00  0.00    +0.000 A 
ATOM      9  N   UNL     1       2.196   5.120  17.852  0.00  0.00    +0.000 NA
ATOM     10  C   UNL     1       3.533   5.001  18.109  0.00  0.00    +0.000 A 
ATOM     11  N   UNL     1       4.457   5.940  18.171  0.00  0.00    +0.000 NA
ATOM     12  C   UNL     1       5.615   5.246  18.463  0.00  0.00    +0.000 A 
ATOM     13  N   UNL     1       5.447   3.919  18.583  0.00  0.00    +0.000 NA
ATOM     14  N   UNL     1       4.127   3.755  18.360  0.00  0.00    +0.000 N 
ENDBRANCH   1  12
BRANCH   3  15
ATOM     15  C   UNL     1       8.256   7.944  18.248  0.00  0.00    +0.000 C 
BRANCH  15  16
ATOM     16  C   UNL     1       8.149   9.406  17.814  0.00  0.00    +0.000 C 
BRANCH  16  17
ATOM     17  C   UNL     1       9.200  10.278  18.469  0.00  0.00    +0.000 A 
ATOM     18  C   UNL     1      10.167  10.936  17.691  0.00  0.00    +0.000 A 
ATOM     19  C   UNL     1      11.136  11.742  18.296  0.00  0.00    +0.000 A 
ATOM     20  C   UNL     1      11.145  11.886  19.678  0.00  0.00    +0.000 A 
ATOM     21  F   UNL     1      12.072  12.661  20.256  0.00  0.00    +0.000 F 
ATOM     22  C   UNL     1      10.205  11.235  20.468  0.00  0.00    +0.000 A 
ATOM     23  C   UNL     1       9.234  10.430  19.865  0.00  0.00    +0.000 A 
ENDBRANCH  16  17
ENDBRANCH  15  16
ENDBRANCH   3  15
TORSDOF 4
ENDMDL
MODEL 6
REMARK VINA RESULT:      -7.6      4.158      6.440
REMARK  Name = 
REMARK  5 active torsions:
REMARK  status: ('A' for Active; 'I' for Inactive)
REMARK    1  A    between atoms: C_1  and  C_2
REMARK    2  A    between atoms: C_8  and  C_9
REMARK    3  A    between atoms: N_11  and  C_12
REMARK    4  A    between atoms: C_12  and  C_13
REMARK    5  A    between atoms: C_13  and  C_14
REMARK                            x       y       z     vdW  Elec       q    Type
REMARK                         _______ _______ _______ _____ _____    ______ ____
ROOT
ATOM      1  C   UNL     1       2.999   5.810  19.068  0.00  0.00    +0.000 C 
ATOM      2  O   UNL     1       3.466   5.150  19.994  0.00  0.00    +0.000 OA
ATOM      3  N   UNL     1       3.053   5.365  17.753  0.00  0.00    +0.000 N 
ATOM      4  H   UNL     1       2.649   5.962  17.037  0.00  0.00    +0.000 HD
ENDROOT
BRANCH   1  12
ATOM      5  C   UNL     1       0.404   9.198  22.438  0.00  0.00    +0.000 C 
ATOM      6  C   UNL     1       0.656   9.623  21.024  0.00  0.00    +0.000 A 
ATOM      7  C   UNL     1       0.268  10.816  20.541  0.00  0.00    +0.000 A 
ATOM      8  C   UNL     1       0.598  11.078  19.112  0.00  0.00    +0.000 A 
ATOM      9  N   UNL     1       1.217  10.272  18.304  0.00  0.00    +0.000 NA
ATOM     10  C   UNL     1       1.595   9.069  18.833  0.00  0.00    +0.000 A 
ATOM     11  N   UNL     1       2.231   8.068  18.256  0.00  0.00    +0.000 NA
ATOM     12  C   UNL     1       2.343   7.125  19.260  0.00  0.00    +0.000 A 
ATOM     13  N   UNL     1       1.804   7.501  20.431  0.00  0.00    +0.000 NA
ATOM     14  N   UNL     1       1.327   8.735  20.168  0.00  0.00    +0.000 N 
ENDBRANCH   1  12
BRANCH   3  15
ATOM     15  C   UNL     1       3.674   4.088  17.444  0.00  0.00    +0.000 C 
BRANCH  15  16
ATOM     16  C   UNL     1       4.940   4.200  16.593  0.00  0.00    +0.000 C 
BRANCH  16  17
ATOM     17  C   UNL     1       5.955   5.149  17.195  0.00  0.00    +0.000 A 
ATOM     18  C   UNL     1       6.118   6.444  16.674  0.00  0.00    +0.000 A 
ATOM     19  C   UNL     1       7.054   7.320  17.231  0.00  0.00    +0.000 A 
ATOM     20  C   UNL     1       7.834   6.903  18.302  0.00  0.00    +0.000 A 
ATOM     21  F   UNL     1       8.727   7.744  18.837  0.00  0.00    +0.000 F 
ATOM     22  C   UNL     1       7.698   5.623  18.826  0.00  0.00    +0.000 A 
ATOM     23  C   UNL     1       6.761   4.745  18.272  0.00  0.00    +0.000 A 
ENDBRANCH  16  17
ENDBRANCH  15  16
ENDBRANCH   3  15
TORSDOF 4
ENDMDL
MODEL 7
REMARK VINA RESULT:      -7.6      1.365      1.555
REMARK  Name = 
REMARK  5 active torsions:
REMARK  status: ('A' for Active; 'I' for Inactive)
REMARK    1  A    between atoms: C_1  and  C_2
REMARK    2  A    between atoms: C_8  and  C_9
REMARK    3  A    between atoms: N_11  and  C_12
REMARK    4  A    between atoms: C_12  and  C_13
REMARK    5  A    between atoms: C_13  and  C_14
REMARK                            x       y       z     vdW  Elec       q    Type
REMARK                         _______ _______ _______ _____ _____    ______ ____
ROOT
ATOM      1  C   UNL     1       6.865   5.539  18.423  0.00  0.00    +0.000 C 
ATOM      2  O   UNL     1       7.899   4.877  18.486  0.00  0.00    +0.000 OA
ATOM      3  N   UNL     1       6.891   6.922  18.289  0.00  0.00    +0.000 N 
ATOM      4  H   UNL     1       5.999   7.406  18.245  0.00  0.00    +0.000 HD
ENDROOT
BRANCH   1  12
ATOM      5  C   UNL     1       1.879   5.658  20.589  0.00  0.00    +0.000 C 
ATOM      6  C   UNL     1       2.211   4.608  19.574  0.00  0.00    +0.000 A 
ATOM      7  C   UNL     1       1.326   3.682  19.167  0.00  0.00    +0.000 A 
ATOM      8  C   UNL     1       1.821   2.712  18.151  0.00  0.00    +0.000 A 
ATOM      9  N   UNL     1       3.010   2.679  17.631  0.00  0.00    +0.000 NA
ATOM     10  C   UNL     1       3.881   3.637  18.071  0.00  0.00    +0.000 A 
ATOM     11  N   UNL     1       5.136   3.845  17.724  0.00  0.00    +0.000 NA
ATOM     12  C   UNL     1       5.512   4.938  18.481  0.00  0.00    +0.000 A 
ATOM     13  N   UNL     1       4.543   5.414  19.281  0.00  0.00    +0.000 NA
ATOM     14  N   UNL     1       3.504   4.593  19.026  0.00  0.00    +0.000 N 
ENDBRANCH   1  12
BRANCH   3  15
ATOM     15  C   UNL     1       8.163   7.622  18.222  0.00  0.00    +0.000 C 
BRANCH  15  16
ATOM     16  C   UNL     1       8.062   9.050  17.686  0.00  0.00    +0.000 C 
BRANCH  16  17
ATOM     17  C   UNL     1       8.971  10.008  18.427  0.00  0.00    +0.000 A 
ATOM     18  C   UNL     1       8.948  10.073  19.830  0.00  0.00    +0.000 A 
ATOM     19  C   UNL     1       9.789  10.957  20.513  0.00  0.00    +0.000 A 
ATOM     20  C   UNL     1      10.647  11.781  19.797  0.00  0.00    +0.000 A 
ATOM     21  F   UNL     1      11.454  12.625  20.453  0.00  0.00    +0.000 F 
ATOM     22  C   UNL     1      10.678  11.742  18.408  0.00  0.00    +0.000 A 
ATOM     23  C   UNL     1       9.839  10.859  17.723  0.00  0.00    +0.000 A 
ENDBRANCH  16  17
ENDBRANCH  15  16
ENDBRANCH   3  15
TORSDOF 4
ENDMDL
MODEL 8
REMARK VINA RESULT:      -7.5      1.284      1.905
REMARK  Name = 
REMARK  5 active torsions:
REMARK  status: ('A' for Active; 'I' for Inactive)
REMARK    1  A    between atoms: C_1  and  C_2
REMARK    2  A    between atoms: C_8  and  C_9
REMARK    3  A    between atoms: N_11  and  C_12
REMARK    4  A    between atoms: C_12  and  C_13
REMARK    5  A    between atoms: C_13  and  C_14
REMARK                            x       y       z     vdW  Elec       q    Type
REMARK                         _______ _______ _______ _____ _____    ______ ____
ROOT
ATOM      1  C   UNL     1       7.317   5.804  18.889  0.00  0.00    +0.000 C 
ATOM      2  O   UNL     1       8.252   5.433  19.596  0.00  0.00    +0.000 OA
ATOM      3  N   UNL     1       7.332   7.035  18.245  0.00  0.00    +0.000 N 
ATOM      4  H   UNL     1       6.525   7.278  17.678  0.00  0.00    +0.000 HD
ENDROOT
BRANCH   1  12
ATOM      5  C   UNL     1       3.792   2.161  20.857  0.00  0.00    +0.000 C 
ATOM      6  C   UNL     1       3.601   2.689  19.469  0.00  0.00    +0.000 A 
ATOM      7  C   UNL     1       2.587   2.301  18.675  0.00  0.00    +0.000 A 
ATOM      8  C   UNL     1       2.545   2.925  17.323  0.00  0.00    +0.000 A 
ATOM      9  N   UNL     1       3.384   3.795  16.848  0.00  0.00    +0.000 NA
ATOM     10  C   UNL     1       4.401   4.163  17.686  0.00  0.00    +0.000 A 
ATOM     11  N   UNL     1       5.385   5.015  17.478  0.00  0.00    +0.000 NA
ATOM     12  C   UNL     1       6.101   4.989  18.659  0.00  0.00    +0.000 A 
ATOM     13  N   UNL     1       5.601   4.157  19.588  0.00  0.00    +0.000 NA
ATOM     14  N   UNL     1       4.521   3.628  18.977  0.00  0.00    +0.000 N 
ENDBRANCH   1  12
BRANCH   3  15
ATOM     15  C   UNL     1       8.473   7.921  18.398  0.00  0.00    +0.000 C 
BRANCH  15  16
ATOM     16  C   UNL     1       8.249   9.329  17.846  0.00  0.00    +0.000 C 
BRANCH  16  17
ATOM     17  C   UNL     1       9.117  10.362  18.533  0.00  0.00    +0.000 A 
ATOM     18  C   UNL     1       9.247  10.369  19.932  0.00  0.00    +0.000 A 
ATOM     19  C   UNL     1      10.050  11.322  20.565  0.00  0.00    +0.000 A 
ATOM     20  C   UNL     1      10.719  12.272  19.805  0.00  0.00    +0.000 A 
ATOM     21  F   UNL     1      11.491  13.182  20.413  0.00  0.00    +0.000 F 
ATOM     22  C   UNL     1      10.596  12.291  18.421  0.00  0.00    +0.000 A 
ATOM     23  C   UNL     1       9.795  11.339  17.785  0.00  0.00    +0.000 A 
ENDBRANCH  16  17
ENDBRANCH  15  16
ENDBRANCH   3  15
TORSDOF 4
ENDMDL
MODEL 9
REMARK VINA RESULT:      -7.5      5.436      7.525
REMARK  Name = 
REMARK  5 active torsions:
REMARK  status: ('A' for Active; 'I' for Inactive)
REMARK    1  A    between atoms: C_1  and  C_2
REMARK    2  A    between atoms: C_8  and  C_9
REMARK    3  A    between atoms: N_11  and  C_12
REMARK    4  A    between atoms: C_12  and  C_13
REMARK    5  A    between atoms: C_13  and  C_14
REMARK                            x       y       z     vdW  Elec       q    Type
REMARK                         _______ _______ _______ _____ _____    ______ ____
ROOT
ATOM      1  C   UNL     1       5.454   4.234  17.478  0.00  0.00    +0.000 C 
ATOM      2  O   UNL     1       5.726   4.958  18.434  0.00  0.00    +0.000 OA
ATOM      3  N   UNL     1       4.545   3.190  17.590  0.00  0.00    +0.000 N 
ATOM      4  H   UNL     1       4.368   2.630  16.760  0.00  0.00    +0.000 HD
ENDROOT
BRANCH   1  12
ATOM      5  C   UNL     1       5.365   2.904  12.206  0.00  0.00    +0.000 C 
ATOM      6  C   UNL     1       6.406   3.861  12.703  0.00  0.00    +0.000 A 
ATOM      7  C   UNL     1       7.330   4.414  11.898  0.00  0.00    +0.000 A 
ATOM      8  C   UNL     1       8.290   5.344  12.555  0.00  0.00    +0.000 A 
ATOM      9  N   UNL     1       8.316   5.665  13.813  0.00  0.00    +0.000 NA
ATOM     10  C   UNL     1       7.360   5.081  14.598  0.00  0.00    +0.000 A 
ATOM     11  N   UNL     1       7.146   5.218  15.892  0.00  0.00    +0.000 NA
ATOM     12  C   UNL     1       6.058   4.401  16.135  0.00  0.00    +0.000 A 
ATOM     13  N   UNL     1       5.592   3.765  15.048  0.00  0.00    +0.000 NA
ATOM     14  N   UNL     1       6.413   4.192  14.067  0.00  0.00    +0.000 N 
ENDBRANCH   1  12
BRANCH   3  15
ATOM     15  C   UNL     1       3.889   2.930  18.860  0.00  0.00    +0.000 C 
BRANCH  15  16
ATOM     16  C   UNL     1       2.416   3.340  18.898  0.00  0.00    +0.000 C 
BRANCH  16  17
ATOM     17  C   UNL     1       2.237   4.808  19.223  0.00  0.00    +0.000 A 
ATOM     18  C   UNL     1       1.918   5.217  20.529  0.00  0.00    +0.000 A 
ATOM     19  C   UNL     1       1.754   6.573  20.828  0.00  0.00    +0.000 A 
ATOM     20  C   UNL     1       1.900   7.521  19.824  0.00  0.00    +0.000 A 
ATOM     21  F   UNL     1       1.746   8.819  20.112  0.00  0.00    +0.000 F 
ATOM     22  C   UNL     1       2.204   7.138  18.523  0.00  0.00    +0.000 A 
ATOM     23  C   UNL     1       2.370   5.784  18.221  0.00  0.00    +0.000 A 
ENDBRANCH  16  17
ENDBRANCH  15  16
ENDBRANCH   3  15
TORSDOF 4
ENDMDL
