MODEL 1
REMARK VINA RESULT:      -8.1      0.000      0.000
REMARK  Name = 
REMARK  5 active torsions:
REMARK  status: ('A' for Active; 'I' for Inactive)
REMARK    1  A    between atoms: C_2  and  C_12
REMARK    2  A    between atoms: N_3  and  C_4
REMARK    3  A    between atoms: C_12  and  C_14
REMARK    4  A    between atoms: C_16  and  C_17
REMARK    5  A    between atoms: C_17  and  C_18
REMARK                            x       y       z     vdW  Elec       q    Type
REMARK                         _______ _______ _______ _____ _____    ______ ____
ROOT
ATOM      1  C   UNL     1       1.738   8.865  18.495  0.00  0.00    +0.000 A 
ATOM      2  C   UNL     1       1.056   9.942  17.859  0.00  0.00    +0.000 A 
ATOM      3  C   UNL     1       0.195  10.549  18.755  0.00  0.00    +0.000 A 
ATOM      4  N   UNL     1       0.265   9.832  19.941  0.00  0.00    +0.000 N 
ATOM      5  C   UNL     1      -0.485   9.971  21.119  0.00  0.00    +0.000 A 
ATOM      6  C   UNL     1      -0.180   9.242  22.206  0.00  0.00    +0.000 A 
ATOM      7  C   UNL     1       0.949   8.333  22.136  0.00  0.00    +0.000 A 
ATOM      8  C   UNL     1       1.639   8.146  20.993  0.00  0.00    +0.000 A 
ATOM      9  C   UNL     1       1.290   8.880  19.813  0.00  0.00    +0.000 A 
ENDROOT
BRANCH   1  10
ATOM     10  C   UNL     1       2.723   7.948  17.894  0.00  0.00    +0.000 C 
ATOM     11  O   UNL     1       3.397   8.239  16.912  0.00  0.00    +0.000 OA
BRANCH  10  13
ATOM     12  O   UNL     1       3.888   6.363  19.328  0.00  0.00    +0.000 OA
ATOM     13  C   UNL     1       2.995   6.544  18.513  0.00  0.00    +0.000 C 
ATOM     14  N   UNL     1       2.204   5.530  17.977  0.00  0.00    +0.000 N 
ATOM     15  H   UNL     1       1.863   5.739  17.040  0.00  0.00    +0.000 HD
BRANCH  14  16
ATOM     16  C   UNL     1       2.433   4.166  18.325  0.00  0.00    +0.000 A 
ATOM     17  C   UNL     1       3.317   3.344  17.607  0.00  0.00    +0.000 A 
ATOM     18 CL   UNL     1       4.386   3.949  16.392  0.00  0.00    +0.000 Cl
ATOM     19  C   UNL     1       3.441   2.012  17.988  0.00  0.00    +0.000 A 
ATOM     20  N   UNL     1       2.770   1.453  19.022  0.00  0.00    +0.000 NA
ATOM     21  C   UNL     1       1.956   2.273  19.725  0.00  0.00    +0.000 A 
ATOM     22  C   UNL     1       1.771   3.620  19.432  0.00  0.00    +0.000 A 
ATOM     23 CL   UNL     1       0.692   4.552  20.400  0.00  0.00    +0.000 Cl
ENDBRANCH  14  16
ENDBRANCH  10  13
ENDBRANCH   1  10
BRANCH   3  24
ATOM     24  C   UNL     1      -0.613  11.796  18.513  0.00  0.00    +0.000 C 
BRANCH  24  25
ATOM     25  C   UNL     1      -2.106  11.554  18.484  0.00  0.00    +0.000 A 
ATOM     26  C   UNL     1      -2.661  10.727  17.498  0.00  0.00    +0.000 A 
ATOM     27  C   UNL     1      -4.045  10.622  17.356  0.00  0.00    +0.000 A 
ATOM     28  C   UNL     1      -4.885  11.320  18.219  0.00  0.00    +0.000 A 
ATOM     29 CL   UNL     1      -6.587  11.281  17.967  0.00  0.00    +0.000 Cl
ATOM     30  C   UNL     1      -4.354  12.074  19.262  0.00  0.00    +0.000 A 
ATOM     31  C   UNL     1      -2.966  12.191  19.395  0.00  0.00    +0.000 A 
ENDBRANCH  24  25
ENDBRANCH   3  24
TORSDOF 5
ENDMDL
MODEL 2
REMARK VINA RESULT:      -7.9      4.035      9.499
REMARK  Name = 
REMARK  5 active torsions:
REMARK  status: ('A' for Active; 'I' for Inactive)
REMARK    1  A    between atoms: C_2  and  C_12
REMARK    2  A    between atoms: N_3  and  C_4
REMARK    3  A    between atoms: C_12  and  C_14
REMARK    4  A    between atoms: C_16  and  C_17
REMARK    5  A    between atoms: C_17  and  C_18
REMARK                            x       y       z     vdW  Elec       q    Type
REMARK                         _______ _______ _______ _____ _____    ______ ____
ROOT
ATOM      1  C   UNL     1      -1.545  12.456  19.787  0.00  0.00    +0.000 A 
ATOM      2  C   UNL     1      -0.170  12.085  19.772  0.00  0.00    +0.000 A 
ATOM      3  C   UNL     1       0.044  11.112  18.812  0.00  0.00    +0.000 A 
ATOM      4  N   UNL     1      -1.189  10.806  18.256  0.00  0.00    +0.000 N 
ATOM      5  C   UNL     1      -1.532   9.815  17.322  0.00  0.00    +0.000 A 
ATOM      6  C   UNL     1      -2.778   9.757  16.823  0.00  0.00    +0.000 A 
ATOM      7  C   UNL     1      -3.744  10.751  17.253  0.00  0.00    +0.000 A 
ATOM      8  C   UNL     1      -3.445  11.669  18.195  0.00  0.00    +0.000 A 
ATOM      9  C   UNL     1      -2.135  11.708  18.773  0.00  0.00    +0.000 A 
ENDROOT
BRANCH   1  10
ATOM     10  C   UNL     1      -2.199  13.438  20.671  0.00  0.00    +0.000 C 
ATOM     11  O   UNL     1      -1.953  14.640  20.634  0.00  0.00    +0.000 OA
BRANCH  10  13
ATOM     12  O   UNL     1      -3.051  12.193  22.580  0.00  0.00    +0.000 OA
ATOM     13  C   UNL     1      -3.289  12.999  21.692  0.00  0.00    +0.000 C 
ATOM     14  N   UNL     1      -4.553  13.526  21.429  0.00  0.00    +0.000 N 
ATOM     15  H   UNL     1      -4.685  13.782  20.452  0.00  0.00    +0.000 HD
BRANCH  14  16
ATOM     16  C   UNL     1      -5.690  13.101  22.178  0.00  0.00    +0.000 A 
ATOM     17  C   UNL     1      -5.952  13.566  23.477  0.00  0.00    +0.000 A 
ATOM     18 CL   UNL     1      -5.075  14.862  24.207  0.00  0.00    +0.000 Cl
ATOM     19  C   UNL     1      -7.059  13.060  24.151  0.00  0.00    +0.000 A 
ATOM     20  N   UNL     1      -7.914  12.149  23.629  0.00  0.00    +0.000 NA
ATOM     21  C   UNL     1      -7.666  11.747  22.362  0.00  0.00    +0.000 A 
ATOM     22  C   UNL     1      -6.594  12.201  21.600  0.00  0.00    +0.000 A 
ATOM     23 CL   UNL     1      -6.381  11.596  20.000  0.00  0.00    +0.000 Cl
ENDBRANCH  14  16
ENDBRANCH  10  13
ENDBRANCH   1  10
BRANCH   3  24
ATOM     24  C   UNL     1       1.376  10.544  18.397  0.00  0.00    +0.000 C 
BRANCH  24  25
ATOM     25  C   UNL     1       1.593   9.118  18.852  0.00  0.00    +0.000 A 
ATOM     26  C   UNL     1       1.241   8.738  20.153  0.00  0.00    +0.000 A 
ATOM     27  C   UNL     1       1.582   7.475  20.641  0.00  0.00    +0.000 A 
ATOM     28  C   UNL     1       2.252   6.572  19.819  0.00  0.00    +0.000 A 
ATOM     29 CL   UNL     1       2.773   5.063  20.461  0.00  0.00    +0.000 Cl
ATOM     30  C   UNL     1       2.529   6.898  18.495  0.00  0.00    +0.000 A 
ATOM     31  C   UNL     1       2.199   8.169  18.010  0.00  0.00    +0.000 A 
ENDBRANCH  24  25
ENDBRANCH   3  24
TORSDOF 5
ENDMDL
MODEL 3
REMARK VINA RESULT:      -7.9      3.210      8.754
REMARK  Name = 
REMARK  5 active torsions:
REMARK  status: ('A' for Active; 'I' for Inactive)
REMARK    1  A    between atoms: C_2  and  C_12
REMARK    2  A    between atoms: N_3  and  C_4
REMARK    3  A    between atoms: C_12  and  C_14
REMARK    4  A    between atoms: C_16  and  C_17
REMARK    5  A    between atoms: C_17  and  C_18
REMARK                            x       y       z     vdW  Elec       q    Type
REMARK                         _______ _______ _______ _____ _____    ______ ____
ROOT
ATOM      1  C   UNL     1       2.778   6.627  18.878  0.00  0.00    +0.000 A 
ATOM      2  C   UNL     1       4.078   6.374  18.354  0.00  0.00    +0.000 A 
ATOM      3  C   UNL     1       4.494   5.106  18.719  0.00  0.00    +0.000 A 
ATOM      4  N   UNL     1       3.504   4.567  19.528  0.00  0.00    +0.000 N 
ATOM      5  C   UNL     1       3.486   3.357  20.239  0.00  0.00    +0.000 A 
ATOM      6  C   UNL     1       2.372   2.964  20.879  0.00  0.00    +0.000 A 
ATOM      7  C   UNL     1       1.192   3.805  20.797  0.00  0.00    +0.000 A 
ATOM      8  C   UNL     1       1.214   4.998  20.169  0.00  0.00    +0.000 A 
ATOM      9  C   UNL     1       2.412   5.451  19.526  0.00  0.00    +0.000 A 
ENDROOT
BRANCH   1  10
ATOM     10  C   UNL     1       1.981   7.860  18.742  0.00  0.00    +0.000 C 
ATOM     11  O   UNL     1       1.500   8.232  17.677  0.00  0.00    +0.000 OA
BRANCH  10  13
ATOM     12  O   UNL     1       2.115   8.497  21.087  0.00  0.00    +0.000 OA
ATOM     13  C   UNL     1       1.667   8.753  19.979  0.00  0.00    +0.000 C 
ATOM     14  N   UNL     1       0.765   9.782  19.716  0.00  0.00    +0.000 N 
ATOM     15  H   UNL     1       0.160   9.592  18.919  0.00  0.00    +0.000 HD
BRANCH  14  16
ATOM     16  C   UNL     1       0.257  10.594  20.773  0.00  0.00    +0.000 A 
ATOM     17  C   UNL     1       0.460  11.982  20.820  0.00  0.00    +0.000 A 
ATOM     18 CL   UNL     1       1.129  12.880  19.505  0.00  0.00    +0.000 Cl
ATOM     19  C   UNL     1      -0.030  12.687  21.915  0.00  0.00    +0.000 A 
ATOM     20  N   UNL     1      -0.707  12.119  22.941  0.00  0.00    +0.000 NA
ATOM     21  C   UNL     1      -0.927  10.788  22.854  0.00  0.00    +0.000 A 
ATOM     22  C   UNL     1      -0.489   9.997  21.797  0.00  0.00    +0.000 A 
ATOM     23 CL   UNL     1      -0.823   8.306  21.815  0.00  0.00    +0.000 Cl
ENDBRANCH  14  16
ENDBRANCH  10  13
ENDBRANCH   1  10
BRANCH   3  24
ATOM     24  C   UNL     1       5.751   4.413  18.266  0.00  0.00    +0.000 C 
BRANCH  24  25
ATOM     25  C   UNL     1       5.968   4.469  16.770  0.00  0.00    +0.000 A 
ATOM     26  C   UNL     1       4.981   3.984  15.902  0.00  0.00    +0.000 A 
ATOM     27  C   UNL     1       5.229   3.878  14.533  0.00  0.00    +0.000 A 
ATOM     28  C   UNL     1       6.456   4.285  14.017  0.00  0.00    +0.000 A 
ATOM     29 CL   UNL     1       6.801   4.044  12.348  0.00  0.00    +0.000 Cl
ATOM     30  C   UNL     1       7.416   4.854  14.850  0.00  0.00    +0.000 A 
ATOM     31  C   UNL     1       7.172   4.947  16.225  0.00  0.00    +0.000 A 
ENDBRANCH  24  25
ENDBRANCH   3  24
TORSDOF 5
ENDMDL
MODEL 4
REMARK VINA RESULT:      -7.8      3.249      8.851
REMARK  Name = 
REMARK  5 active torsions:
REMARK  status: ('A' for Active; 'I' for Inactive)
REMARK    1  A    between atoms: C_2  and  C_12
REMARK    2  A    between atoms: N_3  and  C_4
REMARK    3  A    between atoms: C_12  and  C_14
REMARK    4  A    between atoms: C_16  and  C_17
REMARK    5  A    between atoms: C_17  and  C_18
REMARK                            x       y       z     vdW  Elec       q    Type
REMARK                         _______ _______ _______ _____ _____    ______ ____
ROOT
ATOM      1  C   UNL     1       2.831   6.742  18.856  0.00  0.00    +0.000 A 
ATOM      2  C   UNL     1       4.146   6.528  18.351  0.00  0.00    +0.000 A 
ATOM      3  C   UNL     1       4.577   5.257  18.684  0.00  0.00    +0.000 A 
ATOM      4  N   UNL     1       3.582   4.675  19.455  0.00  0.00    +0.000 N 
ATOM      5  C   UNL     1       3.572   3.443  20.128  0.00  0.00    +0.000 A 
ATOM      6  C   UNL     1       2.453   3.010  20.732  0.00  0.00    +0.000 A 
ATOM      7  C   UNL     1       1.260   3.832  20.652  0.00  0.00    +0.000 A 
ATOM      8  C   UNL     1       1.272   5.045  20.062  0.00  0.00    +0.000 A 
ATOM      9  C   UNL     1       2.474   5.540  19.459  0.00  0.00    +0.000 A 
ENDROOT
BRANCH   1  10
ATOM     10  C   UNL     1       2.014   7.964  18.742  0.00  0.00    +0.000 C 
ATOM     11  O   UNL     1       1.518   8.342  17.686  0.00  0.00    +0.000 OA
BRANCH  10  13
ATOM     12  O   UNL     1       2.153   8.568  21.095  0.00  0.00    +0.000 OA
ATOM     13  C   UNL     1       1.698   8.836  19.993  0.00  0.00    +0.000 C 
ATOM     14  N   UNL     1       0.787   9.863  19.748  0.00  0.00    +0.000 N 
ATOM     15  H   UNL     1       0.180   9.678  18.951  0.00  0.00    +0.000 HD
BRANCH  14  16
ATOM     16  C   UNL     1       0.277  10.655  20.819  0.00  0.00    +0.000 A 
ATOM     17  C   UNL     1      -0.496  10.109  21.856  0.00  0.00    +0.000 A 
ATOM     18 CL   UNL     1      -0.709   8.409  22.077  0.00  0.00    +0.000 Cl
ATOM     19  C   UNL     1      -0.994  10.966  22.833  0.00  0.00    +0.000 A 
ATOM     20  N   UNL     1      -0.771  12.302  22.856  0.00  0.00    +0.000 NA
ATOM     21  C   UNL     1       0.011  12.798  21.870  0.00  0.00    +0.000 A 
ATOM     22  C   UNL     1       0.564  12.025  20.855  0.00  0.00    +0.000 A 
ATOM     23 CL   UNL     1       1.532  12.786  19.648  0.00  0.00    +0.000 Cl
ENDBRANCH  14  16
ENDBRANCH  10  13
ENDBRANCH   1  10
BRANCH   3  24
ATOM     24  C   UNL     1       5.856   4.601  18.235  0.00  0.00    +0.000 C 
BRANCH  24  25
ATOM     25  C   UNL     1       6.033   4.586  16.733  0.00  0.00    +0.000 A 
ATOM     26  C   UNL     1       5.076   3.961  15.923  0.00  0.00    +0.000 A 
ATOM     27  C   UNL     1       5.302   3.795  14.556  0.00  0.00    +0.000 A 
ATOM     28  C   UNL     1       6.475   4.279  13.983  0.00  0.00    +0.000 A 
ATOM     29 CL   UNL     1       6.802   3.968  12.322  0.00  0.00    +0.000 Cl
ATOM     30  C   UNL     1       7.396   4.982  14.754  0.00  0.00    +0.000 A 
ATOM     31  C   UNL     1       7.176   5.136  16.127  0.00  0.00    +0.000 A 
ENDBRANCH  24  25
ENDBRANCH   3  24
TORSDOF 5
ENDMDL
MODEL 5
REMARK VINA RESULT:      -7.8      0.224      1.888
REMARK  Name = 
REMARK  5 active torsions:
REMARK  status: ('A' for Active; 'I' for Inactive)
REMARK    1  A    between atoms: C_2  and  C_12
REMARK    2  A    between atoms: N_3  and  C_4
REMARK    3  A    between atoms: C_12  and  C_14
REMARK    4  A    between atoms: C_16  and  C_17
REMARK    5  A    between atoms: C_17  and  C_18
REMARK                            x       y       z     vdW  Elec       q    Type
REMARK                         _______ _______ _______ _____ _____    ______ ____
ROOT
ATOM      1  C   UNL     1       1.770   8.880  18.510  0.00  0.00    +0.000 A 
ATOM      2  C   UNL     1       1.163  10.017  17.902  0.00  0.00    +0.000 A 
ATOM      3  C   UNL     1       0.303  10.626  18.797  0.00  0.00    +0.000 A 
ATOM      4  N   UNL     1       0.298   9.855  19.950  0.00  0.00    +0.000 N 
ATOM      5  C   UNL     1      -0.485   9.979  21.110  0.00  0.00    +0.000 A 
ATOM      6  C   UNL     1      -0.252   9.189  22.171  0.00  0.00    +0.000 A 
ATOM      7  C   UNL     1       0.833   8.229  22.096  0.00  0.00    +0.000 A 
ATOM      8  C   UNL     1       1.551   8.057  20.968  0.00  0.00    +0.000 A 
ATOM      9  C   UNL     1       1.279   8.859  19.812  0.00  0.00    +0.000 A 
ENDROOT
BRANCH   1  10
ATOM     10  C   UNL     1       2.729   7.942  17.899  0.00  0.00    +0.000 C 
ATOM     11  O   UNL     1       3.374   8.207  16.890  0.00  0.00    +0.000 OA
BRANCH  10  13
ATOM     12  O   UNL     1       3.862   6.400  19.402  0.00  0.00    +0.000 OA
ATOM     13  C   UNL     1       3.009   6.550  18.540  0.00  0.00    +0.000 C 
ATOM     14  N   UNL     1       2.278   5.510  17.969  0.00  0.00    +0.000 N 
ATOM     15  H   UNL     1       1.982   5.704  17.013  0.00  0.00    +0.000 HD
BRANCH  14  16
ATOM     16  C   UNL     1       2.529   4.155  18.336  0.00  0.00    +0.000 A 
ATOM     17  C   UNL     1       1.905   3.546  19.436  0.00  0.00    +0.000 A 
ATOM     18 CL   UNL     1       0.605   4.279  20.306  0.00  0.00    +0.000 Cl
ATOM     19  C   UNL     1       2.247   2.234  19.750  0.00  0.00    +0.000 A 
ATOM     20  N   UNL     1       3.143   1.496  19.053  0.00  0.00    +0.000 NA
ATOM     21  C   UNL     1       3.701   2.090  17.973  0.00  0.00    +0.000 A 
ATOM     22  C   UNL     1       3.417   3.390  17.570  0.00  0.00    +0.000 A 
ATOM     23 CL   UNL     1       4.211   4.034  16.181  0.00  0.00    +0.000 Cl
ENDBRANCH  14  16
ENDBRANCH  10  13
ENDBRANCH   1  10
BRANCH   3  24
ATOM     24  C   UNL     1      -0.435  11.922  18.587  0.00  0.00    +0.000 C 
BRANCH  24  25
ATOM     25  C   UNL     1      -1.924  11.745  18.386  0.00  0.00    +0.000 A 
ATOM     26  C   UNL     1      -2.826  12.339  19.278  0.00  0.00    +0.000 A 
ATOM     27  C   UNL     1      -4.190  12.054  19.204  0.00  0.00    +0.000 A 
ATOM     28  C   UNL     1      -4.666  11.195  18.217  0.00  0.00    +0.000 A 
ATOM     29 CL   UNL     1      -6.330  10.755  18.203  0.00  0.00    +0.000 Cl
ATOM     30  C   UNL     1      -3.799  10.667  17.266  0.00  0.00    +0.000 A 
ATOM     31  C   UNL     1      -2.429  10.941  17.348  0.00  0.00    +0.000 A 
ENDBRANCH  24  25
ENDBRANCH   3  24
TORSDOF 5
ENDMDL
MODEL 6
REMARK VINA RESULT:      -7.7      3.169      4.506
REMARK  Name = 
REMARK  5 active torsions:
REMARK  status: ('A' for Active; 'I' for Inactive)
REMARK    1  A    between atoms: C_2  and  C_12
REMARK    2  A    between atoms: N_3  and  C_4
REMARK    3  A    between atoms: C_12  and  C_14
REMARK    4  A    between atoms: C_16  and  C_17
REMARK    5  A    between atoms: C_17  and  C_18
REMARK                            x       y       z     vdW  Elec       q    Type
REMARK                         _______ _______ _______ _____ _____    ______ ____
ROOT
ATOM      1  C   UNL     1       0.689   9.680  19.098  0.00  0.00    +0.000 A 
ATOM      2  C   UNL     1       0.743  10.067  20.468  0.00  0.00    +0.000 A 
ATOM      3  C   UNL     1      -0.387  10.793  20.797  0.00  0.00    +0.000 A 
ATOM      4  N   UNL     1      -1.134  10.936  19.637  0.00  0.00    +0.000 N 
ATOM      5  C   UNL     1      -2.306  11.675  19.409  0.00  0.00    +0.000 A 
ATOM      6  C   UNL     1      -2.943  11.589  18.229  0.00  0.00    +0.000 A 
ATOM      7  C   UNL     1      -2.404  10.703  17.215  0.00  0.00    +0.000 A 
ATOM      8  C   UNL     1      -1.247  10.035  17.398  0.00  0.00    +0.000 A 
ATOM      9  C   UNL     1      -0.532  10.159  18.633  0.00  0.00    +0.000 A 
ENDROOT
BRANCH   1  10
ATOM     10  C   UNL     1       1.699   8.917  18.342  0.00  0.00    +0.000 C 
ATOM     11  O   UNL     1       2.115   9.265  17.241  0.00  0.00    +0.000 OA
BRANCH  10  13
ATOM     12  O   UNL     1       2.357   7.409  20.134  0.00  0.00    +0.000 OA
ATOM     13  C   UNL     1       2.334   7.623  18.931  0.00  0.00    +0.000 C 
ATOM     14  N   UNL     1       2.945   6.811  17.977  0.00  0.00    +0.000 N 
ATOM     15  H   UNL     1       3.235   7.320  17.144  0.00  0.00    +0.000 HD
BRANCH  14  16
ATOM     16  C   UNL     1       3.704   5.669  18.371  0.00  0.00    +0.000 A 
ATOM     17  C   UNL     1       3.106   4.519  18.911  0.00  0.00    +0.000 A 
ATOM     18 CL   UNL     1       1.397   4.269  18.935  0.00  0.00    +0.000 Cl
ATOM     19  C   UNL     1       3.929   3.471  19.312  0.00  0.00    +0.000 A 
ATOM     20  N   UNL     1       5.279   3.482  19.205  0.00  0.00    +0.000 NA
ATOM     21  C   UNL     1       5.829   4.583  18.644  0.00  0.00    +0.000 A 
ATOM     22  C   UNL     1       5.094   5.677  18.201  0.00  0.00    +0.000 A 
ATOM     23 CL   UNL     1       5.921   7.027  17.517  0.00  0.00    +0.000 Cl
ENDBRANCH  14  16
ENDBRANCH  10  13
ENDBRANCH   1  10
BRANCH   3  24
ATOM     24  C   UNL     1      -0.770  11.277  22.171  0.00  0.00    +0.000 C 
BRANCH  24  25
ATOM     25  C   UNL     1      -0.623  12.772  22.349  0.00  0.00    +0.000 A 
ATOM     26  C   UNL     1       0.334  13.474  21.604  0.00  0.00    +0.000 A 
ATOM     27  C   UNL     1       0.594  14.819  21.870  0.00  0.00    +0.000 A 
ATOM     28  C   UNL     1      -0.122  15.479  22.865  0.00  0.00    +0.000 A 
ATOM     29 CL   UNL     1       0.284  17.102  23.269  0.00  0.00    +0.000 Cl
ATOM     30  C   UNL     1      -1.139  14.825  23.553  0.00  0.00    +0.000 A 
ATOM     31  C   UNL     1      -1.391  13.473  23.295  0.00  0.00    +0.000 A 
ENDBRANCH  24  25
ENDBRANCH   3  24
TORSDOF 5
ENDMDL
MODEL 7
REMARK VINA RESULT:      -7.7      3.314      8.744
REMARK  Name = 
REMARK  5 active torsions:
REMARK  status: ('A' for Active; 'I' for Inactive)
REMARK    1  A    between atoms: C_2  and  C_12
REMARK    2  A    between atoms: N_3  and  C_4
REMARK    3  A    between atoms: C_12  and  C_14
REMARK    4  A    between atoms: C_16  and  C_17
REMARK    5  A    between atoms: C_17  and  C_18
REMARK                            x       y       z     vdW  Elec       q    Type
REMARK                         _______ _______ _______ _____ _____    ______ ____
ROOT
ATOM      1  C   UNL     1       2.378   6.500  19.834  0.00  0.00    +0.000 A 
ATOM      2  C   UNL     1       3.628   6.551  19.154  0.00  0.00    +0.000 A 
ATOM      3  C   UNL     1       4.051   5.271  18.848  0.00  0.00    +0.000 A 
ATOM      4  N   UNL     1       3.120   4.393  19.384  0.00  0.00    +0.000 N 
ATOM      5  C   UNL     1       3.139   2.990  19.444  0.00  0.00    +0.000 A 
ATOM      6  C   UNL     1       2.074   2.318  19.909  0.00  0.00    +0.000 A 
ATOM      7  C   UNL     1       0.905   3.072  20.323  0.00  0.00    +0.000 A 
ATOM      8  C   UNL     1       0.896   4.420  20.328  0.00  0.00    +0.000 A 
ATOM      9  C   UNL     1       2.046   5.149  19.882  0.00  0.00    +0.000 A 
ENDROOT
BRANCH   1  10
ATOM     10  C   UNL     1       1.593   7.634  20.355  0.00  0.00    +0.000 C 
ATOM     11  O   UNL     1       1.240   7.722  21.526  0.00  0.00    +0.000 OA
BRANCH  10  13
ATOM     12  O   UNL     1       1.747   9.017  18.359  0.00  0.00    +0.000 OA
ATOM     13  C   UNL     1       1.198   8.826  19.434  0.00  0.00    +0.000 C 
ATOM     14  N   UNL     1       0.255   9.684  19.997  0.00  0.00    +0.000 N 
ATOM     15  H   UNL     1       0.245   9.658  21.015  0.00  0.00    +0.000 HD
BRANCH  14  16
ATOM     16  C   UNL     1      -0.100  10.904  19.349  0.00  0.00    +0.000 A 
ATOM     17  C   UNL     1      -1.107  10.972  18.373  0.00  0.00    +0.000 A 
ATOM     18 CL   UNL     1      -2.173   9.658  18.027  0.00  0.00    +0.000 Cl
ATOM     19  C   UNL     1      -1.352  12.196  17.758  0.00  0.00    +0.000 A 
ATOM     20  N   UNL     1      -0.685  13.338  18.049  0.00  0.00    +0.000 NA
ATOM     21  C   UNL     1       0.251  13.258  19.021  0.00  0.00    +0.000 A 
ATOM     22  C   UNL     1       0.562  12.086  19.703  0.00  0.00    +0.000 A 
ATOM     23 CL   UNL     1       1.790  12.116  20.913  0.00  0.00    +0.000 Cl
ENDBRANCH  14  16
ENDBRANCH  10  13
ENDBRANCH   1  10
BRANCH   3  24
ATOM     24  C   UNL     1       5.257   4.900  18.026  0.00  0.00    +0.000 C 
BRANCH  24  25
ATOM     25  C   UNL     1       6.312   5.983  17.977  0.00  0.00    +0.000 A 
ATOM     26  C   UNL     1       7.400   5.938  18.859  0.00  0.00    +0.000 A 
ATOM     27  C   UNL     1       8.293   7.008  18.939  0.00  0.00    +0.000 A 
ATOM     28  C   UNL     1       8.121   8.118  18.117  0.00  0.00    +0.000 A 
ATOM     29 CL   UNL     1       9.153   9.482  18.303  0.00  0.00    +0.000 Cl
ATOM     30  C   UNL     1       7.100   8.142  17.172  0.00  0.00    +0.000 A 
ATOM     31  C   UNL     1       6.197   7.075  17.100  0.00  0.00    +0.000 A 
ENDBRANCH  24  25
ENDBRANCH   3  24
TORSDOF 5
ENDMDL
MODEL 8
REMARK VINA RESULT:      -7.6      1.989      2.490
REMARK  Name = 
REMARK  5 active torsions:
REMARK  status: ('A' for Active; 'I' for Inactive)
REMARK    1  A    between atoms: C_2  and  C_12
REMARK    2  A    between atoms: N_3  and  C_4
REMARK    3  A    between atoms: C_12  and  C_14
REMARK    4  A    between atoms: C_16  and  C_17
REMARK    5  A    between atoms: C_17  and  C_18
REMARK                            x       y       z     vdW  Elec       q    Type
REMARK                         _______ _______ _______ _____ _____    ______ ____
ROOT
ATOM      1  C   UNL     1       1.361   8.880  18.694  0.00  0.00    +0.000 A 
ATOM      2  C   UNL     1       0.361   9.619  17.998  0.00  0.00    +0.000 A 
ATOM      3  C   UNL     1      -0.510  10.200  18.902  0.00  0.00    +0.000 A 
ATOM      4  N   UNL     1      -0.121   9.789  20.168  0.00  0.00    +0.000 N 
ATOM      5  C   UNL     1      -0.734  10.009  21.412  0.00  0.00    +0.000 A 
ATOM      6  C   UNL     1      -0.129   9.617  22.545  0.00  0.00    +0.000 A 
ATOM      7  C   UNL     1       1.174   8.985  22.451  0.00  0.00    +0.000 A 
ATOM      8  C   UNL     1       1.746   8.712  21.261  0.00  0.00    +0.000 A 
ATOM      9  C   UNL     1       1.085   9.080  20.043  0.00  0.00    +0.000 A 
ENDROOT
BRANCH   1  10
ATOM     10  C   UNL     1       2.463   8.094  18.111  0.00  0.00    +0.000 C 
ATOM     11  O   UNL     1       3.178   8.512  17.206  0.00  0.00    +0.000 OA
BRANCH  10  13
ATOM     12  O   UNL     1       3.667   6.507  19.509  0.00  0.00    +0.000 OA
ATOM     13  C   UNL     1       2.811   6.676  18.653  0.00  0.00    +0.000 C 
ATOM     14  N   UNL     1       2.137   5.643  18.003  0.00  0.00    +0.000 N 
ATOM     15  H   UNL     1       1.835   5.891  17.062  0.00  0.00    +0.000 HD
BRANCH  14  16
ATOM     16  C   UNL     1       2.455   4.280  18.275  0.00  0.00    +0.000 A 
ATOM     17  C   UNL     1       3.392   3.561  17.516  0.00  0.00    +0.000 A 
ATOM     18 CL   UNL     1       4.421   4.302  16.343  0.00  0.00    +0.000 Cl
ATOM     19  C   UNL     1       3.604   2.220  17.822  0.00  0.00    +0.000 A 
ATOM     20  N   UNL     1       2.969   1.560  18.820  0.00  0.00    +0.000 NA
ATOM     21  C   UNL     1       2.102   2.284  19.564  0.00  0.00    +0.000 A 
ATOM     22  C   UNL     1       1.829   3.630  19.346  0.00  0.00    +0.000 A 
ATOM     23 CL   UNL     1       0.689   4.434  20.359  0.00  0.00    +0.000 Cl
ENDBRANCH  14  16
ENDBRANCH  10  13
ENDBRANCH   1  10
BRANCH   3  24
ATOM     24  C   UNL     1      -1.626  11.158  18.578  0.00  0.00    +0.000 C 
BRANCH  24  25
ATOM     25  C   UNL     1      -1.339  12.584  18.991  0.00  0.00    +0.000 A 
ATOM     26  C   UNL     1      -0.367  13.327  18.308  0.00  0.00    +0.000 A 
ATOM     27  C   UNL     1       0.025  14.583  18.775  0.00  0.00    +0.000 A 
ATOM     28  C   UNL     1      -0.573  15.117  19.913  0.00  0.00    +0.000 A 
ATOM     29 CL   UNL     1      -0.004  16.610  20.552  0.00  0.00    +0.000 Cl
ATOM     30  C   UNL     1      -1.604  14.434  20.552  0.00  0.00    +0.000 A 
ATOM     31  C   UNL     1      -1.988  13.170  20.092  0.00  0.00    +0.000 A 
ENDBRANCH  24  25
ENDBRANCH   3  24
TORSDOF 5
ENDMDL
MODEL 9
REMARK VINA RESULT:      -7.6      2.026      2.831
REMARK  Name = 
REMARK  5 active torsions:
REMARK  status: ('A' for Active; 'I' for Inactive)
REMARK    1  A    between atoms: C_2  and  C_12
REMARK    2  A    between atoms: N_3  and  C_4
REMARK    3  A    between atoms: C_12  and  C_14
REMARK    4  A    between atoms: C_16  and  C_17
REMARK    5  A    between atoms: C_17  and  C_18
REMARK                            x       y       z     vdW  Elec       q    Type
REMARK                         _______ _______ _______ _____ _____    ______ ____
ROOT
ATOM      1  C   UNL     1       1.655   8.161  19.655  0.00  0.00    +0.000 A 
ATOM      2  C   UNL     1       1.228   8.952  18.550  0.00  0.00    +0.000 A 
ATOM      3  C   UNL     1       0.460  10.011  18.998  0.00  0.00    +0.000 A 
ATOM      4  N   UNL     1       0.332   9.873  20.372  0.00  0.00    +0.000 N 
ATOM      5  C   UNL     1      -0.432  10.620  21.283  0.00  0.00    +0.000 A 
ATOM      6  C   UNL     1      -0.327  10.391  22.602  0.00  0.00    +0.000 A 
ATOM      7  C   UNL     1       0.605   9.377  23.058  0.00  0.00    +0.000 A 
ATOM      8  C   UNL     1       1.299   8.611  22.192  0.00  0.00    +0.000 A 
ATOM      9  C   UNL     1       1.156   8.811  20.780  0.00  0.00    +0.000 A 
ENDROOT
BRANCH   1  10
ATOM     10  C   UNL     1       2.470   6.934  19.617  0.00  0.00    +0.000 C 
ATOM     11  O   UNL     1       2.399   6.056  20.471  0.00  0.00    +0.000 OA
BRANCH  10  13
ATOM     12  O   UNL     1       3.440   7.331  17.421  0.00  0.00    +0.000 OA
ATOM     13  C   UNL     1       3.456   6.661  18.443  0.00  0.00    +0.000 C 
ATOM     14  N   UNL     1       4.264   5.541  18.634  0.00  0.00    +0.000 N 
ATOM     15  H   UNL     1       3.860   4.860  19.276  0.00  0.00    +0.000 HD
BRANCH  14  16
ATOM     16  C   UNL     1       5.111   5.067  17.590  0.00  0.00    +0.000 A 
ATOM     17  C   UNL     1       6.430   5.521  17.426  0.00  0.00    +0.000 A 
ATOM     18 CL   UNL     1       7.237   6.507  18.592  0.00  0.00    +0.000 Cl
ATOM     19  C   UNL     1       7.168   5.040  16.349  0.00  0.00    +0.000 A 
ATOM     20  N   UNL     1       6.699   4.145  15.447  0.00  0.00    +0.000 NA
ATOM     21  C   UNL     1       5.441   3.690  15.649  0.00  0.00    +0.000 A 
ATOM     22  C   UNL     1       4.627   4.100  16.700  0.00  0.00    +0.000 A 
ATOM     23 CL   UNL     1       3.035   3.453  16.834  0.00  0.00    +0.000 Cl
ENDBRANCH  14  16
ENDBRANCH  10  13
ENDBRANCH   1  10
BRANCH   3  24
ATOM     24  C   UNL     1      -0.078  11.142  18.161  0.00  0.00    +0.000 C 
BRANCH  24  25
ATOM     25  C   UNL     1      -1.583  11.122  18.010  0.00  0.00    +0.000 A 
ATOM     26  C   UNL     1      -2.368  12.049  18.708  0.00  0.00    +0.000 A 
ATOM     27  C   UNL     1      -3.759  11.943  18.710  0.00  0.00    +0.000 A 
ATOM     28  C   UNL     1      -4.377  10.925  17.988  0.00  0.00    +0.000 A 
ATOM     29 CL   UNL     1      -6.084  10.727  18.088  0.00  0.00    +0.000 Cl
ATOM     30  C   UNL     1      -3.620  10.050  17.216  0.00  0.00    +0.000 A 
ATOM     31  C   UNL     1      -2.224  10.148  17.225  0.00  0.00    +0.000 A 
ENDBRANCH  24  25
ENDBRANCH   3  24
TORSDOF 5
ENDMDL
