MODEL 1
REMARK VINA RESULT:      -8.3      0.000      0.000
REMARK  Name = 
REMARK  4 active torsions:
REMARK  status: ('A' for Active; 'I' for Inactive)
REMARK    1  A    between atoms: C_1  and  O_2
REMARK    2  A    between atoms: O_2  and  C_3
REMARK    3  A    between atoms: C_6  and  C_7
REMARK    4  A    between atoms: CA_9  and  C_10
REMARK                            x       y       z     vdW  Elec       q    Type
REMARK                         _______ _______ _______ _____ _____    ______ ____
ROOT
ATOM      1  C   UNL     1       1.885   7.106  19.939  0.00  0.00    +0.000 A 
ATOM      2  N   UNL     1       1.479   6.049  20.719  0.00  0.00    +0.000 NA
ATOM      3  CA  UNL     1       1.690   4.782  20.389  0.00  0.00    +0.000 A 
ATOM      4  C   UNL     1       1.988   4.417  19.102  0.00  0.00    +0.000 A 
ATOM      5  C   UNL     1       2.810   5.364  18.493  0.00  0.00    +0.000 A 
ATOM      6  C   UNL     1       2.760   6.727  18.865  0.00  0.00    +0.000 A 
ATOM      7  N   UNL     1       3.629   7.340  17.961  0.00  0.00    +0.000 N 
ATOM      8  C   UNL     1       4.253   6.403  17.116  0.00  0.00    +0.000 A 
ATOM      9  C   UNL     1       5.190   6.505  16.068  0.00  0.00    +0.000 A 
ATOM     10  C   UNL     1       5.626   5.322  15.423  0.00  0.00    +0.000 A 
ATOM     11  C   UNL     1       5.189   4.066  15.826  0.00  0.00    +0.000 A 
ATOM     12  C   UNL     1       4.268   3.976  16.864  0.00  0.00    +0.000 A 
ATOM     13  C   UNL     1       3.771   5.155  17.472  0.00  0.00    +0.000 A 
ATOM     14  H   UNL     1       3.842   8.325  17.938  0.00  0.00    +0.000 HD
ENDROOT
BRANCH   1  18
ATOM     15  C   UNL     1      -0.078  10.721  21.404  0.00  0.00    +0.000 A 
ATOM     16  C   UNL     1       0.375   9.753  22.311  0.00  0.00    +0.000 A 
ATOM     17  C   UNL     1       1.098   8.587  21.919  0.00  0.00    +0.000 A 
ATOM     18  C   UNL     1       1.379   8.359  20.578  0.00  0.00    +0.000 A 
ATOM     19  C   UNL     1       0.967   9.414  19.689  0.00  0.00    +0.000 A 
ATOM     20  C   UNL     1       0.235  10.555  20.067  0.00  0.00    +0.000 A 
BRANCH  15  22
ATOM     21  C   UNL     1      -1.585  11.507  23.108  0.00  0.00    +0.000 C 
ATOM     22  O   UNL     1      -0.818  11.745  21.928  0.00  0.00    +0.000 OA
ENDBRANCH  15  22
ENDBRANCH   1  18
BRANCH   3  23
ATOM     23  C   UNL     1       2.483   4.086  21.435  0.00  0.00    +0.000 C 
ATOM     24  O   UNL     1       2.039   3.181  22.129  0.00  0.00    +0.000 OA
ENDBRANCH   3  23
TORSDOF 3
ENDMDL
MODEL 2
REMARK VINA RESULT:      -7.9      0.411      1.064
REMARK  Name = 
REMARK  4 active torsions:
REMARK  status: ('A' for Active; 'I' for Inactive)
REMARK    1  A    between atoms: C_1  and  O_2
REMARK    2  A    between atoms: O_2  and  C_3
REMARK    3  A    between atoms: C_6  and  C_7
REMARK    4  A    between atoms: CA_9  and  C_10
REMARK                            x       y       z     vdW  Elec       q    Type
REMARK                         _______ _______ _______ _____ _____    ______ ____
ROOT
ATOM      1  C   UNL     1       1.831   7.035  19.672  0.00  0.00    +0.000 A 
ATOM      2  N   UNL     1       1.461   6.026  20.532  0.00  0.00    +0.000 NA
ATOM      3  CA  UNL     1       1.770   4.753  20.331  0.00  0.00    +0.000 A 
ATOM      4  C   UNL     1       2.148   4.294  19.096  0.00  0.00    +0.000 A 
ATOM      5  C   UNL     1       2.931   5.236  18.433  0.00  0.00    +0.000 A 
ATOM      6  C   UNL     1       2.776   6.620  18.673  0.00  0.00    +0.000 A 
ATOM      7  N   UNL     1       3.643   7.207  17.750  0.00  0.00    +0.000 N 
ATOM      8  C   UNL     1       4.363   6.243  17.020  0.00  0.00    +0.000 A 
ATOM      9  C   UNL     1       5.337   6.314  16.004  0.00  0.00    +0.000 A 
ATOM     10  C   UNL     1       5.878   5.110  15.490  0.00  0.00    +0.000 A 
ATOM     11  C   UNL     1       5.507   3.869  15.993  0.00  0.00    +0.000 A 
ATOM     12  C   UNL     1       4.548   3.810  16.998  0.00  0.00    +0.000 A 
ATOM     13  C   UNL     1       3.949   5.002  17.473  0.00  0.00    +0.000 A 
ATOM     14  H   UNL     1       3.791   8.198  17.642  0.00  0.00    +0.000 HD
ENDROOT
BRANCH   1  18
ATOM     15  C   UNL     1       0.452  10.700  21.602  0.00  0.00    +0.000 A 
ATOM     16  C   UNL     1       0.715  10.690  20.225  0.00  0.00    +0.000 A 
ATOM     17  C   UNL     1       1.088   9.515  19.507  0.00  0.00    +0.000 A 
ATOM     18  C   UNL     1       1.216   8.302  20.171  0.00  0.00    +0.000 A 
ATOM     19  C   UNL     1       0.861   8.339  21.566  0.00  0.00    +0.000 A 
ATOM     20  C   UNL     1       0.513   9.498  22.284  0.00  0.00    +0.000 A 
BRANCH  15  22
ATOM     21  C   UNL     1      -1.075  12.105  22.821  0.00  0.00    +0.000 C 
ATOM     22  O   UNL     1       0.176  11.919  22.159  0.00  0.00    +0.000 OA
ENDBRANCH  15  22
ENDBRANCH   1  18
BRANCH   3  23
ATOM     23  C   UNL     1       2.559   4.212  21.467  0.00  0.00    +0.000 C 
ATOM     24  O   UNL     1       2.216   3.240  22.126  0.00  0.00    +0.000 OA
ENDBRANCH   3  23
TORSDOF 3
ENDMDL
MODEL 3
REMARK VINA RESULT:      -7.9      4.403      8.555
REMARK  Name = 
REMARK  4 active torsions:
REMARK  status: ('A' for Active; 'I' for Inactive)
REMARK    1  A    between atoms: C_1  and  O_2
REMARK    2  A    between atoms: O_2  and  C_3
REMARK    3  A    between atoms: C_6  and  C_7
REMARK    4  A    between atoms: CA_9  and  C_10
REMARK                            x       y       z     vdW  Elec       q    Type
REMARK                         _______ _______ _______ _____ _____    ______ ____
ROOT
ATOM      1  C   UNL     1       5.145   4.743  16.106  0.00  0.00    +0.000 A 
ATOM      2  N   UNL     1       6.146   5.470  16.708  0.00  0.00    +0.000 NA
ATOM      3  CA  UNL     1       6.051   5.951  17.939  0.00  0.00    +0.000 A 
ATOM      4  C   UNL     1       4.839   6.085  18.565  0.00  0.00    +0.000 A 
ATOM      5  C   UNL     1       3.993   5.025  18.245  0.00  0.00    +0.000 A 
ATOM      6  C   UNL     1       4.097   4.351  17.007  0.00  0.00    +0.000 A 
ATOM      7  N   UNL     1       3.024   3.459  17.034  0.00  0.00    +0.000 N 
ATOM      8  C   UNL     1       2.328   3.514  18.256  0.00  0.00    +0.000 A 
ATOM      9  C   UNL     1       1.207   2.833  18.773  0.00  0.00    +0.000 A 
ATOM     10  C   UNL     1       0.770   3.134  20.086  0.00  0.00    +0.000 A 
ATOM     11  C   UNL     1       1.443   4.046  20.889  0.00  0.00    +0.000 A 
ATOM     12  C   UNL     1       2.550   4.708  20.372  0.00  0.00    +0.000 A 
ATOM     13  C   UNL     1       2.957   4.468  19.036  0.00  0.00    +0.000 A 
ATOM     14  H   UNL     1       2.792   2.807  16.301  0.00  0.00    +0.000 HD
ENDROOT
BRANCH   1  18
ATOM     15  C   UNL     1       6.921   3.732  12.247  0.00  0.00    +0.000 A 
ATOM     16  C   UNL     1       5.614   3.321  12.546  0.00  0.00    +0.000 A 
ATOM     17  C   UNL     1       4.934   3.680  13.748  0.00  0.00    +0.000 A 
ATOM     18  C   UNL     1       5.568   4.470  14.699  0.00  0.00    +0.000 A 
ATOM     19  C   UNL     1       6.876   4.937  14.319  0.00  0.00    +0.000 A 
ATOM     20  C   UNL     1       7.560   4.568  13.145  0.00  0.00    +0.000 A 
BRANCH  15  22
ATOM     21  C   UNL     1       7.405   1.843  10.838  0.00  0.00    +0.000 C 
ATOM     22  O   UNL     1       7.460   3.247  11.088  0.00  0.00    +0.000 OA
ENDBRANCH  15  22
ENDBRANCH   1  18
BRANCH   3  23
ATOM     23  C   UNL     1       7.144   5.428  18.799  0.00  0.00    +0.000 C 
ATOM     24  O   UNL     1       7.109   5.446  20.022  0.00  0.00    +0.000 OA
ENDBRANCH   3  23
TORSDOF 3
ENDMDL
MODEL 4
REMARK VINA RESULT:      -7.9      2.423      7.189
REMARK  Name = 
REMARK  4 active torsions:
REMARK  status: ('A' for Active; 'I' for Inactive)
REMARK    1  A    between atoms: C_1  and  O_2
REMARK    2  A    between atoms: O_2  and  C_3
REMARK    3  A    between atoms: C_6  and  C_7
REMARK    4  A    between atoms: CA_9  and  C_10
REMARK                            x       y       z     vdW  Elec       q    Type
REMARK                         _______ _______ _______ _____ _____    ______ ____
ROOT
ATOM      1  C   UNL     1       3.474   5.788  18.375  0.00  0.00    +0.000 A 
ATOM      2  N   UNL     1       3.147   4.582  18.951  0.00  0.00    +0.000 NA
ATOM      3  CA  UNL     1       2.367   4.477  20.018  0.00  0.00    +0.000 A 
ATOM      4  C   UNL     1       2.131   5.547  20.841  0.00  0.00    +0.000 A 
ATOM      5  C   UNL     1       2.024   6.726  20.106  0.00  0.00    +0.000 A 
ATOM      6  C   UNL     1       2.711   6.893  18.882  0.00  0.00    +0.000 A 
ATOM      7  N   UNL     1       2.438   8.218  18.537  0.00  0.00    +0.000 N 
ATOM      8  C   UNL     1       1.563   8.829  19.455  0.00  0.00    +0.000 A 
ATOM      9  C   UNL     1       0.992  10.114  19.553  0.00  0.00    +0.000 A 
ATOM     10  C   UNL     1       0.116  10.393  20.630  0.00  0.00    +0.000 A 
ATOM     11  C   UNL     1      -0.228   9.422  21.562  0.00  0.00    +0.000 A 
ATOM     12  C   UNL     1       0.337   8.156  21.454  0.00  0.00    +0.000 A 
ATOM     13  C   UNL     1       1.268   7.884  20.422  0.00  0.00    +0.000 A 
ATOM     14  H   UNL     1       2.771   8.682  17.707  0.00  0.00    +0.000 HD
ENDROOT
BRANCH   1  18
ATOM     15  C   UNL     1       5.911   4.532  14.976  0.00  0.00    +0.000 A 
ATOM     16  C   UNL     1       5.638   5.893  15.178  0.00  0.00    +0.000 A 
ATOM     17  C   UNL     1       4.921   6.390  16.308  0.00  0.00    +0.000 A 
ATOM     18  C   UNL     1       4.446   5.512  17.274  0.00  0.00    +0.000 A 
ATOM     19  C   UNL     1       4.816   4.136  17.071  0.00  0.00    +0.000 A 
ATOM     20  C   UNL     1       5.503   3.637  15.949  0.00  0.00    +0.000 A 
BRANCH  15  22
ATOM     21  C   UNL     1       5.816   3.510  12.800  0.00  0.00    +0.000 C 
ATOM     22  O   UNL     1       6.546   4.207  13.810  0.00  0.00    +0.000 OA
ENDBRANCH  15  22
ENDBRANCH   1  18
BRANCH   3  23
ATOM     23  C   UNL     1       1.176   3.639  19.725  0.00  0.00    +0.000 C 
ATOM     24  O   UNL     1       1.105   2.875  18.772  0.00  0.00    +0.000 OA
ENDBRANCH   3  23
TORSDOF 3
ENDMDL
MODEL 5
REMARK VINA RESULT:      -7.8      2.291      7.072
REMARK  Name = 
REMARK  4 active torsions:
REMARK  status: ('A' for Active; 'I' for Inactive)
REMARK    1  A    between atoms: C_1  and  O_2
REMARK    2  A    between atoms: O_2  and  C_3
REMARK    3  A    between atoms: C_6  and  C_7
REMARK    4  A    between atoms: CA_9  and  C_10
REMARK                            x       y       z     vdW  Elec       q    Type
REMARK                         _______ _______ _______ _____ _____    ______ ____
ROOT
ATOM      1  C   UNL     1       3.111   5.719  18.472  0.00  0.00    +0.000 A 
ATOM      2  N   UNL     1       2.798   4.583  19.182  0.00  0.00    +0.000 NA
ATOM      3  CA  UNL     1       2.141   4.606  20.333  0.00  0.00    +0.000 A 
ATOM      4  C   UNL     1       2.048   5.750  21.081  0.00  0.00    +0.000 A 
ATOM      5  C   UNL     1       1.911   6.871  20.265  0.00  0.00    +0.000 A 
ATOM      6  C   UNL     1       2.460   6.902  18.963  0.00  0.00    +0.000 A 
ATOM      7  N   UNL     1       2.210   8.207  18.538  0.00  0.00    +0.000 N 
ATOM      8  C   UNL     1       1.473   8.936  19.490  0.00  0.00    +0.000 A 
ATOM      9  C   UNL     1       0.975  10.254  19.539  0.00  0.00    +0.000 A 
ATOM     10  C   UNL     1       0.241  10.665  20.678  0.00  0.00    +0.000 A 
ATOM     11  C   UNL     1      -0.038   9.792  21.722  0.00  0.00    +0.000 A 
ATOM     12  C   UNL     1       0.454   8.493  21.662  0.00  0.00    +0.000 A 
ATOM     13  C   UNL     1       1.249   8.089  20.561  0.00  0.00    +0.000 A 
ATOM     14  H   UNL     1       2.466   8.585  17.639  0.00  0.00    +0.000 HD
ENDROOT
BRANCH   1  18
ATOM     15  C   UNL     1       5.977   4.877  15.287  0.00  0.00    +0.000 A 
ATOM     16  C   UNL     1       5.298   3.823  15.915  0.00  0.00    +0.000 A 
ATOM     17  C   UNL     1       4.288   4.019  16.905  0.00  0.00    +0.000 A 
ATOM     18  C   UNL     1       3.938   5.304  17.298  0.00  0.00    +0.000 A 
ATOM     19  C   UNL     1       4.600   6.358  16.573  0.00  0.00    +0.000 A 
ATOM     20  C   UNL     1       5.611   6.170  15.613  0.00  0.00    +0.000 A 
BRANCH  15  22
ATOM     21  C   UNL     1       6.605   3.937  13.162  0.00  0.00    +0.000 C 
ATOM     22  O   UNL     1       6.967   4.525  14.412  0.00  0.00    +0.000 OA
ENDBRANCH  15  22
ENDBRANCH   1  18
BRANCH   3  23
ATOM     23  C   UNL     1       0.887   3.813  20.245  0.00  0.00    +0.000 C 
ATOM     24  O   UNL     1       0.747   2.853  19.501  0.00  0.00    +0.000 OA
ENDBRANCH   3  23
TORSDOF 3
ENDMDL
MODEL 6
REMARK VINA RESULT:      -7.3      2.749      7.341
REMARK  Name = 
REMARK  4 active torsions:
REMARK  status: ('A' for Active; 'I' for Inactive)
REMARK    1  A    between atoms: C_1  and  O_2
REMARK    2  A    between atoms: O_2  and  C_3
REMARK    3  A    between atoms: C_6  and  C_7
REMARK    4  A    between atoms: CA_9  and  C_10
REMARK                            x       y       z     vdW  Elec       q    Type
REMARK                         _______ _______ _______ _____ _____    ______ ____
ROOT
ATOM      1  C   UNL     1       4.108   5.223  17.961  0.00  0.00    +0.000 A 
ATOM      2  N   UNL     1       3.794   4.007  18.521  0.00  0.00    +0.000 NA
ATOM      3  CA  UNL     1       2.996   3.878  19.571  0.00  0.00    +0.000 A 
ATOM      4  C   UNL     1       2.722   4.937  20.398  0.00  0.00    +0.000 A 
ATOM      5  C   UNL     1       2.606   6.119  19.670  0.00  0.00    +0.000 A 
ATOM      6  C   UNL     1       3.313   6.310  18.461  0.00  0.00    +0.000 A 
ATOM      7  N   UNL     1       3.020   7.631  18.121  0.00  0.00    +0.000 N 
ATOM      8  C   UNL     1       2.115   8.217  19.026  0.00  0.00    +0.000 A 
ATOM      9  C   UNL     1       1.516   9.490  19.122  0.00  0.00    +0.000 A 
ATOM     10  C   UNL     1       0.614   9.742  20.184  0.00  0.00    +0.000 A 
ATOM     11  C   UNL     1       0.272   8.757  21.102  0.00  0.00    +0.000 A 
ATOM     12  C   UNL     1       0.865   7.504  20.996  0.00  0.00    +0.000 A 
ATOM     13  C   UNL     1       1.821   7.259  19.980  0.00  0.00    +0.000 A 
ATOM     14  H   UNL     1       3.359   8.109  17.301  0.00  0.00    +0.000 HD
ENDROOT
BRANCH   1  18
ATOM     15  C   UNL     1       6.563   4.664  14.393  0.00  0.00    +0.000 A 
ATOM     16  C   UNL     1       7.058   5.406  15.475  0.00  0.00    +0.000 A 
ATOM     17  C   UNL     1       6.353   5.565  16.705  0.00  0.00    +0.000 A 
ATOM     18  C   UNL     1       5.106   4.977  16.876  0.00  0.00    +0.000 A 
ATOM     19  C   UNL     1       4.670   4.159  15.774  0.00  0.00    +0.000 A 
ATOM     20  C   UNL     1       5.351   4.017  14.550  0.00  0.00    +0.000 A 
BRANCH  15  22
ATOM     21  C   UNL     1       6.908   3.866  12.149  0.00  0.00    +0.000 C 
ATOM     22  O   UNL     1       7.324   4.665  13.257  0.00  0.00    +0.000 OA
ENDBRANCH  15  22
ENDBRANCH   1  18
BRANCH   3  23
ATOM     23  C   UNL     1       1.828   3.019  19.249  0.00  0.00    +0.000 C 
ATOM     24  O   UNL     1       1.130   3.173  18.256  0.00  0.00    +0.000 OA
ENDBRANCH   3  23
TORSDOF 3
ENDMDL
MODEL 7
REMARK VINA RESULT:      -7.3      2.177      7.721
REMARK  Name = 
REMARK  4 active torsions:
REMARK  status: ('A' for Active; 'I' for Inactive)
REMARK    1  A    between atoms: C_1  and  O_2
REMARK    2  A    between atoms: O_2  and  C_3
REMARK    3  A    between atoms: C_6  and  C_7
REMARK    4  A    between atoms: CA_9  and  C_10
REMARK                            x       y       z     vdW  Elec       q    Type
REMARK                         _______ _______ _______ _____ _____    ______ ____
ROOT
ATOM      1  C   UNL     1       1.712   7.906  19.617  0.00  0.00    +0.000 A 
ATOM      2  N   UNL     1       2.053   8.504  18.426  0.00  0.00    +0.000 NA
ATOM      3  CA  UNL     1       1.516   9.642  18.007  0.00  0.00    +0.000 A 
ATOM      4  C   UNL     1       0.340  10.114  18.528  0.00  0.00    +0.000 A 
ATOM      5  C   UNL     1       0.261   9.855  19.895  0.00  0.00    +0.000 A 
ATOM      6  C   UNL     1       0.909   8.738  20.469  0.00  0.00    +0.000 A 
ATOM      7  N   UNL     1       0.495   8.774  21.802  0.00  0.00    +0.000 N 
ATOM      8  C   UNL     1      -0.308   9.899  22.070  0.00  0.00    +0.000 A 
ATOM      9  C   UNL     1      -0.954  10.384  23.225  0.00  0.00    +0.000 A 
ATOM     10  C   UNL     1      -1.690  11.591  23.141  0.00  0.00    +0.000 A 
ATOM     11  C   UNL     1      -1.753  12.328  21.965  0.00  0.00    +0.000 A 
ATOM     12  C   UNL     1      -1.108  11.843  20.833  0.00  0.00    +0.000 A 
ATOM     13  C   UNL     1      -0.427  10.602  20.885  0.00  0.00    +0.000 A 
ATOM     14  H   UNL     1       0.772   8.118  22.514  0.00  0.00    +0.000 HD
ENDROOT
BRANCH   1  18
ATOM     15  C   UNL     1       3.260   3.827  19.785  0.00  0.00    +0.000 A 
ATOM     16  C   UNL     1       3.843   4.762  18.918  0.00  0.00    +0.000 A 
ATOM     17  C   UNL     1       3.450   6.133  18.864  0.00  0.00    +0.000 A 
ATOM     18  C   UNL     1       2.437   6.601  19.691  0.00  0.00    +0.000 A 
ATOM     19  C   UNL     1       1.921   5.630  20.620  0.00  0.00    +0.000 A 
ATOM     20  C   UNL     1       2.289   4.272  20.663  0.00  0.00    +0.000 A 
BRANCH  15  22
ATOM     21  C   UNL     1       3.382   1.808  18.481  0.00  0.00    +0.000 C 
ATOM     22  O   UNL     1       3.696   2.536  19.668  0.00  0.00    +0.000 OA
ENDBRANCH  15  22
ENDBRANCH   1  18
BRANCH   3  23
ATOM     23  C   UNL     1       2.563  10.674  17.791  0.00  0.00    +0.000 C 
ATOM     24  O   UNL     1       2.403  11.860  18.042  0.00  0.00    +0.000 OA
ENDBRANCH   3  23
TORSDOF 3
ENDMDL
MODEL 8
REMARK VINA RESULT:      -7.2      1.024      1.159
REMARK  Name = 
REMARK  4 active torsions:
REMARK  status: ('A' for Active; 'I' for Inactive)
REMARK    1  A    between atoms: C_1  and  O_2
REMARK    2  A    between atoms: O_2  and  C_3
REMARK    3  A    between atoms: C_6  and  C_7
REMARK    4  A    between atoms: CA_9  and  C_10
REMARK                            x       y       z     vdW  Elec       q    Type
REMARK                         _______ _______ _______ _____ _____    ______ ____
ROOT
ATOM      1  C   UNL     1       1.616   6.343  20.235  0.00  0.00    +0.000 A 
ATOM      2  N   UNL     1       1.265   5.131  20.782  0.00  0.00    +0.000 NA
ATOM      3  CA  UNL     1       1.561   3.968  20.218  0.00  0.00    +0.000 A 
ATOM      4  C   UNL     1       1.904   3.882  18.893  0.00  0.00    +0.000 A 
ATOM      5  C   UNL     1       2.675   4.976  18.506  0.00  0.00    +0.000 A 
ATOM      6  C   UNL     1       2.533   6.233  19.135  0.00  0.00    +0.000 A 
ATOM      7  N   UNL     1       3.377   7.062  18.394  0.00  0.00    +0.000 N 
ATOM      8  C   UNL     1       4.073   6.347  17.401  0.00  0.00    +0.000 A 
ATOM      9  C   UNL     1       5.021   6.708  16.421  0.00  0.00    +0.000 A 
ATOM     10  C   UNL     1       5.541   5.702  15.571  0.00  0.00    +0.000 A 
ATOM     11  C   UNL     1       5.177   4.369  15.709  0.00  0.00    +0.000 A 
ATOM     12  C   UNL     1       4.246   4.023  16.681  0.00  0.00    +0.000 A 
ATOM     13  C   UNL     1       3.665   5.028  17.492  0.00  0.00    +0.000 A 
ATOM     14  H   UNL     1       3.528   8.043  18.569  0.00  0.00    +0.000 HD
ENDROOT
BRANCH   1  18
ATOM     15  C   UNL     1       0.263   9.867  22.429  0.00  0.00    +0.000 A 
ATOM     16  C   UNL     1      -0.675   8.983  21.877  0.00  0.00    +0.000 A 
ATOM     17  C   UNL     1      -0.315   7.769  21.219  0.00  0.00    +0.000 A 
ATOM     18  C   UNL     1       1.022   7.414  21.091  0.00  0.00    +0.000 A 
ATOM     19  C   UNL     1       1.946   8.307  21.741  0.00  0.00    +0.000 A 
ATOM     20  C   UNL     1       1.599   9.516  22.372  0.00  0.00    +0.000 A 
BRANCH  15  22
ATOM     21  C   UNL     1      -1.294  11.696  22.285  0.00  0.00    +0.000 C 
ATOM     22  O   UNL     1      -0.234  11.024  22.964  0.00  0.00    +0.000 OA
ENDBRANCH  15  22
ENDBRANCH   1  18
BRANCH   3  23
ATOM     23  C   UNL     1       2.377   3.128  21.131  0.00  0.00    +0.000 C 
ATOM     24  O   UNL     1       2.106   2.952  22.311  0.00  0.00    +0.000 OA
ENDBRANCH   3  23
TORSDOF 3
ENDMDL
MODEL 9
REMARK VINA RESULT:      -7.1      3.331      7.954
REMARK  Name = 
REMARK  4 active torsions:
REMARK  status: ('A' for Active; 'I' for Inactive)
REMARK    1  A    between atoms: C_1  and  O_2
REMARK    2  A    between atoms: O_2  and  C_3
REMARK    3  A    between atoms: C_6  and  C_7
REMARK    4  A    between atoms: CA_9  and  C_10
REMARK                            x       y       z     vdW  Elec       q    Type
REMARK                         _______ _______ _______ _____ _____    ______ ____
ROOT
ATOM      1  C   UNL     1       0.293   9.993  19.557  0.00  0.00    +0.000 A 
ATOM      2  N   UNL     1       0.578  10.388  20.844  0.00  0.00    +0.000 NA
ATOM      3  CA  UNL     1      -0.160  11.262  21.514  0.00  0.00    +0.000 A 
ATOM      4  C   UNL     1      -1.029  12.106  20.873  0.00  0.00    +0.000 A 
ATOM      5  C   UNL     1      -1.644  11.467  19.799  0.00  0.00    +0.000 A 
ATOM      6  C   UNL     1      -0.996  10.425  19.096  0.00  0.00    +0.000 A 
ATOM      7  N   UNL     1      -1.878  10.145  18.051  0.00  0.00    +0.000 N 
ATOM      8  C   UNL     1      -3.054  10.913  18.137  0.00  0.00    +0.000 A 
ATOM      9  C   UNL     1      -4.223  11.000  17.354  0.00  0.00    +0.000 A 
ATOM     10  C   UNL     1      -5.246  11.897  17.750  0.00  0.00    +0.000 A 
ATOM     11  C   UNL     1      -5.144  12.655  18.909  0.00  0.00    +0.000 A 
ATOM     12  C   UNL     1      -3.989  12.559  19.676  0.00  0.00    +0.000 A 
ATOM     13  C   UNL     1      -2.929  11.718  19.256  0.00  0.00    +0.000 A 
ATOM     14  H   UNL     1      -1.735   9.440  17.344  0.00  0.00    +0.000 HD
ENDROOT
BRANCH   1  18
ATOM     15  C   UNL     1       3.117   6.889  18.352  0.00  0.00    +0.000 A 
ATOM     16  C   UNL     1       2.914   8.008  17.532  0.00  0.00    +0.000 A 
ATOM     17  C   UNL     1       2.073   9.103  17.893  0.00  0.00    +0.000 A 
ATOM     18  C   UNL     1       1.397   9.093  19.107  0.00  0.00    +0.000 A 
ATOM     19  C   UNL     1       1.695   7.966  19.952  0.00  0.00    +0.000 A 
ATOM     20  C   UNL     1       2.505   6.873  19.593  0.00  0.00    +0.000 A 
BRANCH  15  22
ATOM     21  C   UNL     1       4.773   6.192  16.752  0.00  0.00    +0.000 C 
ATOM     22  O   UNL     1       3.895   5.890  17.835  0.00  0.00    +0.000 OA
ENDBRANCH  15  22
ENDBRANCH   1  18
BRANCH   3  23
ATOM     23  C   UNL     1      -0.682  10.664  22.770  0.00  0.00    +0.000 C 
ATOM     24  O   UNL     1       0.009  10.025  23.552  0.00  0.00    +0.000 OA
ENDBRANCH   3  23
TORSDOF 3
ENDMDL
