MODEL 1
REMARK VINA RESULT:      -8.3      0.000      0.000
REMARK  Name = 
REMARK  0 active torsions:
REMARK  status: ('A' for Active; 'I' for Inactive)
REMARK                            x       y       z     vdW  Elec       q    Type
REMARK                         _______ _______ _______ _____ _____    ______ ____
ROOT
ATOM      1  O   UNL     1       2.161   2.938  16.535  0.00  0.00    +0.000 OA
ATOM      2  C   UNL     1       2.775   3.321  17.513  0.00  0.00    +0.000 C 
ATOM      3  C   UNL     1       2.274   3.278  18.921  0.00  0.00    +0.000 A 
ATOM      4  C   UNL     1       1.058   2.825  19.441  0.00  0.00    +0.000 A 
ATOM      5  C   UNL     1       0.862   2.899  20.831  0.00  0.00    +0.000 A 
ATOM      6  C   UNL     1       1.878   3.413  21.657  0.00  0.00    +0.000 A 
ATOM      7  C   UNL     1       3.097   3.858  21.110  0.00  0.00    +0.000 A 
ATOM      8  C   UNL     1       3.289   3.789  19.729  0.00  0.00    +0.000 A 
ATOM      9  C   UNL     1       4.418   4.153  18.880  0.00  0.00    +0.000 A 
ATOM     10  N   UNL     1       5.538   4.657  19.369  0.00  0.00    +0.000 NA
ATOM     11  C   UNL     1       6.451   4.925  18.370  0.00  0.00    +0.000 A 
ATOM     12 CL   UNL     1       7.901   5.609  19.040  0.00  0.00    +0.000 Cl
ATOM     13  C   UNL     1       6.312   4.714  16.983  0.00  0.00    +0.000 A 
ATOM     14  C   UNL     1       7.444   5.087  16.064  0.00  0.00    +0.000 A 
ATOM     15  C   UNL     1       7.402   4.912  14.622  0.00  0.00    +0.000 A 
ATOM     16  C   UNL     1       6.333   4.358  13.711  0.00  0.00    +0.000 A 
ATOM     17  C   UNL     1       5.106   3.959  14.697  0.00  0.00    +0.000 A 
ATOM     18  C   UNL     1       5.083   4.137  16.366  0.00  0.00    +0.000 A 
ATOM     19  C   UNL     1       4.162   3.890  17.489  0.00  0.00    +0.000 A 
ENDROOT
TORSDOF 0
ENDMDL
MODEL 2
REMARK VINA RESULT:      -7.9      1.060      1.060
REMARK  Name = 
REMARK  0 active torsions:
REMARK  status: ('A' for Active; 'I' for Inactive)
REMARK                            x       y       z     vdW  Elec       q    Type
REMARK                         _______ _______ _______ _____ _____    ______ ____
ROOT
ATOM      1  O   UNL     1       2.401   2.761  16.372  0.00  0.00    +0.000 OA
ATOM      2  C   UNL     1       2.907   3.529  17.167  0.00  0.00    +0.000 C 
ATOM      3  C   UNL     1       2.365   3.854  18.522  0.00  0.00    +0.000 A 
ATOM      4  C   UNL     1       1.218   3.397  19.178  0.00  0.00    +0.000 A 
ATOM      5  C   UNL     1       0.959   3.875  20.473  0.00  0.00    +0.000 A 
ATOM      6  C   UNL     1       1.847   4.784  21.077  0.00  0.00    +0.000 A 
ATOM      7  C   UNL     1       2.999   5.226  20.399  0.00  0.00    +0.000 A 
ATOM      8  C   UNL     1       3.253   4.754  19.109  0.00  0.00    +0.000 A 
ATOM      9  C   UNL     1       4.342   5.010  18.172  0.00  0.00    +0.000 A 
ATOM     10  N   UNL     1       5.347   5.819  18.459  0.00  0.00    +0.000 NA
ATOM     11  C   UNL     1       6.243   5.902  17.413  0.00  0.00    +0.000 A 
ATOM     12 CL   UNL     1       7.538   6.991  17.809  0.00  0.00    +0.000 Cl
ATOM     13  C   UNL     1       6.194   5.241  16.169  0.00  0.00    +0.000 A 
ATOM     14  C   UNL     1       7.287   5.483  15.162  0.00  0.00    +0.000 A 
ATOM     15  C   UNL     1       7.329   4.856  13.853  0.00  0.00    +0.000 A 
ATOM     16  C   UNL     1       6.398   3.873  13.182  0.00  0.00    +0.000 A 
ATOM     17  C   UNL     1       5.214   3.613  14.261  0.00  0.00    +0.000 A 
ATOM     18  C   UNL     1       5.098   4.306  15.786  0.00  0.00    +0.000 A 
ATOM     19  C   UNL     1       4.186   4.281  16.943  0.00  0.00    +0.000 A 
ENDROOT
TORSDOF 0
ENDMDL
MODEL 3
REMARK VINA RESULT:      -7.6      4.036      4.323
REMARK  Name = 
REMARK  0 active torsions:
REMARK  status: ('A' for Active; 'I' for Inactive)
REMARK                            x       y       z     vdW  Elec       q    Type
REMARK                         _______ _______ _______ _____ _____    ______ ____
ROOT
ATOM      1  O   UNL     1       2.696   9.157  17.113  0.00  0.00    +0.000 OA
ATOM      2  C   UNL     1       2.523   8.413  18.059  0.00  0.00    +0.000 C 
ATOM      3  C   UNL     1       1.659   8.705  19.244  0.00  0.00    +0.000 A 
ATOM      4  C   UNL     1       0.886   9.829  19.552  0.00  0.00    +0.000 A 
ATOM      5  C   UNL     1       0.156   9.823  20.753  0.00  0.00    +0.000 A 
ATOM      6  C   UNL     1       0.212   8.703  21.603  0.00  0.00    +0.000 A 
ATOM      7  C   UNL     1       0.992   7.581  21.268  0.00  0.00    +0.000 A 
ATOM      8  C   UNL     1       1.721   7.589  20.077  0.00  0.00    +0.000 A 
ATOM      9  C   UNL     1       2.596   6.597  19.460  0.00  0.00    +0.000 A 
ATOM     10  N   UNL     1       2.839   5.424  20.016  0.00  0.00    +0.000 NA
ATOM     11  C   UNL     1       3.699   4.667  19.247  0.00  0.00    +0.000 A 
ATOM     12 CL   UNL     1       4.020   3.142  20.016  0.00  0.00    +0.000 Cl
ATOM     13  C   UNL     1       4.283   5.003  18.009  0.00  0.00    +0.000 A 
ATOM     14  C   UNL     1       5.204   4.018  17.338  0.00  0.00    +0.000 A 
ATOM     15  C   UNL     1       5.860   4.266  16.065  0.00  0.00    +0.000 A 
ATOM     16  C   UNL     1       5.814   5.450  15.129  0.00  0.00    +0.000 A 
ATOM     17  C   UNL     1       4.826   6.518  15.850  0.00  0.00    +0.000 A 
ATOM     18  C   UNL     1       4.041   6.302  17.319  0.00  0.00    +0.000 A 
ATOM     19  C   UNL     1       3.130   7.048  18.203  0.00  0.00    +0.000 A 
ENDROOT
TORSDOF 0
ENDMDL
MODEL 4
REMARK VINA RESULT:      -7.3      4.657      5.349
REMARK  Name = 
REMARK  0 active torsions:
REMARK  status: ('A' for Active; 'I' for Inactive)
REMARK                            x       y       z     vdW  Elec       q    Type
REMARK                         _______ _______ _______ _____ _____    ______ ____
ROOT
ATOM      1  O   UNL     1       2.588   8.911  17.393  0.00  0.00    +0.000 OA
ATOM      2  C   UNL     1       2.177   8.470  18.449  0.00  0.00    +0.000 C 
ATOM      3  C   UNL     1       1.325   9.216  19.426  0.00  0.00    +0.000 A 
ATOM      4  C   UNL     1       0.822  10.520  19.386  0.00  0.00    +0.000 A 
ATOM      5  C   UNL     1       0.029  10.958  20.459  0.00  0.00    +0.000 A 
ATOM      6  C   UNL     1      -0.243  10.090  21.532  0.00  0.00    +0.000 A 
ATOM      7  C   UNL     1       0.270   8.779  21.547  0.00  0.00    +0.000 A 
ATOM      8  C   UNL     1       1.062   8.346  20.482  0.00  0.00    +0.000 A 
ATOM      9  C   UNL     1       1.717   7.070  20.208  0.00  0.00    +0.000 A 
ATOM     10  N   UNL     1       1.634   6.041  21.031  0.00  0.00    +0.000 NA
ATOM     11  C   UNL     1       2.341   4.955  20.556  0.00  0.00    +0.000 A 
ATOM     12 CL   UNL     1       2.235   3.626  21.671  0.00  0.00    +0.000 Cl
ATOM     13  C   UNL     1       3.074   4.851  19.357  0.00  0.00    +0.000 A 
ATOM     14  C   UNL     1       3.780   3.560  19.035  0.00  0.00    +0.000 A 
ATOM     15  C   UNL     1       4.563   3.349  17.830  0.00  0.00    +0.000 A 
ATOM     16  C   UNL     1       4.866   4.256  16.660  0.00  0.00    +0.000 A 
ATOM     17  C   UNL     1       4.113   5.652  17.005  0.00  0.00    +0.000 A 
ATOM     18  C   UNL     1       3.198   5.968  18.377  0.00  0.00    +0.000 A 
ATOM     19  C   UNL     1       2.430   7.082  18.959  0.00  0.00    +0.000 A 
ENDROOT
TORSDOF 0
ENDMDL
MODEL 5
REMARK VINA RESULT:      -7.0      6.320      7.551
REMARK  Name = 
REMARK  0 active torsions:
REMARK  status: ('A' for Active; 'I' for Inactive)
REMARK                            x       y       z     vdW  Elec       q    Type
REMARK                         _______ _______ _______ _____ _____    ______ ____
ROOT
ATOM      1  O   UNL     1       2.376   8.932  17.197  0.00  0.00    +0.000 OA
ATOM      2  C   UNL     1       2.156   8.397  18.266  0.00  0.00    +0.000 C 
ATOM      3  C   UNL     1       2.515   6.989  18.620  0.00  0.00    +0.000 A 
ATOM      4  C   UNL     1       3.146   5.994  17.868  0.00  0.00    +0.000 A 
ATOM      5  C   UNL     1       3.366   4.745  18.472  0.00  0.00    +0.000 A 
ATOM      6  C   UNL     1       2.960   4.526  19.801  0.00  0.00    +0.000 A 
ATOM      7  C   UNL     1       2.332   5.546  20.540  0.00  0.00    +0.000 A 
ATOM      8  C   UNL     1       2.109   6.786  19.938  0.00  0.00    +0.000 A 
ATOM      9  C   UNL     1       1.504   8.018  20.433  0.00  0.00    +0.000 A 
ATOM     10  N   UNL     1       1.033   8.131  21.662  0.00  0.00    +0.000 NA
ATOM     11  C   UNL     1       0.507   9.387  21.889  0.00  0.00    +0.000 A 
ATOM     12 CL   UNL     1      -0.126   9.497  23.504  0.00  0.00    +0.000 Cl
ATOM     13  C   UNL     1       0.445  10.478  21.000  0.00  0.00    +0.000 A 
ATOM     14  C   UNL     1      -0.182  11.768  21.459  0.00  0.00    +0.000 A 
ATOM     15  C   UNL     1      -0.298  12.950  20.622  0.00  0.00    +0.000 A 
ATOM     16  C   UNL     1       0.134  13.217  19.200  0.00  0.00    +0.000 A 
ATOM     17  C   UNL     1       0.806  11.827  18.697  0.00  0.00    +0.000 A 
ATOM     18  C   UNL     1       0.969  10.424  19.605  0.00  0.00    +0.000 A 
ATOM     19  C   UNL     1       1.499   9.060  19.441  0.00  0.00    +0.000 A 
ENDROOT
TORSDOF 0
ENDMDL
MODEL 6
REMARK VINA RESULT:      -6.9      5.138      5.756
REMARK  Name = 
REMARK  0 active torsions:
REMARK  status: ('A' for Active; 'I' for Inactive)
REMARK                            x       y       z     vdW  Elec       q    Type
REMARK                         _______ _______ _______ _____ _____    ______ ____
ROOT
ATOM      1  O   UNL     1       2.104   9.975  17.991  0.00  0.00    +0.000 OA
ATOM      2  C   UNL     1       1.751   9.325  18.955  0.00  0.00    +0.000 C 
ATOM      3  C   UNL     1       0.855   9.813  20.048  0.00  0.00    +0.000 A 
ATOM      4  C   UNL     1       0.241  11.055  20.235  0.00  0.00    +0.000 A 
ATOM      5  C   UNL     1      -0.569  11.231  21.370  0.00  0.00    +0.000 A 
ATOM      6  C   UNL     1      -0.748  10.170  22.276  0.00  0.00    +0.000 A 
ATOM      7  C   UNL     1      -0.123   8.926  22.063  0.00  0.00    +0.000 A 
ATOM      8  C   UNL     1       0.685   8.754  20.938  0.00  0.00    +0.000 A 
ATOM      9  C   UNL     1       1.443   7.608  20.445  0.00  0.00    +0.000 A 
ATOM     10  N   UNL     1       1.463   6.448  21.078  0.00  0.00    +0.000 NA
ATOM     11  C   UNL     1       2.253   5.527  20.421  0.00  0.00    +0.000 A 
ATOM     12 CL   UNL     1       2.281   4.022  21.289  0.00  0.00    +0.000 Cl
ATOM     13  C   UNL     1       2.972   5.696  19.221  0.00  0.00    +0.000 A 
ATOM     14  C   UNL     1       3.780   4.547  18.679  0.00  0.00    +0.000 A 
ATOM     15  C   UNL     1       4.558   4.617  17.454  0.00  0.00    +0.000 A 
ATOM     16  C   UNL     1       4.762   5.735  16.459  0.00  0.00    +0.000 A 
ATOM     17  C   UNL     1       3.897   6.979  17.042  0.00  0.00    +0.000 A 
ATOM     18  C   UNL     1       2.982   6.972  18.449  0.00  0.00    +0.000 A 
ATOM     19  C   UNL     1       2.131   7.897  19.216  0.00  0.00    +0.000 A 
ENDROOT
TORSDOF 0
ENDMDL
MODEL 7
REMARK VINA RESULT:      -6.9      4.675      6.124
REMARK  Name = 
REMARK  0 active torsions:
REMARK  status: ('A' for Active; 'I' for Inactive)
REMARK                            x       y       z     vdW  Elec       q    Type
REMARK                         _______ _______ _______ _____ _____    ______ ____
ROOT
ATOM      1  O   UNL     1       0.719   7.540  21.729  0.00  0.00    +0.000 OA
ATOM      2  C   UNL     1       1.254   7.781  20.665  0.00  0.00    +0.000 C 
ATOM      3  C   UNL     1       1.214   9.095  19.953  0.00  0.00    +0.000 A 
ATOM      4  C   UNL     1       0.591  10.298  20.298  0.00  0.00    +0.000 A 
ATOM      5  C   UNL     1       0.732  11.392  19.427  0.00  0.00    +0.000 A 
ATOM      6  C   UNL     1       1.489  11.258  18.248  0.00  0.00    +0.000 A 
ATOM      7  C   UNL     1       2.111  10.038  17.925  0.00  0.00    +0.000 A 
ATOM      8  C   UNL     1       1.967   8.950  18.789  0.00  0.00    +0.000 A 
ATOM      9  C   UNL     1       2.486   7.587  18.739  0.00  0.00    +0.000 A 
ATOM     10  N   UNL     1       3.250   7.156  17.751  0.00  0.00    +0.000 NA
ATOM     11  C   UNL     1       3.607   5.835  17.926  0.00  0.00    +0.000 A 
ATOM     12 CL   UNL     1       4.589   5.290  16.599  0.00  0.00    +0.000 Cl
ATOM     13  C   UNL     1       3.267   4.975  18.989  0.00  0.00    +0.000 A 
ATOM     14  C   UNL     1       3.767   3.555  18.977  0.00  0.00    +0.000 A 
ATOM     15  C   UNL     1       3.473   2.588  20.020  0.00  0.00    +0.000 A 
ATOM     16  C   UNL     1       2.673   2.703  21.297  0.00  0.00    +0.000 A 
ATOM     17  C   UNL     1       2.126   4.232  21.313  0.00  0.00    +0.000 A 
ATOM     18  C   UNL     1       2.421   5.399  20.142  0.00  0.00    +0.000 A 
ATOM     19  C   UNL     1       2.077   6.806  19.875  0.00  0.00    +0.000 A 
ENDROOT
TORSDOF 0
ENDMDL
MODEL 8
REMARK VINA RESULT:      -6.7      4.825      6.885
REMARK  Name = 
REMARK  0 active torsions:
REMARK  status: ('A' for Active; 'I' for Inactive)
REMARK                            x       y       z     vdW  Elec       q    Type
REMARK                         _______ _______ _______ _____ _____    ______ ____
ROOT
ATOM      1  O   UNL     1       1.854   5.163  21.067  0.00  0.00    +0.000 OA
ATOM      2  C   UNL     1       2.272   5.791  20.114  0.00  0.00    +0.000 C 
ATOM      3  C   UNL     1       3.138   5.239  19.026  0.00  0.00    +0.000 A 
ATOM      4  C   UNL     1       3.658   3.955  18.840  0.00  0.00    +0.000 A 
ATOM      5  C   UNL     1       4.446   3.718  17.701  0.00  0.00    +0.000 A 
ATOM      6  C   UNL     1       4.688   4.757  16.784  0.00  0.00    +0.000 A 
ATOM      7  C   UNL     1       4.148   6.041  16.991  0.00  0.00    +0.000 A 
ATOM      8  C   UNL     1       3.368   6.277  18.125  0.00  0.00    +0.000 A 
ATOM      9  C   UNL     1       2.677   7.470  18.604  0.00  0.00    +0.000 A 
ATOM     10  N   UNL     1       2.704   8.616  17.946  0.00  0.00    +0.000 NA
ATOM     11  C   UNL     1       1.983   9.592  18.602  0.00  0.00    +0.000 A 
ATOM     12 CL   UNL     1       2.058  11.093  17.727  0.00  0.00    +0.000 Cl
ATOM     13  C   UNL     1       1.264   9.481  19.809  0.00  0.00    +0.000 A 
ATOM     14  C   UNL     1       0.544  10.688  20.351  0.00  0.00    +0.000 A 
ATOM     15  C   UNL     1      -0.221  10.682  21.586  0.00  0.00    +0.000 A 
ATOM     16  C   UNL     1      -0.504   9.583  22.584  0.00  0.00    +0.000 A 
ATOM     17  C   UNL     1       0.274   8.281  22.006  0.00  0.00    +0.000 A 
ATOM     18  C   UNL     1       1.180   8.217  20.594  0.00  0.00    +0.000 A 
ATOM     19  C   UNL     1       1.977   7.236  19.838  0.00  0.00    +0.000 A 
ENDROOT
TORSDOF 0
ENDMDL
MODEL 9
REMARK VINA RESULT:      -6.5      5.039      6.075
REMARK  Name = 
REMARK  0 active torsions:
REMARK  status: ('A' for Active; 'I' for Inactive)
REMARK                            x       y       z     vdW  Elec       q    Type
REMARK                         _______ _______ _______ _____ _____    ______ ____
ROOT
ATOM      1  O   UNL     1       3.606   6.551  17.540  0.00  0.00    +0.000 OA
ATOM      2  C   UNL     1       3.004   6.320  18.570  0.00  0.00    +0.000 C 
ATOM      3  C   UNL     1       2.969   5.001  19.276  0.00  0.00    +0.000 A 
ATOM      4  C   UNL     1       3.570   3.781  18.955  0.00  0.00    +0.000 A 
ATOM      5  C   UNL     1       3.367   2.694  19.821  0.00  0.00    +0.000 A 
ATOM      6  C   UNL     1       2.582   2.853  20.977  0.00  0.00    +0.000 A 
ATOM      7  C   UNL     1       1.992   4.094  21.283  0.00  0.00    +0.000 A 
ATOM      8  C   UNL     1       2.189   5.173  20.419  0.00  0.00    +0.000 A 
ATOM      9  C   UNL     1       1.729   6.558  20.463  0.00  0.00    +0.000 A 
ATOM     10  N   UNL     1       0.976   7.022  21.445  0.00  0.00    +0.000 NA
ATOM     11  C   UNL     1       0.667   8.354  21.259  0.00  0.00    +0.000 A 
ATOM     12 CL   UNL     1      -0.344   8.928  22.550  0.00  0.00    +0.000 Cl
ATOM     13  C   UNL     1       1.065   9.201  20.205  0.00  0.00    +0.000 A 
ATOM     14  C   UNL     1       0.604  10.634  20.198  0.00  0.00    +0.000 A 
ATOM     15  C   UNL     1       0.954  11.588  19.160  0.00  0.00    +0.000 A 
ATOM     16  C   UNL     1       1.799  11.449  17.915  0.00  0.00    +0.000 A 
ATOM     17  C   UNL     1       2.293   9.902  17.913  0.00  0.00    +0.000 A 
ATOM     18  C   UNL     1       1.924   8.747  19.074  0.00  0.00    +0.000 A 
ATOM     19  C   UNL     1       2.199   7.324  19.341  0.00  0.00    +0.000 A 
ENDROOT
TORSDOF 0
ENDMDL
