MODEL 1
REMARK VINA RESULT:      -7.2      0.000      0.000
REMARK  Name = 
REMARK  3 active torsions:
REMARK  status: ('A' for Active; 'I' for Inactive)
REMARK    1  A    between atoms: C_1  and  C_2
REMARK    2  A    between atoms: C_2  and  C_4
REMARK    3  A    between atoms: N_8  and  C_9
REMARK                            x       y       z     vdW  Elec       q    Type
REMARK                         _______ _______ _______ _____ _____    ______ ____
ROOT
ATOM      1  C   UNL     1       6.410   4.560  15.166  0.00  0.00    +0.000 A 
ATOM      2  C   UNL     1       5.160   4.002  15.310  0.00  0.00    +0.000 A 
ATOM      3  N   UNL     1       4.682   3.950  16.593  0.00  0.00    +0.000 NA
ATOM      4  C   UNL     1       5.536   4.474  17.443  0.00  0.00    +0.000 A 
ATOM      5  N   UNL     1       5.323   4.669  18.770  0.00  0.00    +0.000 N 
ATOM      6  S   UNL     1       7.021   4.978  16.713  0.00  0.00    +0.000 S 
ATOM      7  H   UNL     1       6.049   5.167  19.278  0.00  0.00    +0.000 HD
ENDROOT
BRANCH   5   8
ATOM      8  C   UNL     1       4.042   4.811  19.374  0.00  0.00    +0.000 A 
ATOM      9  C   UNL     1       3.338   6.029  19.345  0.00  0.00    +0.000 A 
ATOM     10  C   UNL     1       2.143   6.202  20.043  0.00  0.00    +0.000 A 
ATOM     11  C   UNL     1       1.600   5.142  20.756  0.00  0.00    +0.000 A 
ATOM     12  C   UNL     1       2.240   3.899  20.754  0.00  0.00    +0.000 A 
ATOM     13 CL   UNL     1       1.489   2.623  21.648  0.00  0.00    +0.000 Cl
ATOM     14  C   UNL     1       3.453   3.728  20.064  0.00  0.00    +0.000 A 
ATOM     15 CL   UNL     1       4.271   2.193  20.067  0.00  0.00    +0.000 Cl
ENDBRANCH   5   8
BRANCH   1  17
ATOM     16  C   UNL     1       6.755   4.000  12.740  0.00  0.00    +0.000 C 
ATOM     17  C   UNL     1       7.167   4.804  13.955  0.00  0.00    +0.000 C 
ATOM     18  O   UNL     1       8.082   5.621  13.865  0.00  0.00    +0.000 OA
ENDBRANCH   1  17
TORSDOF 2
ENDMDL
MODEL 2
REMARK VINA RESULT:      -6.3      1.804      1.922
REMARK  Name = 
REMARK  3 active torsions:
REMARK  status: ('A' for Active; 'I' for Inactive)
REMARK    1  A    between atoms: C_1  and  C_2
REMARK    2  A    between atoms: C_2  and  C_4
REMARK    3  A    between atoms: N_8  and  C_9
REMARK                            x       y       z     vdW  Elec       q    Type
REMARK                         _______ _______ _______ _____ _____    ______ ____
ROOT
ATOM      1  C   UNL     1       6.256   5.022  15.504  0.00  0.00    +0.000 A 
ATOM      2  C   UNL     1       6.254   4.219  16.622  0.00  0.00    +0.000 A 
ATOM      3  N   UNL     1       5.345   4.555  17.589  0.00  0.00    +0.000 NA
ATOM      4  C   UNL     1       4.629   5.598  17.230  0.00  0.00    +0.000 A 
ATOM      5  N   UNL     1       3.577   6.117  17.916  0.00  0.00    +0.000 N 
ATOM      6  S   UNL     1       5.106   6.277  15.713  0.00  0.00    +0.000 S 
ATOM      7  H   UNL     1       3.070   6.873  17.462  0.00  0.00    +0.000 HD
ENDROOT
BRANCH   5   8
ATOM      8  C   UNL     1       2.767   5.391  18.832  0.00  0.00    +0.000 A 
ATOM      9  C   UNL     1       2.656   5.765  20.184  0.00  0.00    +0.000 A 
ATOM     10  C   UNL     1       1.964   4.982  21.108  0.00  0.00    +0.000 A 
ATOM     11  C   UNL     1       1.328   3.821  20.689  0.00  0.00    +0.000 A 
ATOM     12  C   UNL     1       1.364   3.453  19.342  0.00  0.00    +0.000 A 
ATOM     13 CL   UNL     1       0.529   2.006  18.896  0.00  0.00    +0.000 Cl
ATOM     14  C   UNL     1       2.075   4.233  18.413  0.00  0.00    +0.000 A 
ATOM     15 CL   UNL     1       2.145   3.779  16.735  0.00  0.00    +0.000 Cl
ENDBRANCH   5   8
BRANCH   1  17
ATOM     16  C   UNL     1       6.544   3.930  13.260  0.00  0.00    +0.000 C 
ATOM     17  C   UNL     1       7.050   4.907  14.298  0.00  0.00    +0.000 C 
ATOM     18  O   UNL     1       8.068   5.562  14.077  0.00  0.00    +0.000 OA
ENDBRANCH   1  17
TORSDOF 2
ENDMDL
MODEL 3
REMARK VINA RESULT:      -6.3      1.624      1.764
REMARK  Name = 
REMARK  3 active torsions:
REMARK  status: ('A' for Active; 'I' for Inactive)
REMARK    1  A    between atoms: C_1  and  C_2
REMARK    2  A    between atoms: C_2  and  C_4
REMARK    3  A    between atoms: N_8  and  C_9
REMARK                            x       y       z     vdW  Elec       q    Type
REMARK                         _______ _______ _______ _____ _____    ______ ____
ROOT
ATOM      1  C   UNL     1       6.344   4.684  14.735  0.00  0.00    +0.000 A 
ATOM      2  C   UNL     1       6.224   3.595  15.568  0.00  0.00    +0.000 A 
ATOM      3  N   UNL     1       5.357   3.747  16.617  0.00  0.00    +0.000 NA
ATOM      4  C   UNL     1       4.790   4.933  16.600  0.00  0.00    +0.000 A 
ATOM      5  N   UNL     1       3.809   5.360  17.437  0.00  0.00    +0.000 N 
ATOM      6  S   UNL     1       5.368   5.961  15.335  0.00  0.00    +0.000 S 
ATOM      7  H   UNL     1       3.410   6.274  17.240  0.00  0.00    +0.000 HD
ENDROOT
BRANCH   5   8
ATOM      8  C   UNL     1       2.900   4.507  18.124  0.00  0.00    +0.000 A 
ATOM      9  C   UNL     1       1.633   4.193  17.596  0.00  0.00    +0.000 A 
ATOM     10  C   UNL     1       0.696   3.461  18.325  0.00  0.00    +0.000 A 
ATOM     11  C   UNL     1       1.021   2.988  19.590  0.00  0.00    +0.000 A 
ATOM     12  C   UNL     1       2.292   3.228  20.118  0.00  0.00    +0.000 A 
ATOM     13 CL   UNL     1       2.627   2.587  21.689  0.00  0.00    +0.000 Cl
ATOM     14  C   UNL     1       3.232   3.979  19.391  0.00  0.00    +0.000 A 
ATOM     15 CL   UNL     1       4.813   4.301  20.042  0.00  0.00    +0.000 Cl
ENDBRANCH   5   8
BRANCH   1  17
ATOM     16  C   UNL     1       6.723   3.949  12.362  0.00  0.00    +0.000 C 
ATOM     17  C   UNL     1       7.129   4.827  13.525  0.00  0.00    +0.000 C 
ATOM     18  O   UNL     1       8.063   5.618  13.398  0.00  0.00    +0.000 OA
ENDBRANCH   1  17
TORSDOF 2
ENDMDL
MODEL 4
REMARK VINA RESULT:      -6.2      1.596      2.018
REMARK  Name = 
REMARK  3 active torsions:
REMARK  status: ('A' for Active; 'I' for Inactive)
REMARK    1  A    between atoms: C_1  and  C_2
REMARK    2  A    between atoms: C_2  and  C_4
REMARK    3  A    between atoms: N_8  and  C_9
REMARK                            x       y       z     vdW  Elec       q    Type
REMARK                         _______ _______ _______ _____ _____    ______ ____
ROOT
ATOM      1  C   UNL     1       6.326   4.301  15.313  0.00  0.00    +0.000 A 
ATOM      2  C   UNL     1       5.084   3.726  15.462  0.00  0.00    +0.000 A 
ATOM      3  N   UNL     1       4.704   3.470  16.752  0.00  0.00    +0.000 NA
ATOM      4  C   UNL     1       5.626   3.852  17.607  0.00  0.00    +0.000 A 
ATOM      5  N   UNL     1       5.515   3.832  18.961  0.00  0.00    +0.000 N 
ATOM      6  S   UNL     1       7.056   4.468  16.856  0.00  0.00    +0.000 S 
ATOM      7  H   UNL     1       6.283   4.244  19.485  0.00  0.00    +0.000 HD
ENDROOT
BRANCH   5   8
ATOM      8  C   UNL     1       4.285   3.875  19.676  0.00  0.00    +0.000 A 
ATOM      9  C   UNL     1       3.721   2.722  20.252  0.00  0.00    +0.000 A 
ATOM     10  C   UNL     1       2.457   2.740  20.843  0.00  0.00    +0.000 A 
ATOM     11  C   UNL     1       1.742   3.928  20.907  0.00  0.00    +0.000 A 
ATOM     12  C   UNL     1       2.299   5.105  20.401  0.00  0.00    +0.000 A 
ATOM     13 CL   UNL     1       1.356   6.548  20.539  0.00  0.00    +0.000 Cl
ATOM     14  C   UNL     1       3.567   5.085  19.792  0.00  0.00    +0.000 A 
ATOM     15 CL   UNL     1       4.266   6.539  19.141  0.00  0.00    +0.000 Cl
ENDBRANCH   5   8
BRANCH   1  17
ATOM     16  C   UNL     1       6.543   4.069  12.820  0.00  0.00    +0.000 C 
ATOM     17  C   UNL     1       6.992   4.736  14.102  0.00  0.00    +0.000 C 
ATOM     18  O   UNL     1       7.859   5.608  14.066  0.00  0.00    +0.000 OA
ENDBRANCH   1  17
TORSDOF 2
ENDMDL
MODEL 5
REMARK VINA RESULT:      -6.1      4.593      6.506
REMARK  Name = 
REMARK  3 active torsions:
REMARK  status: ('A' for Active; 'I' for Inactive)
REMARK    1  A    between atoms: C_1  and  C_2
REMARK    2  A    between atoms: C_2  and  C_4
REMARK    3  A    between atoms: N_8  and  C_9
REMARK                            x       y       z     vdW  Elec       q    Type
REMARK                         _______ _______ _______ _____ _____    ______ ____
ROOT
ATOM      1  C   UNL     1       0.764   9.712  19.108  0.00  0.00    +0.000 A 
ATOM      2  C   UNL     1       1.478   9.239  18.031  0.00  0.00    +0.000 A 
ATOM      3  N   UNL     1       2.258   8.140  18.276  0.00  0.00    +0.000 NA
ATOM      4  C   UNL     1       2.147   7.744  19.524  0.00  0.00    +0.000 A 
ATOM      5  N   UNL     1       2.707   6.627  20.059  0.00  0.00    +0.000 N 
ATOM      6  S   UNL     1       1.140   8.766  20.489  0.00  0.00    +0.000 S 
ATOM      7  H   UNL     1       2.455   6.410  21.019  0.00  0.00    +0.000 HD
ENDROOT
BRANCH   5   8
ATOM      8  C   UNL     1       3.077   5.470  19.318  0.00  0.00    +0.000 A 
ATOM      9  C   UNL     1       4.210   5.453  18.484  0.00  0.00    +0.000 A 
ATOM     10  C   UNL     1       4.500   4.363  17.664  0.00  0.00    +0.000 A 
ATOM     11  C   UNL     1       3.682   3.241  17.691  0.00  0.00    +0.000 A 
ATOM     12  C   UNL     1       2.585   3.199  18.554  0.00  0.00    +0.000 A 
ATOM     13 CL   UNL     1       1.628   1.758  18.545  0.00  0.00    +0.000 Cl
ATOM     14  C   UNL     1       2.282   4.304  19.370  0.00  0.00    +0.000 A 
ATOM     15 CL   UNL     1       0.909   4.274  20.437  0.00  0.00    +0.000 Cl
ENDBRANCH   5   8
BRANCH   1  17
ATOM     16  C   UNL     1      -1.439  10.651  18.350  0.00  0.00    +0.000 C 
ATOM     17  C   UNL     1      -0.177  10.811  19.170  0.00  0.00    +0.000 C 
ATOM     18  O   UNL     1      -0.015  11.822  19.852  0.00  0.00    +0.000 OA
ENDBRANCH   1  17
TORSDOF 2
ENDMDL
MODEL 6
REMARK VINA RESULT:      -5.9      5.146      6.400
REMARK  Name = 
REMARK  3 active torsions:
REMARK  status: ('A' for Active; 'I' for Inactive)
REMARK    1  A    between atoms: C_1  and  C_2
REMARK    2  A    between atoms: C_2  and  C_4
REMARK    3  A    between atoms: N_8  and  C_9
REMARK                            x       y       z     vdW  Elec       q    Type
REMARK                         _______ _______ _______ _____ _____    ______ ____
ROOT
ATOM      1  C   UNL     1       1.830   3.804  19.327  0.00  0.00    +0.000 A 
ATOM      2  C   UNL     1       1.111   4.209  20.428  0.00  0.00    +0.000 A 
ATOM      3  N   UNL     1       1.265   5.523  20.782  0.00  0.00    +0.000 NA
ATOM      4  C   UNL     1       2.080   6.147  19.962  0.00  0.00    +0.000 A 
ATOM      5  N   UNL     1       2.362   7.476  19.974  0.00  0.00    +0.000 N 
ATOM      6  S   UNL     1       2.775   5.117  18.758  0.00  0.00    +0.000 S 
ATOM      7  H   UNL     1       2.945   7.823  19.217  0.00  0.00    +0.000 HD
ENDROOT
BRANCH   5   8
ATOM      8  C   UNL     1       1.508   8.481  20.508  0.00  0.00    +0.000 A 
ATOM      9  C   UNL     1       1.257   8.586  21.888  0.00  0.00    +0.000 A 
ATOM     10  C   UNL     1       0.325   9.491  22.398  0.00  0.00    +0.000 A 
ATOM     11  C   UNL     1      -0.351  10.344  21.536  0.00  0.00    +0.000 A 
ATOM     12  C   UNL     1      -0.080  10.311  20.166  0.00  0.00    +0.000 A 
ATOM     13 CL   UNL     1      -0.946  11.420  19.162  0.00  0.00    +0.000 Cl
ATOM     14  C   UNL     1       0.849   9.389  19.650  0.00  0.00    +0.000 A 
ATOM     15 CL   UNL     1       1.185   9.322  17.944  0.00  0.00    +0.000 Cl
ENDBRANCH   5   8
BRANCH   1  17
ATOM     16  C   UNL     1       3.206   1.850  18.551  0.00  0.00    +0.000 C 
ATOM     17  C   UNL     1       1.850   2.510  18.674  0.00  0.00    +0.000 C 
ATOM     18  O   UNL     1       0.849   1.934  18.251  0.00  0.00    +0.000 OA
ENDBRANCH   1  17
TORSDOF 2
ENDMDL
MODEL 7
REMARK VINA RESULT:      -5.9      4.860      6.882
REMARK  Name = 
REMARK  3 active torsions:
REMARK  status: ('A' for Active; 'I' for Inactive)
REMARK    1  A    between atoms: C_1  and  C_2
REMARK    2  A    between atoms: C_2  and  C_4
REMARK    3  A    between atoms: N_8  and  C_9
REMARK                            x       y       z     vdW  Elec       q    Type
REMARK                         _______ _______ _______ _____ _____    ______ ____
ROOT
ATOM      1  C   UNL     1       0.876   9.795  19.416  0.00  0.00    +0.000 A 
ATOM      2  C   UNL     1       1.286   9.371  18.172  0.00  0.00    +0.000 A 
ATOM      3  N   UNL     1       1.990   8.196  18.151  0.00  0.00    +0.000 NA
ATOM      4  C   UNL     1       2.118   7.694  19.359  0.00  0.00    +0.000 A 
ATOM      5  N   UNL     1       2.670   6.492  19.668  0.00  0.00    +0.000 N 
ATOM      6  S   UNL     1       1.452   8.697  20.601  0.00  0.00    +0.000 S 
ATOM      7  H   UNL     1       2.615   6.206  20.642  0.00  0.00    +0.000 HD
ENDROOT
BRANCH   5   8
ATOM      8  C   UNL     1       2.754   5.384  18.780  0.00  0.00    +0.000 A 
ATOM      9  C   UNL     1       1.759   4.391  18.735  0.00  0.00    +0.000 A 
ATOM     10  C   UNL     1       1.902   3.243  17.955  0.00  0.00    +0.000 A 
ATOM     11  C   UNL     1       3.033   3.081  17.166  0.00  0.00    +0.000 A 
ATOM     12  C   UNL     1       4.011   4.078  17.137  0.00  0.00    +0.000 A 
ATOM     13 CL   UNL     1       5.378   3.813  16.112  0.00  0.00    +0.000 Cl
ATOM     14  C   UNL     1       3.875   5.229  17.935  0.00  0.00    +0.000 A 
ATOM     15 CL   UNL     1       5.093   6.470  17.924  0.00  0.00    +0.000 Cl
ENDBRANCH   5   8
BRANCH   1  17
ATOM     16  C   UNL     1      -1.243  11.096  19.054  0.00  0.00    +0.000 C 
ATOM     17  C   UNL     1       0.083  10.954  19.771  0.00  0.00    +0.000 C 
ATOM     18  O   UNL     1       0.414  11.785  20.615  0.00  0.00    +0.000 OA
ENDBRANCH   1  17
TORSDOF 2
ENDMDL
MODEL 8
REMARK VINA RESULT:      -5.7      5.111      6.506
REMARK  Name = 
REMARK  3 active torsions:
REMARK  status: ('A' for Active; 'I' for Inactive)
REMARK    1  A    between atoms: C_1  and  C_2
REMARK    2  A    between atoms: C_2  and  C_4
REMARK    3  A    between atoms: N_8  and  C_9
REMARK                            x       y       z     vdW  Elec       q    Type
REMARK                         _______ _______ _______ _____ _____    ______ ____
ROOT
ATOM      1  C   UNL     1       1.159   9.730  19.536  0.00  0.00    +0.000 A 
ATOM      2  C   UNL     1       1.633   8.929  18.522  0.00  0.00    +0.000 A 
ATOM      3  N   UNL     1       2.034   7.675  18.899  0.00  0.00    +0.000 NA
ATOM      4  C   UNL     1       1.863   7.486  20.188  0.00  0.00    +0.000 A 
ATOM      5  N   UNL     1       2.064   6.320  20.856  0.00  0.00    +0.000 N 
ATOM      6  S   UNL     1       1.281   8.884  21.023  0.00  0.00    +0.000 S 
ATOM      7  H   UNL     1       1.803   6.310  21.839  0.00  0.00    +0.000 HD
ENDROOT
BRANCH   5   8
ATOM      8  C   UNL     1       2.011   5.027  20.266  0.00  0.00    +0.000 A 
ATOM      9  C   UNL     1       0.846   4.238  20.306  0.00  0.00    +0.000 A 
ATOM     10  C   UNL     1       0.833   2.924  19.839  0.00  0.00    +0.000 A 
ATOM     11  C   UNL     1       1.980   2.378  19.280  0.00  0.00    +0.000 A 
ATOM     12  C   UNL     1       3.137   3.154  19.166  0.00  0.00    +0.000 A 
ATOM     13 CL   UNL     1       4.517   2.409  18.437  0.00  0.00    +0.000 Cl
ATOM     14  C   UNL     1       3.156   4.474  19.651  0.00  0.00    +0.000 A 
ATOM     15 CL   UNL     1       4.594   5.446  19.533  0.00  0.00    +0.000 Cl
ENDBRANCH   5   8
BRANCH   1  17
ATOM     16  C   UNL     1       1.481  12.097  18.758  0.00  0.00    +0.000 C 
ATOM     17  C   UNL     1       0.620  11.073  19.465  0.00  0.00    +0.000 C 
ATOM     18  O   UNL     1      -0.476  11.402  19.915  0.00  0.00    +0.000 OA
ENDBRANCH   1  17
TORSDOF 2
ENDMDL
MODEL 9
REMARK VINA RESULT:      -5.7      5.141      7.246
REMARK  Name = 
REMARK  3 active torsions:
REMARK  status: ('A' for Active; 'I' for Inactive)
REMARK    1  A    between atoms: C_1  and  C_2
REMARK    2  A    between atoms: C_2  and  C_4
REMARK    3  A    between atoms: N_8  and  C_9
REMARK                            x       y       z     vdW  Elec       q    Type
REMARK                         _______ _______ _______ _____ _____    ______ ____
ROOT
ATOM      1  C   UNL     1       0.738   9.967  20.626  0.00  0.00    +0.000 A 
ATOM      2  C   UNL     1       0.979   9.440  19.377  0.00  0.00    +0.000 A 
ATOM      3  N   UNL     1       1.520   8.183  19.362  0.00  0.00    +0.000 NA
ATOM      4  C   UNL     1       1.688   7.720  20.580  0.00  0.00    +0.000 A 
ATOM      5  N   UNL     1       2.105   6.469  20.908  0.00  0.00    +0.000 N 
ATOM      6  S   UNL     1       1.270   8.854  21.817  0.00  0.00    +0.000 S 
ATOM      7  H   UNL     1       2.100   6.234  21.897  0.00  0.00    +0.000 HD
ENDROOT
BRANCH   5   8
ATOM      8  C   UNL     1       1.966   5.323  20.076  0.00  0.00    +0.000 A 
ATOM      9  C   UNL     1       0.901   4.417  20.231  0.00  0.00    +0.000 A 
ATOM     10  C   UNL     1       0.834   3.231  19.500  0.00  0.00    +0.000 A 
ATOM     11  C   UNL     1       1.815   2.942  18.562  0.00  0.00    +0.000 A 
ATOM     12  C   UNL     1       2.854   3.849  18.337  0.00  0.00    +0.000 A 
ATOM     13 CL   UNL     1       4.025   3.426  17.137  0.00  0.00    +0.000 Cl
ATOM     14  C   UNL     1       2.931   5.038  19.084  0.00  0.00    +0.000 A 
ATOM     15 CL   UNL     1       4.228   6.169  18.829  0.00  0.00    +0.000 Cl
ENDBRANCH   5   8
BRANCH   1  17
ATOM     16  C   UNL     1      -0.626  11.266  22.289  0.00  0.00    +0.000 C 
ATOM     17  C   UNL     1       0.136  11.236  20.982  0.00  0.00    +0.000 C 
ATOM     18  O   UNL     1       0.232  12.260  20.307  0.00  0.00    +0.000 OA
ENDBRANCH   1  17
TORSDOF 2
ENDMDL
