MODEL 1
REMARK VINA RESULT:      -6.9      0.000      0.000
REMARK  Name = 
REMARK  6 active torsions:
REMARK  status: ('A' for Active; 'I' for Inactive)
REMARK    1  A    between atoms: C_1  and  C_2
REMARK    2  A    between atoms: C_5  and  C_6
REMARK    3  A    between atoms: C_6  and  N_7
REMARK    4  A    between atoms: C_8  and  C_10
REMARK    5  A    between atoms: N_12  and  C_13
REMARK    6  A    between atoms: C_17  and  C_18
REMARK                            x       y       z     vdW  Elec       q    Type
REMARK                         _______ _______ _______ _____ _____    ______ ____
ROOT
ATOM      1  C   UNL     1       2.502   5.560  19.607  0.00  0.00    +0.000 C 
ATOM      2  O   UNL     1       1.478   5.120  20.118  0.00  0.00    +0.000 OA
ATOM      3  N   UNL     1       2.802   6.865  19.262  0.00  0.00    +0.000 N 
ATOM      4  H   UNL     1       3.672   6.988  18.748  0.00  0.00    +0.000 HD
ENDROOT
BRANCH   3   5
ATOM      5  C   UNL     1       1.950   7.976  19.434  0.00  0.00    +0.000 A 
ATOM      6  C   UNL     1       1.575   8.810  18.376  0.00  0.00    +0.000 A 
ATOM      7  C   UNL     1       0.784   9.938  18.596  0.00  0.00    +0.000 A 
ATOM      8  C   UNL     1       0.361  10.249  19.884  0.00  0.00    +0.000 A 
ATOM      9  C   UNL     1       0.706   9.413  20.949  0.00  0.00    +0.000 A 
ATOM     10  C   UNL     1       1.482   8.265  20.721  0.00  0.00    +0.000 A 
BRANCH   9  11
ATOM     11  C   UNL     1       0.291   9.752  22.279  0.00  0.00    +0.000 C 
ATOM     12  N   UNL     1      -0.056  10.032  23.350  0.00  0.00    +0.000 NA
ENDBRANCH   9  11
ENDBRANCH   3   5
BRANCH   1  14
ATOM     13  N   UNL     1       4.862   5.107  19.248  0.00  0.00    +0.000 N 
ATOM     14  C   UNL     1       3.605   4.548  19.236  0.00  0.00    +0.000 C 
ATOM     15  O   UNL     1       3.317   3.388  18.977  0.00  0.00    +0.000 OA
ATOM     16  H   UNL     1       4.912   6.096  19.475  0.00  0.00    +0.000 HD
BRANCH  13  17
ATOM     17  C   UNL     1       6.059   4.406  18.867  0.00  0.00    +0.000 C 
BRANCH  17  22
ATOM     18  C   UNL     1       6.588   4.578  13.576  0.00  0.00    +0.000 C 
ATOM     19  C   UNL     1       6.647   4.834  15.042  0.00  0.00    +0.000 A 
ATOM     20  N   UNL     1       7.333   5.810  15.597  0.00  0.00    +0.000 NA
ATOM     21  C   UNL     1       7.183   5.763  16.969  0.00  0.00    +0.000 A 
ATOM     22  C   UNL     1       6.386   4.745  17.454  0.00  0.00    +0.000 A 
ATOM     23  S   UNL     1       5.787   3.822  16.135  0.00  0.00    +0.000 S 
ENDBRANCH  17  22
ENDBRANCH  13  17
ENDBRANCH   1  14
TORSDOF 5
ENDMDL
MODEL 2
REMARK VINA RESULT:      -6.8      2.686      7.548
REMARK  Name = 
REMARK  6 active torsions:
REMARK  status: ('A' for Active; 'I' for Inactive)
REMARK    1  A    between atoms: C_1  and  C_2
REMARK    2  A    between atoms: C_5  and  C_6
REMARK    3  A    between atoms: C_6  and  N_7
REMARK    4  A    between atoms: C_8  and  C_10
REMARK    5  A    between atoms: N_12  and  C_13
REMARK    6  A    between atoms: C_17  and  C_18
REMARK                            x       y       z     vdW  Elec       q    Type
REMARK                         _______ _______ _______ _____ _____    ______ ____
ROOT
ATOM      1  C   UNL     1       3.237   4.772  19.679  0.00  0.00    +0.000 C 
ATOM      2  O   UNL     1       3.422   3.598  19.981  0.00  0.00    +0.000 OA
ATOM      3  N   UNL     1       3.997   5.581  18.856  0.00  0.00    +0.000 N 
ATOM      4  H   UNL     1       3.718   6.560  18.832  0.00  0.00    +0.000 HD
ENDROOT
BRANCH   3   5
ATOM      5  C   UNL     1       5.179   5.195  18.190  0.00  0.00    +0.000 A 
ATOM      6  C   UNL     1       6.439   5.254  18.793  0.00  0.00    +0.000 A 
ATOM      7  C   UNL     1       7.593   4.926  18.079  0.00  0.00    +0.000 A 
ATOM      8  C   UNL     1       7.499   4.538  16.747  0.00  0.00    +0.000 A 
ATOM      9  C   UNL     1       6.245   4.449  16.136  0.00  0.00    +0.000 A 
ATOM     10  C   UNL     1       5.084   4.757  16.863  0.00  0.00    +0.000 A 
BRANCH   9  11
ATOM     11  C   UNL     1       6.155   4.076  14.756  0.00  0.00    +0.000 C 
ATOM     12  N   UNL     1       6.092   3.764  13.640  0.00  0.00    +0.000 NA
ENDBRANCH   9  11
ENDBRANCH   3   5
BRANCH   1  14
ATOM     13  N   UNL     1       2.209   6.855  20.391  0.00  0.00    +0.000 N 
ATOM     14  C   UNL     1       2.035   5.492  20.324  0.00  0.00    +0.000 C 
ATOM     15  O   UNL     1       1.064   4.854  20.705  0.00  0.00    +0.000 OA
ATOM     16  H   UNL     1       3.091   7.214  20.036  0.00  0.00    +0.000 HD
BRANCH  13  17
ATOM     17  C   UNL     1       1.277   7.757  21.015  0.00  0.00    +0.000 C 
BRANCH  17  22
ATOM     18  C   UNL     1       0.359  12.623  19.070  0.00  0.00    +0.000 C 
ATOM     19  C   UNL     1       0.749  11.201  19.276  0.00  0.00    +0.000 A 
ATOM     20  N   UNL     1       1.251  10.426  18.339  0.00  0.00    +0.000 NA
ATOM     21  C   UNL     1       1.495   9.168  18.855  0.00  0.00    +0.000 A 
ATOM     22  C   UNL     1       1.170   8.989  20.185  0.00  0.00    +0.000 A 
ATOM     23  S   UNL     1       0.552  10.461  20.817  0.00  0.00    +0.000 S 
ENDBRANCH  17  22
ENDBRANCH  13  17
ENDBRANCH   1  14
TORSDOF 5
ENDMDL
MODEL 3
REMARK VINA RESULT:      -6.8      5.091      7.554
REMARK  Name = 
REMARK  6 active torsions:
REMARK  status: ('A' for Active; 'I' for Inactive)
REMARK    1  A    between atoms: C_1  and  C_2
REMARK    2  A    between atoms: C_5  and  C_6
REMARK    3  A    between atoms: C_6  and  N_7
REMARK    4  A    between atoms: C_8  and  C_10
REMARK    5  A    between atoms: N_12  and  C_13
REMARK    6  A    between atoms: C_17  and  C_18
REMARK                            x       y       z     vdW  Elec       q    Type
REMARK                         _______ _______ _______ _____ _____    ______ ____
ROOT
ATOM      1  C   UNL     1       8.077   7.855  18.092  0.00  0.00    +0.000 C 
ATOM      2  O   UNL     1       8.586   7.203  18.998  0.00  0.00    +0.000 OA
ATOM      3  N   UNL     1       8.244   9.194  17.794  0.00  0.00    +0.000 N 
ATOM      4  H   UNL     1       7.638   9.554  17.060  0.00  0.00    +0.000 HD
ENDROOT
BRANCH   3   5
ATOM      5  C   UNL     1       9.057  10.100  18.508  0.00  0.00    +0.000 A 
ATOM      6  C   UNL     1       8.973  10.258  19.894  0.00  0.00    +0.000 A 
ATOM      7  C   UNL     1       9.748  11.211  20.557  0.00  0.00    +0.000 A 
ATOM      8  C   UNL     1      10.617  12.023  19.836  0.00  0.00    +0.000 A 
ATOM      9  C   UNL     1      10.732  11.861  18.453  0.00  0.00    +0.000 A 
ATOM     10  C   UNL     1       9.968  10.885  17.791  0.00  0.00    +0.000 A 
BRANCH   9  11
ATOM     11  C   UNL     1      11.608  12.718  17.709  0.00  0.00    +0.000 C 
ATOM     12  N   UNL     1      12.324  13.414  17.119  0.00  0.00    +0.000 NA
ENDBRANCH   9  11
ENDBRANCH   3   5
BRANCH   1  14
ATOM     13  N   UNL     1       5.769   7.283  17.593  0.00  0.00    +0.000 N 
ATOM     14  C   UNL     1       7.071   7.132  17.174  0.00  0.00    +0.000 C 
ATOM     15  O   UNL     1       7.462   6.516  16.193  0.00  0.00    +0.000 OA
ATOM     16  H   UNL     1       5.630   7.821  18.444  0.00  0.00    +0.000 HD
BRANCH  13  17
ATOM     17  C   UNL     1       4.641   6.649  16.964  0.00  0.00    +0.000 C 
BRANCH  17  22
ATOM     18  C   UNL     1       3.488   1.693  18.514  0.00  0.00    +0.000 C 
ATOM     19  C   UNL     1       3.768   3.153  18.439  0.00  0.00    +0.000 A 
ATOM     20  N   UNL     1       3.700   3.975  19.463  0.00  0.00    +0.000 NA
ATOM     21  C   UNL     1       4.009   5.257  19.054  0.00  0.00    +0.000 A 
ATOM     22  C   UNL     1       4.307   5.407  17.714  0.00  0.00    +0.000 A 
ATOM     23  S   UNL     1       4.211   3.876  16.941  0.00  0.00    +0.000 S 
ENDBRANCH  17  22
ENDBRANCH  13  17
ENDBRANCH   1  14
TORSDOF 5
ENDMDL
MODEL 4
REMARK VINA RESULT:      -6.6      3.597      8.329
REMARK  Name = 
REMARK  6 active torsions:
REMARK  status: ('A' for Active; 'I' for Inactive)
REMARK    1  A    between atoms: C_1  and  C_2
REMARK    2  A    between atoms: C_5  and  C_6
REMARK    3  A    between atoms: C_6  and  N_7
REMARK    4  A    between atoms: C_8  and  C_10
REMARK    5  A    between atoms: N_12  and  C_13
REMARK    6  A    between atoms: C_17  and  C_18
REMARK                            x       y       z     vdW  Elec       q    Type
REMARK                         _______ _______ _______ _____ _____    ______ ____
ROOT
ATOM      1  C   UNL     1       2.170   8.055  18.494  0.00  0.00    +0.000 C 
ATOM      2  O   UNL     1       2.345   8.476  17.355  0.00  0.00    +0.000 OA
ATOM      3  N   UNL     1       2.478   6.811  19.011  0.00  0.00    +0.000 N 
ATOM      4  H   UNL     1       2.145   6.640  19.957  0.00  0.00    +0.000 HD
ENDROOT
BRANCH   3   5
ATOM      5  C   UNL     1       3.066   5.747  18.295  0.00  0.00    +0.000 A 
ATOM      6  C   UNL     1       2.327   4.665  17.809  0.00  0.00    +0.000 A 
ATOM      7  C   UNL     1       2.954   3.598  17.162  0.00  0.00    +0.000 A 
ATOM      8  C   UNL     1       4.335   3.601  16.998  0.00  0.00    +0.000 A 
ATOM      9  C   UNL     1       5.087   4.687  17.455  0.00  0.00    +0.000 A 
ATOM     10  C   UNL     1       4.450   5.770  18.084  0.00  0.00    +0.000 A 
BRANCH   9  11
ATOM     11  C   UNL     1       6.512   4.674  17.308  0.00  0.00    +0.000 C 
ATOM     12  N   UNL     1       7.667   4.655  17.200  0.00  0.00    +0.000 NA
ENDBRANCH   9  11
ENDBRANCH   3   5
BRANCH   1  14
ATOM     13  N   UNL     1       0.981  10.133  18.906  0.00  0.00    +0.000 N 
ATOM     14  C   UNL     1       1.470   8.992  19.499  0.00  0.00    +0.000 C 
ATOM     15  O   UNL     1       1.391   8.684  20.680  0.00  0.00    +0.000 OA
ATOM     16  H   UNL     1       1.150  10.230  17.909  0.00  0.00    +0.000 HD
BRANCH  13  17
ATOM     17  C   UNL     1       0.352  11.209  19.625  0.00  0.00    +0.000 C 
BRANCH  17  22
ATOM     18  C   UNL     1      -4.298  10.933  17.056  0.00  0.00    +0.000 C 
ATOM     19  C   UNL     1      -3.186  11.231  18.001  0.00  0.00    +0.000 A 
ATOM     20  N   UNL     1      -3.283  12.052  19.024  0.00  0.00    +0.000 NA
ATOM     21  C   UNL     1      -2.075  12.110  19.691  0.00  0.00    +0.000 A 
ATOM     22  C   UNL     1      -1.059  11.336  19.166  0.00  0.00    +0.000 A 
ATOM     23  S   UNL     1      -1.648  10.488  17.794  0.00  0.00    +0.000 S 
ENDBRANCH  17  22
ENDBRANCH  13  17
ENDBRANCH   1  14
TORSDOF 5
ENDMDL
MODEL 5
REMARK VINA RESULT:      -6.6      5.699      7.127
REMARK  Name = 
REMARK  6 active torsions:
REMARK  status: ('A' for Active; 'I' for Inactive)
REMARK    1  A    between atoms: C_1  and  C_2
REMARK    2  A    between atoms: C_5  and  C_6
REMARK    3  A    between atoms: C_6  and  N_7
REMARK    4  A    between atoms: C_8  and  C_10
REMARK    5  A    between atoms: N_12  and  C_13
REMARK    6  A    between atoms: C_17  and  C_18
REMARK                            x       y       z     vdW  Elec       q    Type
REMARK                         _______ _______ _______ _____ _____    ______ ____
ROOT
ATOM      1  C   UNL     1       8.257   8.979  18.236  0.00  0.00    +0.000 C 
ATOM      2  O   UNL     1       7.741   9.765  17.448  0.00  0.00    +0.000 OA
ATOM      3  N   UNL     1       9.156   9.243  19.252  0.00  0.00    +0.000 N 
ATOM      4  H   UNL     1       9.540   8.422  19.715  0.00  0.00    +0.000 HD
ENDROOT
BRANCH   3   5
ATOM      5  C   UNL     1       9.675  10.513  19.581  0.00  0.00    +0.000 A 
ATOM      6  C   UNL     1      10.719  11.110  18.867  0.00  0.00    +0.000 A 
ATOM      7  C   UNL     1      11.249  12.339  19.263  0.00  0.00    +0.000 A 
ATOM      8  C   UNL     1      10.742  12.985  20.385  0.00  0.00    +0.000 A 
ATOM      9  C   UNL     1       9.682  12.415  21.095  0.00  0.00    +0.000 A 
ATOM     10  C   UNL     1       9.134  11.189  20.681  0.00  0.00    +0.000 A 
BRANCH   9  11
ATOM     11  C   UNL     1       9.180  13.070  22.267  0.00  0.00    +0.000 C 
ATOM     12  N   UNL     1       8.770  13.611  23.208  0.00  0.00    +0.000 NA
ENDBRANCH   9  11
ENDBRANCH   3   5
BRANCH   1  14
ATOM     13  N   UNL     1       7.275   7.213  16.888  0.00  0.00    +0.000 N 
ATOM     14  C   UNL     1       7.924   7.483  18.070  0.00  0.00    +0.000 C 
ATOM     15  O   UNL     1       8.240   6.680  18.937  0.00  0.00    +0.000 OA
ATOM     16  H   UNL     1       7.080   8.011  16.289  0.00  0.00    +0.000 HD
BRANCH  13  17
ATOM     17  C   UNL     1       6.781   5.913  16.517  0.00  0.00    +0.000 C 
BRANCH  17  22
ATOM     18  C   UNL     1       1.922   4.233  17.884  0.00  0.00    +0.000 C 
ATOM     19  C   UNL     1       3.157   5.025  17.629  0.00  0.00    +0.000 A 
ATOM     20  N   UNL     1       3.268   6.317  17.850  0.00  0.00    +0.000 NA
ATOM     21  C   UNL     1       4.535   6.743  17.502  0.00  0.00    +0.000 A 
ATOM     22  C   UNL     1       5.383   5.771  17.009  0.00  0.00    +0.000 A 
ATOM     23  S   UNL     1       4.564   4.261  16.999  0.00  0.00    +0.000 S 
ENDBRANCH  17  22
ENDBRANCH  13  17
ENDBRANCH   1  14
TORSDOF 5
ENDMDL
MODEL 6
REMARK VINA RESULT:      -6.5      3.615      8.469
REMARK  Name = 
REMARK  6 active torsions:
REMARK  status: ('A' for Active; 'I' for Inactive)
REMARK    1  A    between atoms: C_1  and  C_2
REMARK    2  A    between atoms: C_5  and  C_6
REMARK    3  A    between atoms: C_6  and  N_7
REMARK    4  A    between atoms: C_8  and  C_10
REMARK    5  A    between atoms: N_12  and  C_13
REMARK    6  A    between atoms: C_17  and  C_18
REMARK                            x       y       z     vdW  Elec       q    Type
REMARK                         _______ _______ _______ _____ _____    ______ ____
ROOT
ATOM      1  C   UNL     1       6.196   4.902  16.910  0.00  0.00    +0.000 C 
ATOM      2  O   UNL     1       7.328   4.541  17.212  0.00  0.00    +0.000 OA
ATOM      3  N   UNL     1       5.634   5.016  15.652  0.00  0.00    +0.000 N 
ATOM      4  H   UNL     1       4.709   5.440  15.627  0.00  0.00    +0.000 HD
ENDROOT
BRANCH   3   5
ATOM      5  C   UNL     1       6.285   4.736  14.432  0.00  0.00    +0.000 A 
ATOM      6  C   UNL     1       7.300   5.547  13.915  0.00  0.00    +0.000 A 
ATOM      7  C   UNL     1       7.875   5.274  12.673  0.00  0.00    +0.000 A 
ATOM      8  C   UNL     1       7.438   4.183  11.930  0.00  0.00    +0.000 A 
ATOM      9  C   UNL     1       6.443   3.346  12.444  0.00  0.00    +0.000 A 
ATOM     10  C   UNL     1       5.882   3.610  13.704  0.00  0.00    +0.000 A 
BRANCH   9  11
ATOM     11  C   UNL     1       5.975   2.239  11.663  0.00  0.00    +0.000 C 
ATOM     12  N   UNL     1       5.610   1.340  11.028  0.00  0.00    +0.000 NA
ENDBRANCH   9  11
ENDBRANCH   3   5
BRANCH   1  14
ATOM     13  N   UNL     1       3.992   5.644  17.613  0.00  0.00    +0.000 N 
ATOM     14  C   UNL     1       5.260   5.344  18.053  0.00  0.00    +0.000 C 
ATOM     15  O   UNL     1       5.672   5.393  19.203  0.00  0.00    +0.000 OA
ATOM     16  H   UNL     1       3.831   5.559  16.613  0.00  0.00    +0.000 HD
BRANCH  13  17
ATOM     17  C   UNL     1       2.945   6.155  18.458  0.00  0.00    +0.000 C 
BRANCH  17  22
ATOM     18  C   UNL     1       1.201   2.494  21.901  0.00  0.00    +0.000 C 
ATOM     19  C   UNL     1       1.483   3.327  20.699  0.00  0.00    +0.000 A 
ATOM     20  N   UNL     1       1.030   3.066  19.493  0.00  0.00    +0.000 NA
ATOM     21  C   UNL     1       1.480   4.026  18.608  0.00  0.00    +0.000 A 
ATOM     22  C   UNL     1       2.281   5.013  19.145  0.00  0.00    +0.000 A 
ATOM     23  S   UNL     1       2.462   4.736  20.831  0.00  0.00    +0.000 S 
ENDBRANCH  17  22
ENDBRANCH  13  17
ENDBRANCH   1  14
TORSDOF 5
ENDMDL
MODEL 7
REMARK VINA RESULT:      -6.5      1.712      2.303
REMARK  Name = 
REMARK  6 active torsions:
REMARK  status: ('A' for Active; 'I' for Inactive)
REMARK    1  A    between atoms: C_1  and  C_2
REMARK    2  A    between atoms: C_5  and  C_6
REMARK    3  A    between atoms: C_6  and  N_7
REMARK    4  A    between atoms: C_8  and  C_10
REMARK    5  A    between atoms: N_12  and  C_13
REMARK    6  A    between atoms: C_17  and  C_18
REMARK                            x       y       z     vdW  Elec       q    Type
REMARK                         _______ _______ _______ _____ _____    ______ ____
ROOT
ATOM      1  C   UNL     1       2.482   7.032  19.353  0.00  0.00    +0.000 C 
ATOM      2  O   UNL     1       2.602   7.763  18.375  0.00  0.00    +0.000 OA
ATOM      3  N   UNL     1       1.846   7.293  20.552  0.00  0.00    +0.000 N 
ATOM      4  H   UNL     1       1.963   6.580  21.268  0.00  0.00    +0.000 HD
ENDROOT
BRANCH   3   5
ATOM      5  C   UNL     1       1.196   8.498  20.892  0.00  0.00    +0.000 A 
ATOM      6  C   UNL     1       0.994   8.899  22.216  0.00  0.00    +0.000 A 
ATOM      7  C   UNL     1       0.289  10.066  22.514  0.00  0.00    +0.000 A 
ATOM      8  C   UNL     1      -0.227  10.847  21.486  0.00  0.00    +0.000 A 
ATOM      9  C   UNL     1      -0.013  10.475  20.156  0.00  0.00    +0.000 A 
ATOM     10  C   UNL     1       0.717   9.312  19.859  0.00  0.00    +0.000 A 
BRANCH   9  11
ATOM     11  C   UNL     1      -0.570  11.267  19.100  0.00  0.00    +0.000 C 
ATOM     12  N   UNL     1      -1.009  11.911  18.240  0.00  0.00    +0.000 NA
ENDBRANCH   9  11
ENDBRANCH   3   5
BRANCH   1  14
ATOM     13  N   UNL     1       4.535   5.733  19.341  0.00  0.00    +0.000 N 
ATOM     14  C   UNL     1       3.162   5.650  19.296  0.00  0.00    +0.000 C 
ATOM     15  O   UNL     1       2.489   4.632  19.224  0.00  0.00    +0.000 OA
ATOM     16  H   UNL     1       4.928   6.670  19.386  0.00  0.00    +0.000 HD
BRANCH  13  17
ATOM     17  C   UNL     1       5.416   4.601  19.226  0.00  0.00    +0.000 C 
BRANCH  17  22
ATOM     18  C   UNL     1       6.257   4.008  14.007  0.00  0.00    +0.000 C 
ATOM     19  C   UNL     1       6.373   4.284  15.465  0.00  0.00    +0.000 A 
ATOM     20  N   UNL     1       7.480   4.669  16.061  0.00  0.00    +0.000 NA
ATOM     21  C   UNL     1       7.251   4.830  17.413  0.00  0.00    +0.000 A 
ATOM     22  C   UNL     1       5.967   4.559  17.843  0.00  0.00    +0.000 A 
ATOM     23  S   UNL     1       5.006   4.102  16.495  0.00  0.00    +0.000 S 
ENDBRANCH  17  22
ENDBRANCH  13  17
ENDBRANCH   1  14
TORSDOF 5
ENDMDL
MODEL 8
REMARK VINA RESULT:      -6.5      5.795      7.955
REMARK  Name = 
REMARK  6 active torsions:
REMARK  status: ('A' for Active; 'I' for Inactive)
REMARK    1  A    between atoms: C_1  and  C_2
REMARK    2  A    between atoms: C_5  and  C_6
REMARK    3  A    between atoms: C_6  and  N_7
REMARK    4  A    between atoms: C_8  and  C_10
REMARK    5  A    between atoms: N_12  and  C_13
REMARK    6  A    between atoms: C_17  and  C_18
REMARK                            x       y       z     vdW  Elec       q    Type
REMARK                         _______ _______ _______ _____ _____    ______ ____
ROOT
ATOM      1  C   UNL     1       8.358   9.174  18.308  0.00  0.00    +0.000 C 
ATOM      2  O   UNL     1       7.760   9.945  17.564  0.00  0.00    +0.000 OA
ATOM      3  N   UNL     1       9.309   9.465  19.268  0.00  0.00    +0.000 N 
ATOM      4  H   UNL     1       9.755   8.656  19.695  0.00  0.00    +0.000 HD
ENDROOT
BRANCH   3   5
ATOM      5  C   UNL     1       9.794  10.752  19.580  0.00  0.00    +0.000 A 
ATOM      6  C   UNL     1       9.504  11.396  20.786  0.00  0.00    +0.000 A 
ATOM      7  C   UNL     1       9.949  12.697  21.031  0.00  0.00    +0.000 A 
ATOM      8  C   UNL     1      10.688  13.372  20.066  0.00  0.00    +0.000 A 
ATOM      9  C   UNL     1      11.008  12.733  18.864  0.00  0.00    +0.000 A 
ATOM     10  C   UNL     1      10.580  11.417  18.630  0.00  0.00    +0.000 A 
BRANCH   9  11
ATOM     11  C   UNL     1      11.746  13.442  17.861  0.00  0.00    +0.000 C 
ATOM     12  N   UNL     1      12.333  14.014  17.040  0.00  0.00    +0.000 NA
ENDBRANCH   9  11
ENDBRANCH   3   5
BRANCH   1  14
ATOM     13  N   UNL     1       7.362   7.382  17.004  0.00  0.00    +0.000 N 
ATOM     14  C   UNL     1       8.078   7.666  18.145  0.00  0.00    +0.000 C 
ATOM     15  O   UNL     1       8.484   6.869  18.977  0.00  0.00    +0.000 OA
ATOM     16  H   UNL     1       7.094   8.177  16.431  0.00  0.00    +0.000 HD
BRANCH  13  17
ATOM     17  C   UNL     1       6.900   6.066  16.650  0.00  0.00    +0.000 C 
BRANCH  17  22
ATOM     18  C   UNL     1       2.249   5.789  19.217  0.00  0.00    +0.000 C 
ATOM     19  C   UNL     1       3.633   5.575  18.709  0.00  0.00    +0.000 A 
ATOM     20  N   UNL     1       4.458   4.661  19.169  0.00  0.00    +0.000 NA
ATOM     21  C   UNL     1       5.659   4.734  18.491  0.00  0.00    +0.000 A 
ATOM     22  C   UNL     1       5.745   5.711  17.519  0.00  0.00    +0.000 A 
ATOM     23  S   UNL     1       4.253   6.560  17.442  0.00  0.00    +0.000 S 
ENDBRANCH  17  22
ENDBRANCH  13  17
ENDBRANCH   1  14
TORSDOF 5
ENDMDL
MODEL 9
REMARK VINA RESULT:      -6.5      3.594      8.071
REMARK  Name = 
REMARK  6 active torsions:
REMARK  status: ('A' for Active; 'I' for Inactive)
REMARK    1  A    between atoms: C_1  and  C_2
REMARK    2  A    between atoms: C_5  and  C_6
REMARK    3  A    between atoms: C_6  and  N_7
REMARK    4  A    between atoms: C_8  and  C_10
REMARK    5  A    between atoms: N_12  and  C_13
REMARK    6  A    between atoms: C_17  and  C_18
REMARK                            x       y       z     vdW  Elec       q    Type
REMARK                         _______ _______ _______ _____ _____    ______ ____
ROOT
ATOM      1  C   UNL     1       1.988   7.022  19.951  0.00  0.00    +0.000 C 
ATOM      2  O   UNL     1       1.848   6.123  20.773  0.00  0.00    +0.000 OA
ATOM      3  N   UNL     1       2.573   6.964  18.701  0.00  0.00    +0.000 N 
ATOM      4  H   UNL     1       2.679   7.860  18.230  0.00  0.00    +0.000 HD
ENDROOT
BRANCH   3   5
ATOM      5  C   UNL     1       3.148   5.817  18.115  0.00  0.00    +0.000 A 
ATOM      6  C   UNL     1       2.398   4.689  17.770  0.00  0.00    +0.000 A 
ATOM      7  C   UNL     1       3.013   3.547  17.253  0.00  0.00    +0.000 A 
ATOM      8  C   UNL     1       4.392   3.520  17.079  0.00  0.00    +0.000 A 
ATOM      9  C   UNL     1       5.154   4.648  17.394  0.00  0.00    +0.000 A 
ATOM     10  C   UNL     1       4.531   5.804  17.893  0.00  0.00    +0.000 A 
BRANCH   9  11
ATOM     11  C   UNL     1       6.579   4.607  17.239  0.00  0.00    +0.000 C 
ATOM     12  N   UNL     1       7.733   4.584  17.121  0.00  0.00    +0.000 NA
ENDBRANCH   9  11
ENDBRANCH   3   5
BRANCH   1  14
ATOM     13  N   UNL     1       1.233   9.226  19.260  0.00  0.00    +0.000 N 
ATOM     14  C   UNL     1       1.507   8.432  20.350  0.00  0.00    +0.000 C 
ATOM     15  O   UNL     1       1.399   8.738  21.529  0.00  0.00    +0.000 OA
ATOM     16  H   UNL     1       1.394   8.808  18.347  0.00  0.00    +0.000 HD
BRANCH  13  17
ATOM     17  C   UNL     1       0.843  10.608  19.347  0.00  0.00    +0.000 C 
BRANCH  17  22
ATOM     18  C   UNL     1      -4.259  11.850  18.496  0.00  0.00    +0.000 C 
ATOM     19  C   UNL     1      -2.879  11.295  18.434  0.00  0.00    +0.000 A 
ATOM     20  N   UNL     1      -2.475  10.411  17.548  0.00  0.00    +0.000 NA
ATOM     21  C   UNL     1      -1.148  10.101  17.770  0.00  0.00    +0.000 A 
ATOM     22  C   UNL     1      -0.547  10.749  18.831  0.00  0.00    +0.000 A 
ATOM     23  S   UNL     1      -1.688  11.801  19.568  0.00  0.00    +0.000 S 
ENDBRANCH  17  22
ENDBRANCH  13  17
ENDBRANCH   1  14
TORSDOF 5
ENDMDL
