MODEL 1
REMARK VINA RESULT:      -7.3      0.000      0.000
REMARK  Name = 
REMARK  11 active torsions:
REMARK  status: ('A' for Active; 'I' for Inactive)
REMARK    1  A    between atoms: C_1  and  C_2
REMARK    2  A    between atoms: C_8  and  C_9
REMARK    3  A    between atoms: C_9  and  C_10
REMARK    4  A    between atoms: C_9  and  N_11
REMARK    5  A    between atoms: N_11  and  C_12
REMARK    6  A    between atoms: C_12  and  C_13
REMARK    7  A    between atoms: C_13  and  C_14
REMARK    8  A    between atoms: C_14  and  O_15
REMARK    9  A    between atoms: C_14  and  C_16
REMARK   10  A    between atoms: C_16  and  C_17
REMARK   11  A    between atoms: C_16  and  C_18
REMARK                            x       y       z     vdW  Elec       q    Type
REMARK                         _______ _______ _______ _____ _____    ______ ____
ROOT
ATOM      1  C   UNL     1       3.351   2.906  18.745  0.00  0.00    +0.000 C 
ATOM      2  C   UNL     1       2.317   2.320  17.781  0.00  0.00    +0.000 C 
ENDROOT
BRANCH   1  10
ATOM      3  C   UNL     1       1.474   3.060  21.167  0.00  0.00    +0.000 C 
ATOM      4  C   UNL     1       1.996   4.274  20.462  0.00  0.00    +0.000 A 
ATOM      5  N   UNL     1       1.597   5.461  20.986  0.00  0.00    +0.000 NA
ATOM      6  C   UNL     1       2.035   6.580  20.401  0.00  0.00    +0.000 A 
ATOM      7  N   UNL     1       1.651   7.786  20.947  0.00  0.00    +0.000 N 
ATOM      8  N   UNL     1       2.782   6.618  19.302  0.00  0.00    +0.000 NA
ATOM      9  C   UNL     1       3.160   5.426  18.803  0.00  0.00    +0.000 A 
ATOM     10  C   UNL     1       2.827   4.195  19.349  0.00  0.00    +0.000 A 
ATOM     11  H   UNL     1       0.785   7.664  21.450  0.00  0.00    +0.000 HD
ATOM     12  H   UNL     1       1.676   8.493  20.227  0.00  0.00    +0.000 HD
ENDBRANCH   1  10
BRANCH   1  13
ATOM     13  N   UNL     1       4.647   3.178  18.099  0.00  0.00    +0.000 NA
ATOM     14  H   UNL     1       5.186   2.318  18.210  0.00  0.00    +0.000 HD
BRANCH  13  15
ATOM     15  C   UNL     1       4.592   3.480  16.673  0.00  0.00    +0.000 C 
BRANCH  15  16
ATOM     16  C   UNL     1       5.783   4.388  16.300  0.00  0.00    +0.000 C 
ATOM     17  C   UNL     1       6.318   4.214  14.886  0.00  0.00    +0.000 C 
ATOM     18  C   UNL     1       5.512   5.431  15.225  0.00  0.00    +0.000 C 
BRANCH  16  19
ATOM     19  C   UNL     1       6.778   4.573  17.453  0.00  0.00    +0.000 C 
BRANCH  19  20
ATOM     20  C   UNL     1       6.897   5.875  18.279  0.00  0.00    +0.000 C 
ATOM     21  C   UNL     1       7.747   5.775  19.548  0.00  0.00    +0.000 C 
ATOM     22  C   UNL     1       7.568   6.947  17.386  0.00  0.00    +0.000 C 
ENDBRANCH  19  20
BRANCH  19  23
ATOM     23  O   UNL     1       8.072   4.302  16.890  0.00  0.00    +0.000 OA
ATOM     24  H   UNL     1       7.989   4.442  15.932  0.00  0.00    +0.000 HD
ENDBRANCH  19  23
ENDBRANCH  16  19
ENDBRANCH  15  16
ENDBRANCH  13  15
ENDBRANCH   1  13
TORSDOF 7
ENDMDL
MODEL 2
REMARK VINA RESULT:      -7.3      1.556      3.472
REMARK  Name = 
REMARK  11 active torsions:
REMARK  status: ('A' for Active; 'I' for Inactive)
REMARK    1  A    between atoms: C_1  and  C_2
REMARK    2  A    between atoms: C_8  and  C_9
REMARK    3  A    between atoms: C_9  and  C_10
REMARK    4  A    between atoms: C_9  and  N_11
REMARK    5  A    between atoms: N_11  and  C_12
REMARK    6  A    between atoms: C_12  and  C_13
REMARK    7  A    between atoms: C_13  and  C_14
REMARK    8  A    between atoms: C_14  and  O_15
REMARK    9  A    between atoms: C_14  and  C_16
REMARK   10  A    between atoms: C_16  and  C_17
REMARK   11  A    between atoms: C_16  and  C_18
REMARK                            x       y       z     vdW  Elec       q    Type
REMARK                         _______ _______ _______ _____ _____    ______ ____
ROOT
ATOM      1  C   UNL     1       3.245   5.417  17.937  0.00  0.00    +0.000 C 
ATOM      2  C   UNL     1       2.642   6.820  18.028  0.00  0.00    +0.000 C 
ENDROOT
BRANCH   1  10
ATOM      3  C   UNL     1       2.434   2.473  17.632  0.00  0.00    +0.000 C 
ATOM      4  C   UNL     1       2.367   3.206  18.936  0.00  0.00    +0.000 A 
ATOM      5  N   UNL     1       1.940   2.467  19.991  0.00  0.00    +0.000 NA
ATOM      6  C   UNL     1       1.865   3.066  21.183  0.00  0.00    +0.000 A 
ATOM      7  N   UNL     1       1.455   2.310  22.261  0.00  0.00    +0.000 N 
ATOM      8  N   UNL     1       2.114   4.354  21.401  0.00  0.00    +0.000 NA
ATOM      9  C   UNL     1       2.533   5.063  20.335  0.00  0.00    +0.000 A 
ATOM     10  C   UNL     1       2.713   4.548  19.061  0.00  0.00    +0.000 A 
ATOM     11  H   UNL     1       0.893   1.539  21.933  0.00  0.00    +0.000 HD
ATOM     12  H   UNL     1       1.049   2.922  22.954  0.00  0.00    +0.000 HD
ENDBRANCH   1  10
BRANCH   1  13
ATOM     13  N   UNL     1       4.717   5.419  17.995  0.00  0.00    +0.000 NA
ATOM     14  H   UNL     1       5.010   4.654  17.386  0.00  0.00    +0.000 HD
BRANCH  13  15
ATOM     15  C   UNL     1       5.367   6.634  17.517  0.00  0.00    +0.000 C 
BRANCH  15  16
ATOM     16  C   UNL     1       6.876   6.366  17.337  0.00  0.00    +0.000 C 
ATOM     17  C   UNL     1       7.763   7.603  17.343  0.00  0.00    +0.000 C 
ATOM     18  C   UNL     1       7.756   6.696  18.535  0.00  0.00    +0.000 C 
BRANCH  16  19
ATOM     19  C   UNL     1       7.169   5.246  16.331  0.00  0.00    +0.000 C 
BRANCH  19  20
ATOM     20  C   UNL     1       6.457   5.117  14.965  0.00  0.00    +0.000 C 
ATOM     21  C   UNL     1       7.378   5.045  13.745  0.00  0.00    +0.000 C 
ATOM     22  C   UNL     1       5.641   3.801  14.975  0.00  0.00    +0.000 C 
ENDBRANCH  19  20
BRANCH  19  23
ATOM     23  O   UNL     1       6.949   4.021  17.048  0.00  0.00    +0.000 OA
ATOM     24  H   UNL     1       7.818   3.737  17.380  0.00  0.00    +0.000 HD
ENDBRANCH  19  23
ENDBRANCH  16  19
ENDBRANCH  15  16
ENDBRANCH  13  15
ENDBRANCH   1  13
TORSDOF 7
ENDMDL
MODEL 3
REMARK VINA RESULT:      -7.1      2.787      6.094
REMARK  Name = 
REMARK  11 active torsions:
REMARK  status: ('A' for Active; 'I' for Inactive)
REMARK    1  A    between atoms: C_1  and  C_2
REMARK    2  A    between atoms: C_8  and  C_9
REMARK    3  A    between atoms: C_9  and  C_10
REMARK    4  A    between atoms: C_9  and  N_11
REMARK    5  A    between atoms: N_11  and  C_12
REMARK    6  A    between atoms: C_12  and  C_13
REMARK    7  A    between atoms: C_13  and  C_14
REMARK    8  A    between atoms: C_14  and  O_15
REMARK    9  A    between atoms: C_14  and  C_16
REMARK   10  A    between atoms: C_16  and  C_17
REMARK   11  A    between atoms: C_16  and  C_18
REMARK                            x       y       z     vdW  Elec       q    Type
REMARK                         _______ _______ _______ _____ _____    ______ ____
ROOT
ATOM      1  C   UNL     1       5.824   4.736  18.780  0.00  0.00    +0.000 C 
ATOM      2  C   UNL     1       4.706   5.727  19.109  0.00  0.00    +0.000 C 
ENDROOT
BRANCH   1  10
ATOM      3  C   UNL     1       7.682   6.970  17.795  0.00  0.00    +0.000 C 
ATOM      4  C   UNL     1       7.133   5.909  16.892  0.00  0.00    +0.000 A 
ATOM      5  N   UNL     1       7.534   5.990  15.598  0.00  0.00    +0.000 NA
ATOM      6  C   UNL     1       7.081   5.066  14.745  0.00  0.00    +0.000 A 
ATOM      7  N   UNL     1       7.507   5.132  13.435  0.00  0.00    +0.000 N 
ATOM      8  N   UNL     1       6.211   4.110  15.056  0.00  0.00    +0.000 NA
ATOM      9  C   UNL     1       5.828   4.056  16.346  0.00  0.00    +0.000 A 
ATOM     10  C   UNL     1       6.271   4.913  17.342  0.00  0.00    +0.000 A 
ATOM     11  H   UNL     1       7.770   6.081  13.217  0.00  0.00    +0.000 HD
ATOM     12  H   UNL     1       6.817   4.692  12.845  0.00  0.00    +0.000 HD
ENDBRANCH   1  10
BRANCH   1  13
ATOM     13  N   UNL     1       5.424   3.332  18.982  0.00  0.00    +0.000 NA
ATOM     14  H   UNL     1       6.229   2.886  19.425  0.00  0.00    +0.000 HD
BRANCH  13  15
ATOM     15  C   UNL     1       4.273   3.122  19.852  0.00  0.00    +0.000 C 
BRANCH  15  16
ATOM     16  C   UNL     1       3.082   2.622  19.007  0.00  0.00    +0.000 C 
ATOM     17  C   UNL     1       3.454   1.920  17.709  0.00  0.00    +0.000 C 
ATOM     18  C   UNL     1       2.955   1.111  18.867  0.00  0.00    +0.000 C 
BRANCH  16  19
ATOM     19  C   UNL     1       1.895   3.593  19.014  0.00  0.00    +0.000 C 
BRANCH  19  20
ATOM     20  C   UNL     1       1.045   3.896  20.269  0.00  0.00    +0.000 C 
ATOM     21  C   UNL     1       1.207   2.912  21.429  0.00  0.00    +0.000 C 
ATOM     22  C   UNL     1       1.471   5.283  20.809  0.00  0.00    +0.000 C 
ENDBRANCH  19  20
BRANCH  19  23
ATOM     23  O   UNL     1       1.001   3.112  17.996  0.00  0.00    +0.000 OA
ATOM     24  H   UNL     1       0.432   2.448  18.421  0.00  0.00    +0.000 HD
ENDBRANCH  19  23
ENDBRANCH  16  19
ENDBRANCH  15  16
ENDBRANCH  13  15
ENDBRANCH   1  13
TORSDOF 7
ENDMDL
MODEL 4
REMARK VINA RESULT:      -7.0      2.819      5.887
REMARK  Name = 
REMARK  11 active torsions:
REMARK  status: ('A' for Active; 'I' for Inactive)
REMARK    1  A    between atoms: C_1  and  C_2
REMARK    2  A    between atoms: C_8  and  C_9
REMARK    3  A    between atoms: C_9  and  C_10
REMARK    4  A    between atoms: C_9  and  N_11
REMARK    5  A    between atoms: N_11  and  C_12
REMARK    6  A    between atoms: C_12  and  C_13
REMARK    7  A    between atoms: C_13  and  C_14
REMARK    8  A    between atoms: C_14  and  O_15
REMARK    9  A    between atoms: C_14  and  C_16
REMARK   10  A    between atoms: C_16  and  C_17
REMARK   11  A    between atoms: C_16  and  C_18
REMARK                            x       y       z     vdW  Elec       q    Type
REMARK                         _______ _______ _______ _____ _____    ______ ____
ROOT
ATOM      1  C   UNL     1       3.925   5.954  17.897  0.00  0.00    +0.000 C 
ATOM      2  C   UNL     1       3.461   7.412  17.904  0.00  0.00    +0.000 C 
ENDROOT
BRANCH   1  10
ATOM      3  C   UNL     1       6.733   5.021  18.711  0.00  0.00    +0.000 C 
ATOM      4  C   UNL     1       6.357   5.336  17.296  0.00  0.00    +0.000 A 
ATOM      5  N   UNL     1       7.346   5.158  16.384  0.00  0.00    +0.000 NA
ATOM      6  C   UNL     1       7.068   5.419  15.103  0.00  0.00    +0.000 A 
ATOM      7  N   UNL     1       8.064   5.215  14.172  0.00  0.00    +0.000 N 
ATOM      8  N   UNL     1       5.911   5.904  14.662  0.00  0.00    +0.000 NA
ATOM      9  C   UNL     1       4.950   6.073  15.590  0.00  0.00    +0.000 A 
ATOM     10  C   UNL     1       5.088   5.782  16.938  0.00  0.00    +0.000 A 
ATOM     11  H   UNL     1       8.964   5.287  14.624  0.00  0.00    +0.000 HD
ATOM     12  H   UNL     1       7.893   5.811  13.375  0.00  0.00    +0.000 HD
ENDBRANCH   1  10
BRANCH   1  13
ATOM     13  N   UNL     1       2.856   5.013  17.518  0.00  0.00    +0.000 NA
ATOM     14  H   UNL     1       2.496   5.363  16.629  0.00  0.00    +0.000 HD
BRANCH  13  15
ATOM     15  C   UNL     1       3.274   3.632  17.308  0.00  0.00    +0.000 C 
BRANCH  15  16
ATOM     16  C   UNL     1       2.930   2.802  18.563  0.00  0.00    +0.000 C 
ATOM     17  C   UNL     1       3.564   1.420  18.624  0.00  0.00    +0.000 C 
ATOM     18  C   UNL     1       4.090   2.511  19.506  0.00  0.00    +0.000 C 
BRANCH  16  19
ATOM     19  C   UNL     1       1.473   2.971  19.011  0.00  0.00    +0.000 C 
BRANCH  19  20
ATOM     20  C   UNL     1       1.062   3.444  20.424  0.00  0.00    +0.000 C 
ATOM     21  C   UNL     1       1.557   2.574  21.582  0.00  0.00    +0.000 C 
ATOM     22  C   UNL     1       1.663   4.854  20.648  0.00  0.00    +0.000 C 
ENDBRANCH  19  20
BRANCH  19  23
ATOM     23  O   UNL     1       0.853   1.693  18.789  0.00  0.00    +0.000 OA
ATOM     24  H   UNL     1       0.135   1.620  19.440  0.00  0.00    +0.000 HD
ENDBRANCH  19  23
ENDBRANCH  16  19
ENDBRANCH  15  16
ENDBRANCH  13  15
ENDBRANCH   1  13
TORSDOF 7
ENDMDL
MODEL 5
REMARK VINA RESULT:      -6.8      2.525      5.748
REMARK  Name = 
REMARK  11 active torsions:
REMARK  status: ('A' for Active; 'I' for Inactive)
REMARK    1  A    between atoms: C_1  and  C_2
REMARK    2  A    between atoms: C_8  and  C_9
REMARK    3  A    between atoms: C_9  and  C_10
REMARK    4  A    between atoms: C_9  and  N_11
REMARK    5  A    between atoms: N_11  and  C_12
REMARK    6  A    between atoms: C_12  and  C_13
REMARK    7  A    between atoms: C_13  and  C_14
REMARK    8  A    between atoms: C_14  and  O_15
REMARK    9  A    between atoms: C_14  and  C_16
REMARK   10  A    between atoms: C_16  and  C_17
REMARK   11  A    between atoms: C_16  and  C_18
REMARK                            x       y       z     vdW  Elec       q    Type
REMARK                         _______ _______ _______ _____ _____    ______ ____
ROOT
ATOM      1  C   UNL     1       4.607   6.331  18.567  0.00  0.00    +0.000 C 
ATOM      2  C   UNL     1       3.283   6.968  18.139  0.00  0.00    +0.000 C 
ENDROOT
BRANCH   1  10
ATOM      3  C   UNL     1       7.674   6.246  18.608  0.00  0.00    +0.000 C 
ATOM      4  C   UNL     1       6.869   6.011  17.367  0.00  0.00    +0.000 A 
ATOM      5  N   UNL     1       7.594   5.734  16.254  0.00  0.00    +0.000 NA
ATOM      6  C   UNL     1       6.929   5.510  15.117  0.00  0.00    +0.000 A 
ATOM      7  N   UNL     1       7.663   5.203  13.990  0.00  0.00    +0.000 N 
ATOM      8  N   UNL     1       5.610   5.605  14.978  0.00  0.00    +0.000 NA
ATOM      9  C   UNL     1       4.917   5.885  16.099  0.00  0.00    +0.000 A 
ATOM     10  C   UNL     1       5.479   6.077  17.352  0.00  0.00    +0.000 A 
ATOM     11  H   UNL     1       8.593   5.582  14.084  0.00  0.00    +0.000 HD
ATOM     12  H   UNL     1       7.132   5.468  13.173  0.00  0.00    +0.000 HD
ENDBRANCH   1  10
BRANCH   1  13
ATOM     13  N   UNL     1       4.424   5.062  19.293  0.00  0.00    +0.000 NA
ATOM     14  H   UNL     1       3.484   5.114  19.689  0.00  0.00    +0.000 HD
BRANCH  13  15
ATOM     15  C   UNL     1       4.492   3.853  18.480  0.00  0.00    +0.000 C 
BRANCH  15  16
ATOM     16  C   UNL     1       3.100   3.188  18.443  0.00  0.00    +0.000 C 
ATOM     17  C   UNL     1       2.049   3.922  17.623  0.00  0.00    +0.000 C 
ATOM     18  C   UNL     1       2.653   2.660  17.087  0.00  0.00    +0.000 C 
BRANCH  16  19
ATOM     19  C   UNL     1       2.696   2.571  19.788  0.00  0.00    +0.000 C 
BRANCH  19  20
ATOM     20  C   UNL     1       1.564   3.131  20.679  0.00  0.00    +0.000 C 
ATOM     21  C   UNL     1       1.358   2.410  22.014  0.00  0.00    +0.000 C 
ATOM     22  C   UNL     1       1.910   4.600  21.024  0.00  0.00    +0.000 C 
ENDBRANCH  19  20
BRANCH  19  23
ATOM     23  O   UNL     1       3.896   2.553  20.577  0.00  0.00    +0.000 OA
ATOM     24  H   UNL     1       3.683   2.066  21.391  0.00  0.00    +0.000 HD
ENDBRANCH  19  23
ENDBRANCH  16  19
ENDBRANCH  15  16
ENDBRANCH  13  15
ENDBRANCH   1  13
TORSDOF 7
ENDMDL
MODEL 6
REMARK VINA RESULT:      -6.8      1.308      2.546
REMARK  Name = 
REMARK  11 active torsions:
REMARK  status: ('A' for Active; 'I' for Inactive)
REMARK    1  A    between atoms: C_1  and  C_2
REMARK    2  A    between atoms: C_8  and  C_9
REMARK    3  A    between atoms: C_9  and  C_10
REMARK    4  A    between atoms: C_9  and  N_11
REMARK    5  A    between atoms: N_11  and  C_12
REMARK    6  A    between atoms: C_12  and  C_13
REMARK    7  A    between atoms: C_13  and  C_14
REMARK    8  A    between atoms: C_14  and  O_15
REMARK    9  A    between atoms: C_14  and  C_16
REMARK   10  A    between atoms: C_16  and  C_17
REMARK   11  A    between atoms: C_16  and  C_18
REMARK                            x       y       z     vdW  Elec       q    Type
REMARK                         _______ _______ _______ _____ _____    ______ ____
ROOT
ATOM      1  C   UNL     1       3.110   3.911  18.303  0.00  0.00    +0.000 C 
ATOM      2  C   UNL     1       1.932   3.164  17.673  0.00  0.00    +0.000 C 
ENDROOT
BRANCH   1  10
ATOM      3  C   UNL     1       1.812   3.786  21.080  0.00  0.00    +0.000 C 
ATOM      4  C   UNL     1       2.042   5.070  20.345  0.00  0.00    +0.000 A 
ATOM      5  N   UNL     1       1.653   6.190  21.006  0.00  0.00    +0.000 NA
ATOM      6  C   UNL     1       1.838   7.367  20.401  0.00  0.00    +0.000 A 
ATOM      7  N   UNL     1       1.467   8.508  21.082  0.00  0.00    +0.000 N 
ATOM      8  N   UNL     1       2.315   7.521  19.170  0.00  0.00    +0.000 NA
ATOM      9  C   UNL     1       2.689   6.392  18.537  0.00  0.00    +0.000 A 
ATOM     10  C   UNL     1       2.609   5.117  19.075  0.00  0.00    +0.000 A 
ATOM     11  H   UNL     1       0.750   8.277  21.754  0.00  0.00    +0.000 HD
ATOM     12  H   UNL     1       1.262   9.235  20.413  0.00  0.00    +0.000 HD
ENDBRANCH   1  10
BRANCH   1  13
ATOM     13  N   UNL     1       4.100   4.363  17.309  0.00  0.00    +0.000 NA
ATOM     14  H   UNL     1       3.867   5.340  17.125  0.00  0.00    +0.000 HD
BRANCH  13  15
ATOM     15  C   UNL     1       5.493   4.318  17.739  0.00  0.00    +0.000 C 
BRANCH  15  16
ATOM     16  C   UNL     1       6.349   5.170  16.778  0.00  0.00    +0.000 C 
ATOM     17  C   UNL     1       5.903   6.617  16.617  0.00  0.00    +0.000 C 
ATOM     18  C   UNL     1       7.132   6.309  17.418  0.00  0.00    +0.000 C 
BRANCH  16  19
ATOM     19  C   UNL     1       6.809   4.393  15.539  0.00  0.00    +0.000 C 
BRANCH  19  20
ATOM     20  C   UNL     1       6.581   4.880  14.089  0.00  0.00    +0.000 C 
ATOM     21  C   UNL     1       7.847   5.215  13.298  0.00  0.00    +0.000 C 
ATOM     22  C   UNL     1       5.866   3.748  13.313  0.00  0.00    +0.000 C 
ENDBRANCH  19  20
BRANCH  19  23
ATOM     23  O   UNL     1       6.206   3.094  15.655  0.00  0.00    +0.000 OA
ATOM     24  H   UNL     1       6.583   2.551  14.942  0.00  0.00    +0.000 HD
ENDBRANCH  19  23
ENDBRANCH  16  19
ENDBRANCH  15  16
ENDBRANCH  13  15
ENDBRANCH   1  13
TORSDOF 7
ENDMDL
MODEL 7
REMARK VINA RESULT:      -6.8      1.627      2.856
REMARK  Name = 
REMARK  11 active torsions:
REMARK  status: ('A' for Active; 'I' for Inactive)
REMARK    1  A    between atoms: C_1  and  C_2
REMARK    2  A    between atoms: C_8  and  C_9
REMARK    3  A    between atoms: C_9  and  C_10
REMARK    4  A    between atoms: C_9  and  N_11
REMARK    5  A    between atoms: N_11  and  C_12
REMARK    6  A    between atoms: C_12  and  C_13
REMARK    7  A    between atoms: C_13  and  C_14
REMARK    8  A    between atoms: C_14  and  O_15
REMARK    9  A    between atoms: C_14  and  C_16
REMARK   10  A    between atoms: C_16  and  C_17
REMARK   11  A    between atoms: C_16  and  C_18
REMARK                            x       y       z     vdW  Elec       q    Type
REMARK                         _______ _______ _______ _____ _____    ______ ____
ROOT
ATOM      1  C   UNL     1       2.831   6.368  17.811  0.00  0.00    +0.000 C 
ATOM      2  C   UNL     1       2.214   7.725  18.155  0.00  0.00    +0.000 C 
ENDROOT
BRANCH   1  10
ATOM      3  C   UNL     1       2.315   3.385  17.310  0.00  0.00    +0.000 C 
ATOM      4  C   UNL     1       2.291   3.998  18.676  0.00  0.00    +0.000 A 
ATOM      5  N   UNL     1       2.045   3.132  19.692  0.00  0.00    +0.000 NA
ATOM      6  C   UNL     1       2.017   3.621  20.936  0.00  0.00    +0.000 A 
ATOM      7  N   UNL     1       1.793   2.739  21.971  0.00  0.00    +0.000 N 
ATOM      8  N   UNL     1       2.147   4.907  21.247  0.00  0.00    +0.000 NA
ATOM      9  C   UNL     1       2.387   5.743  20.219  0.00  0.00    +0.000 A 
ATOM     10  C   UNL     1       2.502   5.357  18.892  0.00  0.00    +0.000 A 
ATOM     11  H   UNL     1       1.288   1.938  21.623  0.00  0.00    +0.000 HD
ATOM     12  H   UNL     1       1.389   3.243  22.748  0.00  0.00    +0.000 HD
ENDBRANCH   1  10
BRANCH   1  13
ATOM     13  N   UNL     1       4.294   6.428  17.647  0.00  0.00    +0.000 NA
ATOM     14  H   UNL     1       4.636   5.520  17.968  0.00  0.00    +0.000 HD
BRANCH  13  15
ATOM     15  C   UNL     1       4.771   6.618  16.282  0.00  0.00    +0.000 C 
BRANCH  15  16
ATOM     16  C   UNL     1       5.844   5.555  15.966  0.00  0.00    +0.000 C 
ATOM     17  C   UNL     1       5.324   4.133  15.804  0.00  0.00    +0.000 C 
ATOM     18  C   UNL     1       5.750   4.905  14.592  0.00  0.00    +0.000 C 
BRANCH  16  19
ATOM     19  C   UNL     1       7.155   5.784  16.727  0.00  0.00    +0.000 C 
BRANCH  19  20
ATOM     20  C   UNL     1       7.506   5.081  18.058  0.00  0.00    +0.000 C 
ATOM     21  C   UNL     1       8.014   5.997  19.174  0.00  0.00    +0.000 C 
ATOM     22  C   UNL     1       6.219   4.408  18.596  0.00  0.00    +0.000 C 
ENDBRANCH  19  20
BRANCH  19  23
ATOM     23  O   UNL     1       7.221   7.200  16.959  0.00  0.00    +0.000 OA
ATOM     24  H   UNL     1       8.144   7.399  17.190  0.00  0.00    +0.000 HD
ENDBRANCH  19  23
ENDBRANCH  16  19
ENDBRANCH  15  16
ENDBRANCH  13  15
ENDBRANCH   1  13
TORSDOF 7
ENDMDL
MODEL 8
REMARK VINA RESULT:      -6.8      2.842      6.235
REMARK  Name = 
REMARK  11 active torsions:
REMARK  status: ('A' for Active; 'I' for Inactive)
REMARK    1  A    between atoms: C_1  and  C_2
REMARK    2  A    between atoms: C_8  and  C_9
REMARK    3  A    between atoms: C_9  and  C_10
REMARK    4  A    between atoms: C_9  and  N_11
REMARK    5  A    between atoms: N_11  and  C_12
REMARK    6  A    between atoms: C_12  and  C_13
REMARK    7  A    between atoms: C_13  and  C_14
REMARK    8  A    between atoms: C_14  and  O_15
REMARK    9  A    between atoms: C_14  and  C_16
REMARK   10  A    between atoms: C_16  and  C_17
REMARK   11  A    between atoms: C_16  and  C_18
REMARK                            x       y       z     vdW  Elec       q    Type
REMARK                         _______ _______ _______ _____ _____    ______ ____
ROOT
ATOM      1  C   UNL     1       5.006   4.994  18.038  0.00  0.00    +0.000 C 
ATOM      2  C   UNL     1       3.571   5.494  17.855  0.00  0.00    +0.000 C 
ENDROOT
BRANCH   1  10
ATOM      3  C   UNL     1       7.561   6.647  17.648  0.00  0.00    +0.000 C 
ATOM      4  C   UNL     1       6.941   5.835  16.553  0.00  0.00    +0.000 A 
ATOM      5  N   UNL     1       7.604   5.862  15.369  0.00  0.00    +0.000 NA
ATOM      6  C   UNL     1       7.099   5.152  14.356  0.00  0.00    +0.000 A 
ATOM      7  N   UNL     1       7.785   5.158  13.159  0.00  0.00    +0.000 N 
ATOM      8  N   UNL     1       5.958   4.472  14.400  0.00  0.00    +0.000 NA
ATOM      9  C   UNL     1       5.320   4.466  15.587  0.00  0.00    +0.000 A 
ATOM     10  C   UNL     1       5.768   5.108  16.731  0.00  0.00    +0.000 A 
ATOM     11  H   UNL     1       8.335   6.002  13.094  0.00  0.00    +0.000 HD
ATOM     12  H   UNL     1       7.136   4.966  12.410  0.00  0.00    +0.000 HD
ENDBRANCH   1  10
BRANCH   1  13
ATOM     13  N   UNL     1       5.072   3.598  18.505  0.00  0.00    +0.000 NA
ATOM     14  H   UNL     1       6.067   3.404  18.627  0.00  0.00    +0.000 HD
BRANCH  13  15
ATOM     15  C   UNL     1       4.411   3.324  19.776  0.00  0.00    +0.000 C 
BRANCH  15  16
ATOM     16  C   UNL     1       3.354   2.219  19.571  0.00  0.00    +0.000 C 
ATOM     17  C   UNL     1       3.022   1.896  18.121  0.00  0.00    +0.000 C 
ATOM     18  C   UNL     1       3.852   0.936  18.918  0.00  0.00    +0.000 C 
BRANCH  16  19
ATOM     19  C   UNL     1       2.217   2.281  20.598  0.00  0.00    +0.000 C 
BRANCH  19  20
ATOM     20  C   UNL     1       1.003   3.231  20.473  0.00  0.00    +0.000 C 
ATOM     21  C   UNL     1       1.320   4.724  20.588  0.00  0.00    +0.000 C 
ATOM     22  C   UNL     1       0.377   3.024  19.072  0.00  0.00    +0.000 C 
ENDBRANCH  19  20
BRANCH  19  23
ATOM     23  O   UNL     1       2.852   2.559  21.856  0.00  0.00    +0.000 OA
ATOM     24  H   UNL     1       2.940   1.705  22.313  0.00  0.00    +0.000 HD
ENDBRANCH  19  23
ENDBRANCH  16  19
ENDBRANCH  15  16
ENDBRANCH  13  15
ENDBRANCH   1  13
TORSDOF 7
ENDMDL
MODEL 9
REMARK VINA RESULT:      -6.8      1.444      2.509
REMARK  Name = 
REMARK  11 active torsions:
REMARK  status: ('A' for Active; 'I' for Inactive)
REMARK    1  A    between atoms: C_1  and  C_2
REMARK    2  A    between atoms: C_8  and  C_9
REMARK    3  A    between atoms: C_9  and  C_10
REMARK    4  A    between atoms: C_9  and  N_11
REMARK    5  A    between atoms: N_11  and  C_12
REMARK    6  A    between atoms: C_12  and  C_13
REMARK    7  A    between atoms: C_13  and  C_14
REMARK    8  A    between atoms: C_14  and  O_15
REMARK    9  A    between atoms: C_14  and  C_16
REMARK   10  A    between atoms: C_16  and  C_17
REMARK   11  A    between atoms: C_16  and  C_18
REMARK                            x       y       z     vdW  Elec       q    Type
REMARK                         _______ _______ _______ _____ _____    ______ ____
ROOT
ATOM      1  C   UNL     1       2.687   6.086  18.042  0.00  0.00    +0.000 C 
ATOM      2  C   UNL     1       2.438   7.521  18.514  0.00  0.00    +0.000 C 
ENDROOT
BRANCH   1  10
ATOM      3  C   UNL     1       1.053   3.530  17.586  0.00  0.00    +0.000 C 
ATOM      4  C   UNL     1       1.579   3.932  18.929  0.00  0.00    +0.000 A 
ATOM      5  N   UNL     1       1.301   3.069  19.939  0.00  0.00    +0.000 NA
ATOM      6  C   UNL     1       1.750   3.372  21.160  0.00  0.00    +0.000 A 
ATOM      7  N   UNL     1       1.489   2.484  22.183  0.00  0.00    +0.000 N 
ATOM      8  N   UNL     1       2.394   4.492  21.475  0.00  0.00    +0.000 NA
ATOM      9  C   UNL     1       2.653   5.331  20.454  0.00  0.00    +0.000 A 
ATOM     10  C   UNL     1       2.299   5.106  19.132  0.00  0.00    +0.000 A 
ATOM     11  H   UNL     1       0.667   1.945  21.955  0.00  0.00    +0.000 HD
ATOM     12  H   UNL     1       1.491   2.985  23.059  0.00  0.00    +0.000 HD
ENDBRANCH   1  10
BRANCH   1  13
ATOM     13  N   UNL     1       4.090   5.842  17.664  0.00  0.00    +0.000 NA
ATOM     14  H   UNL     1       4.579   5.676  18.545  0.00  0.00    +0.000 HD
BRANCH  13  15
ATOM     15  C   UNL     1       4.322   4.684  16.808  0.00  0.00    +0.000 C 
BRANCH  15  16
ATOM     16  C   UNL     1       5.807   4.653  16.388  0.00  0.00    +0.000 C 
ATOM     17  C   UNL     1       6.126   3.768  15.191  0.00  0.00    +0.000 C 
ATOM     18  C   UNL     1       6.125   5.258  15.027  0.00  0.00    +0.000 C 
BRANCH  16  19
ATOM     19  C   UNL     1       6.767   4.661  17.583  0.00  0.00    +0.000 C 
BRANCH  19  20
ATOM     20  C   UNL     1       7.064   5.917  18.434  0.00  0.00    +0.000 C 
ATOM     21  C   UNL     1       8.131   5.745  19.516  0.00  0.00    +0.000 C 
ATOM     22  C   UNL     1       7.580   7.025  17.483  0.00  0.00    +0.000 C 
ENDBRANCH  19  20
BRANCH  19  23
ATOM     23  O   UNL     1       8.021   4.183  17.070  0.00  0.00    +0.000 OA
ATOM     24  H   UNL     1       8.709   4.520  17.669  0.00  0.00    +0.000 HD
ENDBRANCH  19  23
ENDBRANCH  16  19
ENDBRANCH  15  16
ENDBRANCH  13  15
ENDBRANCH   1  13
TORSDOF 7
ENDMDL
