MODEL 1
REMARK VINA RESULT:      -5.7      0.000      0.000
REMARK  Name = 
REMARK  5 active torsions:
REMARK  status: ('A' for Active; 'I' for Inactive)
REMARK    1  A    between atoms: N_1  and  C_2
REMARK    2  A    between atoms: C_2  and  C_3
REMARK    3  A    between atoms: C_4  and  C_6
REMARK    4  A    between atoms: C_6  and  O_7
REMARK    5  A    between atoms: O_7  and  C_8
REMARK                            x       y       z     vdW  Elec       q    Type
REMARK                         _______ _______ _______ _____ _____    ______ ____
ROOT
ATOM      1  C   UNL     1       4.239   6.148  17.923  0.00  0.00    +0.000 C 
ENDROOT
BRANCH   1   3
ATOM      2  C   UNL     1       5.456   4.774  16.183  0.00  0.00    +0.000 C 
ATOM      3  C   UNL     1       4.862   5.915  16.575  0.00  0.00    +0.000 C 
ATOM      4  F   UNL     1       4.836   6.948  15.700  0.00  0.00    +0.000 F 
BRANCH   2   5
ATOM      5  C   UNL     1       6.107   4.571  14.862  0.00  0.00    +0.000 C 
BRANCH   5   6
ATOM      6  N   UNL     1       7.416   5.204  14.868  0.00  0.00    +0.000 NA
ATOM      7  H   UNL     1       8.054   4.633  15.420  0.00  0.00    +0.000 HD
ATOM      8  H   UNL     1       7.343   6.093  15.360  0.00  0.00    +0.000 HD
ENDBRANCH   5   6
ENDBRANCH   2   5
ENDBRANCH   1   3
BRANCH   1   9
ATOM      9  O   UNL     1       2.814   6.103  17.832  0.00  0.00    +0.000 OA
BRANCH   9  10
ATOM     10  C   UNL     1       2.193   5.153  18.587  0.00  0.00    +0.000 A 
ATOM     11  C   UNL     1       1.784   4.014  17.889  0.00  0.00    +0.000 A 
ATOM     12  C   UNL     1       1.150   2.967  18.559  0.00  0.00    +0.000 A 
ATOM     13  C   UNL     1       0.941   3.052  19.933  0.00  0.00    +0.000 A 
ATOM     14  C   UNL     1       1.368   4.177  20.637  0.00  0.00    +0.000 A 
ATOM     15  C   UNL     1       1.995   5.228  19.966  0.00  0.00    +0.000 A 
ENDBRANCH   9  10
ENDBRANCH   1   9
TORSDOF 5
ENDMDL
MODEL 2
REMARK VINA RESULT:      -5.7      2.097      2.282
REMARK  Name = 
REMARK  5 active torsions:
REMARK  status: ('A' for Active; 'I' for Inactive)
REMARK    1  A    between atoms: N_1  and  C_2
REMARK    2  A    between atoms: C_2  and  C_3
REMARK    3  A    between atoms: C_4  and  C_6
REMARK    4  A    between atoms: C_6  and  O_7
REMARK    5  A    between atoms: O_7  and  C_8
REMARK                            x       y       z     vdW  Elec       q    Type
REMARK                         _______ _______ _______ _____ _____    ______ ____
ROOT
ATOM      1  C   UNL     1       4.317   4.497  17.152  0.00  0.00    +0.000 C 
ENDROOT
BRANCH   1   3
ATOM      2  C   UNL     1       6.286   5.066  18.634  0.00  0.00    +0.000 C 
ATOM      3  C   UNL     1       5.585   5.227  17.499  0.00  0.00    +0.000 C 
ATOM      4  F   UNL     1       6.039   6.130  16.598  0.00  0.00    +0.000 F 
BRANCH   2   5
ATOM      5  C   UNL     1       7.516   5.827  18.983  0.00  0.00    +0.000 C 
BRANCH   5   6
ATOM      6  N   UNL     1       7.940   5.464  20.326  0.00  0.00    +0.000 NA
ATOM      7  H   UNL     1       7.343   5.942  20.999  0.00  0.00    +0.000 HD
ATOM      8  H   UNL     1       8.879   5.830  20.478  0.00  0.00    +0.000 HD
ENDBRANCH   5   6
ENDBRANCH   2   5
ENDBRANCH   1   3
BRANCH   1   9
ATOM      9  O   UNL     1       3.177   5.231  17.600  0.00  0.00    +0.000 OA
BRANCH   9  10
ATOM     10  C   UNL     1       2.375   4.603  18.505  0.00  0.00    +0.000 A 
ATOM     11  C   UNL     1       1.776   3.426  18.052  0.00  0.00    +0.000 A 
ATOM     12  C   UNL     1       0.945   2.688  18.896  0.00  0.00    +0.000 A 
ATOM     13  C   UNL     1       0.727   3.120  20.202  0.00  0.00    +0.000 A 
ATOM     14  C   UNL     1       1.340   4.282  20.665  0.00  0.00    +0.000 A 
ATOM     15  C   UNL     1       2.165   5.025  19.819  0.00  0.00    +0.000 A 
ENDBRANCH   9  10
ENDBRANCH   1   9
TORSDOF 5
ENDMDL
MODEL 3
REMARK VINA RESULT:      -5.7      2.172      2.737
REMARK  Name = 
REMARK  5 active torsions:
REMARK  status: ('A' for Active; 'I' for Inactive)
REMARK    1  A    between atoms: N_1  and  C_2
REMARK    2  A    between atoms: C_2  and  C_3
REMARK    3  A    between atoms: C_4  and  C_6
REMARK    4  A    between atoms: C_6  and  O_7
REMARK    5  A    between atoms: O_7  and  C_8
REMARK                            x       y       z     vdW  Elec       q    Type
REMARK                         _______ _______ _______ _____ _____    ______ ____
ROOT
ATOM      1  C   UNL     1       6.465   5.392  18.577  0.00  0.00    +0.000 C 
ENDROOT
BRANCH   1   3
ATOM      2  C   UNL     1       6.416   5.105  16.064  0.00  0.00    +0.000 C 
ATOM      3  C   UNL     1       6.986   4.885  17.261  0.00  0.00    +0.000 C 
ATOM      4  F   UNL     1       8.110   4.130  17.297  0.00  0.00    +0.000 F 
BRANCH   2   5
ATOM      5  C   UNL     1       6.917   4.560  14.775  0.00  0.00    +0.000 C 
BRANCH   5   6
ATOM      6  N   UNL     1       7.844   5.509  14.179  0.00  0.00    +0.000 NA
ATOM      7  H   UNL     1       8.794   5.169  14.314  0.00  0.00    +0.000 HD
ATOM      8  H   UNL     1       7.786   6.385  14.696  0.00  0.00    +0.000 HD
ENDBRANCH   5   6
ENDBRANCH   2   5
ENDBRANCH   1   3
BRANCH   1   9
ATOM      9  O   UNL     1       5.654   4.403  19.211  0.00  0.00    +0.000 OA
BRANCH   9  10
ATOM     10  C   UNL     1       4.388   4.260  18.724  0.00  0.00    +0.000 A 
ATOM     11  C   UNL     1       3.576   5.390  18.838  0.00  0.00    +0.000 A 
ATOM     12  C   UNL     1       2.265   5.367  18.361  0.00  0.00    +0.000 A 
ATOM     13  C   UNL     1       1.772   4.216  17.751  0.00  0.00    +0.000 A 
ATOM     14  C   UNL     1       2.586   3.094  17.615  0.00  0.00    +0.000 A 
ATOM     15  C   UNL     1       3.895   3.113  18.100  0.00  0.00    +0.000 A 
ENDBRANCH   9  10
ENDBRANCH   1   9
TORSDOF 5
ENDMDL
MODEL 4
REMARK VINA RESULT:      -5.6      1.126      1.721
REMARK  Name = 
REMARK  5 active torsions:
REMARK  status: ('A' for Active; 'I' for Inactive)
REMARK    1  A    between atoms: N_1  and  C_2
REMARK    2  A    between atoms: C_2  and  C_3
REMARK    3  A    between atoms: C_4  and  C_6
REMARK    4  A    between atoms: C_6  and  O_7
REMARK    5  A    between atoms: O_7  and  C_8
REMARK                            x       y       z     vdW  Elec       q    Type
REMARK                         _______ _______ _______ _____ _____    ______ ____
ROOT
ATOM      1  C   UNL     1       3.943   6.280  18.109  0.00  0.00    +0.000 C 
ENDROOT
BRANCH   1   3
ATOM      2  C   UNL     1       5.613   4.756  16.976  0.00  0.00    +0.000 C 
ATOM      3  C   UNL     1       5.209   5.980  17.356  0.00  0.00    +0.000 C 
ATOM      4  F   UNL     1       6.010   7.030  17.059  0.00  0.00    +0.000 F 
BRANCH   2   5
ATOM      5  C   UNL     1       6.889   4.467  16.270  0.00  0.00    +0.000 C 
BRANCH   5   6
ATOM      6  N   UNL     1       7.936   4.223  17.249  0.00  0.00    +0.000 NA
ATOM      7  H   UNL     1       8.234   5.115  17.639  0.00  0.00    +0.000 HD
ATOM      8  H   UNL     1       8.749   3.844  16.765  0.00  0.00    +0.000 HD
ENDBRANCH   5   6
ENDBRANCH   2   5
ENDBRANCH   1   3
BRANCH   1   9
ATOM      9  O   UNL     1       2.861   5.496  17.605  0.00  0.00    +0.000 OA
BRANCH   9  10
ATOM     10  C   UNL     1       2.237   4.684  18.505  0.00  0.00    +0.000 A 
ATOM     11  C   UNL     1       2.306   5.105  19.834  0.00  0.00    +0.000 A 
ATOM     12  C   UNL     1       1.691   4.362  20.842  0.00  0.00    +0.000 A 
ATOM     13  C   UNL     1       0.990   3.204  20.517  0.00  0.00    +0.000 A 
ATOM     14  C   UNL     1       0.899   2.792  19.189  0.00  0.00    +0.000 A 
ATOM     15  C   UNL     1       1.521   3.530  18.181  0.00  0.00    +0.000 A 
ENDBRANCH   9  10
ENDBRANCH   1   9
TORSDOF 5
ENDMDL
MODEL 5
REMARK VINA RESULT:      -5.6      1.119      1.731
REMARK  Name = 
REMARK  5 active torsions:
REMARK  status: ('A' for Active; 'I' for Inactive)
REMARK    1  A    between atoms: N_1  and  C_2
REMARK    2  A    between atoms: C_2  and  C_3
REMARK    3  A    between atoms: C_4  and  C_6
REMARK    4  A    between atoms: C_6  and  O_7
REMARK    5  A    between atoms: O_7  and  C_8
REMARK                            x       y       z     vdW  Elec       q    Type
REMARK                         _______ _______ _______ _____ _____    ______ ____
ROOT
ATOM      1  C   UNL     1       3.817   6.124  18.013  0.00  0.00    +0.000 C 
ENDROOT
BRANCH   1   3
ATOM      2  C   UNL     1       6.117   5.384  17.262  0.00  0.00    +0.000 C 
ATOM      3  C   UNL     1       4.777   5.289  17.212  0.00  0.00    +0.000 C 
ATOM      4  F   UNL     1       4.239   4.385  16.358  0.00  0.00    +0.000 F 
BRANCH   2   5
ATOM      5  C   UNL     1       7.053   4.582  16.432  0.00  0.00    +0.000 C 
BRANCH   5   6
ATOM      6  N   UNL     1       7.461   5.364  15.276  0.00  0.00    +0.000 NA
ATOM      7  H   UNL     1       7.809   6.266  15.596  0.00  0.00    +0.000 HD
ATOM      8  H   UNL     1       6.636   5.567  14.715  0.00  0.00    +0.000 HD
ENDBRANCH   5   6
ENDBRANCH   2   5
ENDBRANCH   1   3
BRANCH   1   9
ATOM      9  O   UNL     1       2.478   5.662  17.833  0.00  0.00    +0.000 OA
BRANCH   9  10
ATOM     10  C   UNL     1       2.042   4.723  18.720  0.00  0.00    +0.000 A 
ATOM     11  C   UNL     1       2.284   5.016  20.063  0.00  0.00    +0.000 A 
ATOM     12  C   UNL     1       1.869   4.136  21.063  0.00  0.00    +0.000 A 
ATOM     13  C   UNL     1       1.195   2.967  20.718  0.00  0.00    +0.000 A 
ATOM     14  C   UNL     1       0.932   2.681  19.380  0.00  0.00    +0.000 A 
ATOM     15  C   UNL     1       1.354   3.557  18.379  0.00  0.00    +0.000 A 
ENDBRANCH   9  10
ENDBRANCH   1   9
TORSDOF 5
ENDMDL
MODEL 6
REMARK VINA RESULT:      -5.6      1.760      2.201
REMARK  Name = 
REMARK  5 active torsions:
REMARK  status: ('A' for Active; 'I' for Inactive)
REMARK    1  A    between atoms: N_1  and  C_2
REMARK    2  A    between atoms: C_2  and  C_3
REMARK    3  A    between atoms: C_4  and  C_6
REMARK    4  A    between atoms: C_6  and  O_7
REMARK    5  A    between atoms: O_7  and  C_8
REMARK                            x       y       z     vdW  Elec       q    Type
REMARK                         _______ _______ _______ _____ _____    ______ ____
ROOT
ATOM      1  C   UNL     1       5.405   4.822  19.029  0.00  0.00    +0.000 C 
ENDROOT
BRANCH   1   3
ATOM      2  C   UNL     1       6.491   4.355  16.794  0.00  0.00    +0.000 C 
ATOM      3  C   UNL     1       5.477   4.844  17.528  0.00  0.00    +0.000 C 
ATOM      4  F   UNL     1       4.444   5.423  16.872  0.00  0.00    +0.000 F 
BRANCH   2   5
ATOM      5  C   UNL     1       6.571   4.422  15.310  0.00  0.00    +0.000 C 
BRANCH   5   6
ATOM      6  N   UNL     1       7.603   5.372  14.927  0.00  0.00    +0.000 NA
ATOM      7  H   UNL     1       7.236   5.978  14.196  0.00  0.00    +0.000 HD
ATOM      8  H   UNL     1       8.373   4.858  14.502  0.00  0.00    +0.000 HD
ENDBRANCH   5   6
ENDBRANCH   2   5
ENDBRANCH   1   3
BRANCH   1   9
ATOM      9  O   UNL     1       5.008   3.531  19.494  0.00  0.00    +0.000 OA
BRANCH   9  10
ATOM     10  C   UNL     1       3.665   3.304  19.565  0.00  0.00    +0.000 A 
ATOM     11  C   UNL     1       2.931   4.286  20.235  0.00  0.00    +0.000 A 
ATOM     12  C   UNL     1       1.546   4.169  20.357  0.00  0.00    +0.000 A 
ATOM     13  C   UNL     1       0.892   3.077  19.794  0.00  0.00    +0.000 A 
ATOM     14  C   UNL     1       1.618   2.106  19.106  0.00  0.00    +0.000 A 
ATOM     15  C   UNL     1       3.004   2.218  18.989  0.00  0.00    +0.000 A 
ENDBRANCH   9  10
ENDBRANCH   1   9
TORSDOF 5
ENDMDL
MODEL 7
REMARK VINA RESULT:      -5.6      2.509      3.037
REMARK  Name = 
REMARK  5 active torsions:
REMARK  status: ('A' for Active; 'I' for Inactive)
REMARK    1  A    between atoms: N_1  and  C_2
REMARK    2  A    between atoms: C_2  and  C_3
REMARK    3  A    between atoms: C_4  and  C_6
REMARK    4  A    between atoms: C_6  and  O_7
REMARK    5  A    between atoms: O_7  and  C_8
REMARK                            x       y       z     vdW  Elec       q    Type
REMARK                         _______ _______ _______ _____ _____    ______ ____
ROOT
ATOM      1  C   UNL     1       5.270   4.628  16.480  0.00  0.00    +0.000 C 
ENDROOT
BRANCH   1   3
ATOM      2  C   UNL     1       6.645   5.825  18.233  0.00  0.00    +0.000 C 
ATOM      3  C   UNL     1       6.524   4.904  17.261  0.00  0.00    +0.000 C 
ATOM      4  F   UNL     1       7.620   4.176  16.941  0.00  0.00    +0.000 F 
BRANCH   2   5
ATOM      5  C   UNL     1       7.903   6.119  18.968  0.00  0.00    +0.000 C 
BRANCH   5   6
ATOM      6  N   UNL     1       7.874   5.451  20.258  0.00  0.00    +0.000 NA
ATOM      7  H   UNL     1       6.904   5.264  20.509  0.00  0.00    +0.000 HD
ATOM      8  H   UNL     1       8.224   6.095  20.965  0.00  0.00    +0.000 HD
ENDBRANCH   5   6
ENDBRANCH   2   5
ENDBRANCH   1   3
BRANCH   1   9
ATOM      9  O   UNL     1       4.138   5.216  17.122  0.00  0.00    +0.000 OA
BRANCH   9  10
ATOM     10  C   UNL     1       3.248   4.350  17.686  0.00  0.00    +0.000 A 
ATOM     11  C   UNL     1       2.345   4.925  18.582  0.00  0.00    +0.000 A 
ATOM     12  C   UNL     1       1.378   4.140  19.209  0.00  0.00    +0.000 A 
ATOM     13  C   UNL     1       1.303   2.778  18.926  0.00  0.00    +0.000 A 
ATOM     14  C   UNL     1       2.188   2.204  18.016  0.00  0.00    +0.000 A 
ATOM     15  C   UNL     1       3.161   2.988  17.394  0.00  0.00    +0.000 A 
ENDBRANCH   9  10
ENDBRANCH   1   9
TORSDOF 5
ENDMDL
MODEL 8
REMARK VINA RESULT:      -5.6      1.300      1.300
REMARK  Name = 
REMARK  5 active torsions:
REMARK  status: ('A' for Active; 'I' for Inactive)
REMARK    1  A    between atoms: N_1  and  C_2
REMARK    2  A    between atoms: C_2  and  C_3
REMARK    3  A    between atoms: C_4  and  C_6
REMARK    4  A    between atoms: C_6  and  O_7
REMARK    5  A    between atoms: O_7  and  C_8
REMARK                            x       y       z     vdW  Elec       q    Type
REMARK                         _______ _______ _______ _____ _____    ______ ____
ROOT
ATOM      1  C   UNL     1       3.842   6.233  18.032  0.00  0.00    +0.000 C 
ENDROOT
BRANCH   1   3
ATOM      2  C   UNL     1       5.406   5.259  16.300  0.00  0.00    +0.000 C 
ATOM      3  C   UNL     1       4.857   5.247  17.526  0.00  0.00    +0.000 C 
ATOM      4  F   UNL     1       5.228   4.258  18.375  0.00  0.00    +0.000 F 
BRANCH   2   5
ATOM      5  C   UNL     1       6.377   4.251  15.797  0.00  0.00    +0.000 C 
BRANCH   5   6
ATOM      6  N   UNL     1       7.702   4.562  16.308  0.00  0.00    +0.000 NA
ATOM      7  H   UNL     1       8.267   3.715  16.293  0.00  0.00    +0.000 HD
ATOM      8  H   UNL     1       7.617   4.822  17.290  0.00  0.00    +0.000 HD
ENDBRANCH   5   6
ENDBRANCH   2   5
ENDBRANCH   1   3
BRANCH   1   9
ATOM      9  O   UNL     1       2.518   5.732  17.844  0.00  0.00    +0.000 OA
BRANCH   9  10
ATOM     10  C   UNL     1       2.066   4.859  18.789  0.00  0.00    +0.000 A 
ATOM     11  C   UNL     1       1.453   3.708  18.288  0.00  0.00    +0.000 A 
ATOM     12  C   UNL     1       0.965   2.734  19.160  0.00  0.00    +0.000 A 
ATOM     13  C   UNL     1       1.105   2.904  20.535  0.00  0.00    +0.000 A 
ATOM     14  C   UNL     1       1.736   4.040  21.038  0.00  0.00    +0.000 A 
ATOM     15  C   UNL     1       2.218   5.019  20.167  0.00  0.00    +0.000 A 
ENDBRANCH   9  10
ENDBRANCH   1   9
TORSDOF 5
ENDMDL
MODEL 9
REMARK VINA RESULT:      -5.6      1.774      2.284
REMARK  Name = 
REMARK  5 active torsions:
REMARK  status: ('A' for Active; 'I' for Inactive)
REMARK    1  A    between atoms: N_1  and  C_2
REMARK    2  A    between atoms: C_2  and  C_3
REMARK    3  A    between atoms: C_4  and  C_6
REMARK    4  A    between atoms: C_6  and  O_7
REMARK    5  A    between atoms: O_7  and  C_8
REMARK                            x       y       z     vdW  Elec       q    Type
REMARK                         _______ _______ _______ _____ _____    ______ ____
ROOT
ATOM      1  C   UNL     1       3.687   6.253  17.813  0.00  0.00    +0.000 C 
ENDROOT
BRANCH   1   3
ATOM      2  C   UNL     1       6.126   5.635  17.553  0.00  0.00    +0.000 C 
ATOM      3  C   UNL     1       5.033   5.809  18.315  0.00  0.00    +0.000 C 
ATOM      4  F   UNL     1       5.138   5.547  19.640  0.00  0.00    +0.000 F 
BRANCH   2   5
ATOM      5  C   UNL     1       7.440   5.154  18.055  0.00  0.00    +0.000 C 
BRANCH   5   6
ATOM      6  N   UNL     1       7.990   4.190  17.116  0.00  0.00    +0.000 NA
ATOM      7  H   UNL     1       8.811   3.756  17.535  0.00  0.00    +0.000 HD
ATOM      8  H   UNL     1       8.329   4.693  16.297  0.00  0.00    +0.000 HD
ENDBRANCH   5   6
ENDBRANCH   2   5
ENDBRANCH   1   3
BRANCH   1   9
ATOM      9  O   UNL     1       2.730   6.250  18.873  0.00  0.00    +0.000 OA
BRANCH   9  10
ATOM     10  C   UNL     1       2.121   5.057  19.130  0.00  0.00    +0.000 A 
ATOM     11  C   UNL     1       1.896   4.784  20.481  0.00  0.00    +0.000 A 
ATOM     12  C   UNL     1       1.265   3.600  20.864  0.00  0.00    +0.000 A 
ATOM     13  C   UNL     1       0.844   2.695  19.893  0.00  0.00    +0.000 A 
ATOM     14  C   UNL     1       1.047   2.974  18.543  0.00  0.00    +0.000 A 
ATOM     15  C   UNL     1       1.685   4.155  18.159  0.00  0.00    +0.000 A 
ENDBRANCH   9  10
ENDBRANCH   1   9
TORSDOF 5
ENDMDL
