MODEL 1
REMARK VINA RESULT:      -6.8      0.000      0.000
REMARK  Name = 
REMARK  4 active torsions:
REMARK  status: ('A' for Active; 'I' for Inactive)
REMARK    1  A    between atoms: C_1  and  N_2
REMARK    2  A    between atoms: C_6  and  C_7
REMARK    3  A    between atoms: N_9  and  C_10
REMARK    4  A    between atoms: N_19  and  C_20
REMARK                            x       y       z     vdW  Elec       q    Type
REMARK                         _______ _______ _______ _____ _____    ______ ____
ROOT
ATOM      1  C   UNL     1       3.293  14.107  19.851  0.00  0.00    +0.000 C 
ATOM      2  C   UNL     1       3.075  15.350  20.714  0.00  0.00    +0.000 C 
ATOM      3  C   UNL     1       3.799  16.482  19.993  0.00  0.00    +0.000 C 
ATOM      4  N   UNL     1       4.847  15.811  19.245  0.00  0.00    +0.000 N 
ATOM      5  C   UNL     1       6.173  16.186  19.241  0.00  0.00    +0.000 A 
ATOM      6  C   UNL     1       6.560  17.483  19.518  0.00  0.00    +0.000 A 
ATOM      7  C   UNL     1       7.904  17.775  19.465  0.00  0.00    +0.000 A 
ATOM      8  N   UNL     1       8.847  16.877  19.150  0.00  0.00    +0.000 NA
ATOM      9  C   UNL     1       8.409  15.636  18.903  0.00  0.00    +0.000 A 
ATOM     10  N   UNL     1       9.385  14.705  18.545  0.00  0.00    +0.000 N 
ATOM     11  N   UNL     1       7.110  15.269  18.940  0.00  0.00    +0.000 NA
ATOM     12  C   UNL     1       4.386  14.486  18.821  0.00  0.00    +0.000 C 
ATOM     13  H   UNL     1      10.293  15.156  18.541  0.00  0.00    +0.000 HD
ENDROOT
BRANCH  10  14
ATOM     14  C   UNL     1       9.403  13.328  18.802  0.00  0.00    +0.000 A 
ATOM     15  C   UNL     1       9.157  12.437  17.748  0.00  0.00    +0.000 A 
ATOM     16  C   UNL     1       9.092  11.061  17.979  0.00  0.00    +0.000 A 
ATOM     17  C   UNL     1       9.307  10.571  19.261  0.00  0.00    +0.000 A 
ATOM     18  F   UNL     1       9.230   9.253  19.486  0.00  0.00    +0.000 F 
ATOM     19  C   UNL     1       9.594  11.429  20.314  0.00  0.00    +0.000 A 
ATOM     20  C   UNL     1       9.636  12.805  20.083  0.00  0.00    +0.000 A 
ENDBRANCH  10  14
BRANCH   1  23
ATOM     21  C   UNL     1       1.235  12.587  20.051  0.00  0.00    +0.000 C 
ATOM     22  O   UNL     1       1.408  12.284  21.226  0.00  0.00    +0.000 OA
ATOM     23  N   UNL     1       2.064  13.469  19.377  0.00  0.00    +0.000 N 
ATOM     24  H   UNL     1       1.901  13.580  18.390  0.00  0.00    +0.000 HD
BRANCH  21  30
ATOM     25  C   UNL     1       0.967   9.638  18.900  0.00  0.00    +0.000 C 
ATOM     26  N   UNL     1       0.061  10.747  18.717  0.00  0.00    +0.000 N 
ATOM     27  C   UNL     1      -1.087  10.659  17.974  0.00  0.00    +0.000 A 
ATOM     28  N   UNL     1      -1.737  11.794  17.956  0.00  0.00    +0.000 NA
ATOM     29  C   UNL     1      -0.982  12.640  18.719  0.00  0.00    +0.000 A 
ATOM     30  C   UNL     1       0.166  12.035  19.218  0.00  0.00    +0.000 A 
ENDBRANCH  21  30
ENDBRANCH   1  23
TORSDOF 3
ENDMDL
MODEL 2
REMARK VINA RESULT:      -6.8      5.467      8.160
REMARK  Name = 
REMARK  4 active torsions:
REMARK  status: ('A' for Active; 'I' for Inactive)
REMARK    1  A    between atoms: C_1  and  N_2
REMARK    2  A    between atoms: C_6  and  C_7
REMARK    3  A    between atoms: N_9  and  C_10
REMARK    4  A    between atoms: N_19  and  C_20
REMARK                            x       y       z     vdW  Elec       q    Type
REMARK                         _______ _______ _______ _____ _____    ______ ____
ROOT
ATOM      1  C   UNL     1       1.222   9.306  21.704  0.00  0.00    +0.000 C 
ATOM      2  C   UNL     1       0.610   9.363  23.104  0.00  0.00    +0.000 C 
ATOM      3  C   UNL     1      -0.810   9.884  22.911  0.00  0.00    +0.000 C 
ATOM      4  N   UNL     1      -0.735  10.668  21.691  0.00  0.00    +0.000 N 
ATOM      5  C   UNL     1      -1.224  11.949  21.549  0.00  0.00    +0.000 A 
ATOM      6  C   UNL     1      -2.248  12.426  22.344  0.00  0.00    +0.000 A 
ATOM      7  C   UNL     1      -2.691  13.709  22.115  0.00  0.00    +0.000 A 
ATOM      8  N   UNL     1      -2.193  14.508  21.161  0.00  0.00    +0.000 NA
ATOM      9  C   UNL     1      -1.196  13.991  20.432  0.00  0.00    +0.000 A 
ATOM     10  N   UNL     1      -0.696  14.807  19.417  0.00  0.00    +0.000 N 
ATOM     11  N   UNL     1      -0.702  12.744  20.598  0.00  0.00    +0.000 NA
ATOM     12  C   UNL     1       0.248  10.078  20.779  0.00  0.00    +0.000 C 
ATOM     13  H   UNL     1      -1.197  15.688  19.418  0.00  0.00    +0.000 HD
ENDROOT
BRANCH  10  14
ATOM     14  C   UNL     1       0.613  14.865  18.919  0.00  0.00    +0.000 A 
ATOM     15  C   UNL     1       1.223  16.116  18.757  0.00  0.00    +0.000 A 
ATOM     16  C   UNL     1       2.497  16.220  18.194  0.00  0.00    +0.000 A 
ATOM     17  C   UNL     1       3.177  15.067  17.822  0.00  0.00    +0.000 A 
ATOM     18  F   UNL     1       4.393  15.165  17.268  0.00  0.00    +0.000 F 
ATOM     19  C   UNL     1       2.612  13.813  18.011  0.00  0.00    +0.000 A 
ATOM     20  C   UNL     1       1.329  13.715  18.554  0.00  0.00    +0.000 A 
ENDBRANCH  10  14
BRANCH   1  23
ATOM     21  C   UNL     1       2.024   7.538  20.025  0.00  0.00    +0.000 C 
ATOM     22  O   UNL     1       2.050   8.282  19.052  0.00  0.00    +0.000 OA
ATOM     23  N   UNL     1       1.685   7.979  21.294  0.00  0.00    +0.000 N 
ATOM     24  H   UNL     1       1.597   7.277  22.009  0.00  0.00    +0.000 HD
BRANCH  21  30
ATOM     25  C   UNL     1       4.128   6.036  18.178  0.00  0.00    +0.000 C 
ATOM     26  N   UNL     1       3.228   5.459  19.147  0.00  0.00    +0.000 N 
ATOM     27  C   UNL     1       3.161   4.112  19.396  0.00  0.00    +0.000 A 
ATOM     28  N   UNL     1       2.269   3.835  20.312  0.00  0.00    +0.000 NA
ATOM     29  C   UNL     1       1.747   5.047  20.668  0.00  0.00    +0.000 A 
ATOM     30  C   UNL     1       2.309   6.105  19.960  0.00  0.00    +0.000 A 
ENDBRANCH  21  30
ENDBRANCH   1  23
TORSDOF 3
ENDMDL
MODEL 3
REMARK VINA RESULT:      -6.7      0.731      1.178
REMARK  Name = 
REMARK  4 active torsions:
REMARK  status: ('A' for Active; 'I' for Inactive)
REMARK    1  A    between atoms: C_1  and  N_2
REMARK    2  A    between atoms: C_6  and  C_7
REMARK    3  A    between atoms: N_9  and  C_10
REMARK    4  A    between atoms: N_19  and  C_20
REMARK                            x       y       z     vdW  Elec       q    Type
REMARK                         _______ _______ _______ _____ _____    ______ ____
ROOT
ATOM      1  C   UNL     1       2.770  13.729  20.199  0.00  0.00    +0.000 C 
ATOM      2  C   UNL     1       2.476  14.869  21.174  0.00  0.00    +0.000 C 
ATOM      3  C   UNL     1       3.086  16.116  20.543  0.00  0.00    +0.000 C 
ATOM      4  N   UNL     1       4.164  15.602  19.717  0.00  0.00    +0.000 N 
ATOM      5  C   UNL     1       5.455  16.085  19.719  0.00  0.00    +0.000 A 
ATOM      6  C   UNL     1       5.744  17.380  20.103  0.00  0.00    +0.000 A 
ATOM      7  C   UNL     1       7.058  17.786  20.049  0.00  0.00    +0.000 A 
ATOM      8  N   UNL     1       8.062  16.999  19.637  0.00  0.00    +0.000 NA
ATOM      9  C   UNL     1       7.719  15.753  19.289  0.00  0.00    +0.000 A 
ATOM     10  N   UNL     1       8.756  14.941  18.829  0.00  0.00    +0.000 N 
ATOM     11  N   UNL     1       6.454  15.278  19.319  0.00  0.00    +0.000 NA
ATOM     12  C   UNL     1       3.800  14.286  19.186  0.00  0.00    +0.000 C 
ATOM     13  H   UNL     1       9.624  15.464  18.848  0.00  0.00    +0.000 HD
ENDROOT
BRANCH  10  14
ATOM     14  C   UNL     1       8.892  13.552  18.962  0.00  0.00    +0.000 A 
ATOM     15  C   UNL     1       9.170  13.015  20.226  0.00  0.00    +0.000 A 
ATOM     16  C   UNL     1       9.387  11.645  20.386  0.00  0.00    +0.000 A 
ATOM     17  C   UNL     1       9.291  10.803  19.284  0.00  0.00    +0.000 A 
ATOM     18  F   UNL     1       9.513   9.491  19.433  0.00  0.00    +0.000 F 
ATOM     19  C   UNL     1       8.974  11.305  18.029  0.00  0.00    +0.000 A 
ATOM     20  C   UNL     1       8.780  12.678  17.870  0.00  0.00    +0.000 A 
ENDBRANCH  10  14
BRANCH   1  23
ATOM     21  C   UNL     1       0.903  11.969  20.259  0.00  0.00    +0.000 C 
ATOM     22  O   UNL     1       1.192  11.507  21.358  0.00  0.00    +0.000 OA
ATOM     23  N   UNL     1       1.584  13.035  19.695  0.00  0.00    +0.000 N 
ATOM     24  H   UNL     1       1.338  13.280  18.750  0.00  0.00    +0.000 HD
BRANCH  21  30
ATOM     25  C   UNL     1       1.085   9.606  18.143  0.00  0.00    +0.000 C 
ATOM     26  N   UNL     1      -0.067  10.405  18.483  0.00  0.00    +0.000 N 
ATOM     27  C   UNL     1      -1.293  10.238  17.893  0.00  0.00    +0.000 A 
ATOM     28  N   UNL     1      -2.175  11.080  18.365  0.00  0.00    +0.000 NA
ATOM     29  C   UNL     1      -1.493  11.813  19.296  0.00  0.00    +0.000 A 
ATOM     30  C   UNL     1      -0.159  11.434  19.407  0.00  0.00    +0.000 A 
ENDBRANCH  21  30
ENDBRANCH   1  23
TORSDOF 3
ENDMDL
MODEL 4
REMARK VINA RESULT:      -6.7      2.491      8.038
REMARK  Name = 
REMARK  4 active torsions:
REMARK  status: ('A' for Active; 'I' for Inactive)
REMARK    1  A    between atoms: C_1  and  N_2
REMARK    2  A    between atoms: C_6  and  C_7
REMARK    3  A    between atoms: N_9  and  C_10
REMARK    4  A    between atoms: N_19  and  C_20
REMARK                            x       y       z     vdW  Elec       q    Type
REMARK                         _______ _______ _______ _____ _____    ______ ____
ROOT
ATOM      1  C   UNL     1       4.465  14.544  17.950  0.00  0.00    +0.000 C 
ATOM      2  C   UNL     1       3.615  15.680  17.379  0.00  0.00    +0.000 C 
ATOM      3  C   UNL     1       2.549  15.965  18.432  0.00  0.00    +0.000 C 
ATOM      4  N   UNL     1       2.402  14.703  19.134  0.00  0.00    +0.000 N 
ATOM      5  C   UNL     1       1.197  14.088  19.400  0.00  0.00    +0.000 A 
ATOM      6  C   UNL     1       0.020  14.807  19.486  0.00  0.00    +0.000 A 
ATOM      7  C   UNL     1      -1.132  14.114  19.782  0.00  0.00    +0.000 A 
ATOM      8  N   UNL     1      -1.169  12.793  20.001  0.00  0.00    +0.000 NA
ATOM      9  C   UNL     1       0.002  12.152  19.892  0.00  0.00    +0.000 A 
ATOM     10  N   UNL     1      -0.027  10.781  20.149  0.00  0.00    +0.000 N 
ATOM     11  N   UNL     1       1.174  12.758  19.600  0.00  0.00    +0.000 NA
ATOM     12  C   UNL     1       3.688  14.002  19.174  0.00  0.00    +0.000 C 
ATOM     13  H   UNL     1      -0.975  10.503  20.377  0.00  0.00    +0.000 HD
ENDROOT
BRANCH  10  14
ATOM     14  C   UNL     1       0.771   9.778  19.584  0.00  0.00    +0.000 A 
ATOM     15  C   UNL     1       1.201   8.716  20.391  0.00  0.00    +0.000 A 
ATOM     16  C   UNL     1       2.058   7.737  19.884  0.00  0.00    +0.000 A 
ATOM     17  C   UNL     1       2.461   7.801  18.556  0.00  0.00    +0.000 A 
ATOM     18  F   UNL     1       3.294   6.871  18.072  0.00  0.00    +0.000 F 
ATOM     19  C   UNL     1       2.015   8.818  17.723  0.00  0.00    +0.000 A 
ATOM     20  C   UNL     1       1.176   9.807  18.240  0.00  0.00    +0.000 A 
ENDBRANCH  10  14
BRANCH   1  23
ATOM     21  C   UNL     1       6.982  14.111  17.696  0.00  0.00    +0.000 C 
ATOM     22  O   UNL     1       6.873  13.069  17.062  0.00  0.00    +0.000 OA
ATOM     23  N   UNL     1       5.887  14.860  18.097  0.00  0.00    +0.000 N 
ATOM     24  H   UNL     1       6.070  15.647  18.696  0.00  0.00    +0.000 HD
BRANCH  21  30
ATOM     25  C   UNL     1       9.172  12.767  19.564  0.00  0.00    +0.000 C 
ATOM     26  N   UNL     1       9.210  14.074  18.952  0.00  0.00    +0.000 N 
ATOM     27  C   UNL     1      10.252  14.948  19.120  0.00  0.00    +0.000 A 
ATOM     28  N   UNL     1      10.054  16.065  18.470  0.00  0.00    +0.000 NA
ATOM     29  C   UNL     1       8.842  15.902  17.858  0.00  0.00    +0.000 A 
ATOM     30  C   UNL     1       8.262  14.668  18.134  0.00  0.00    +0.000 A 
ENDBRANCH  21  30
ENDBRANCH   1  23
TORSDOF 3
ENDMDL
MODEL 5
REMARK VINA RESULT:      -6.6      7.828     10.123
REMARK  Name = 
REMARK  4 active torsions:
REMARK  status: ('A' for Active; 'I' for Inactive)
REMARK    1  A    between atoms: C_1  and  N_2
REMARK    2  A    between atoms: C_6  and  C_7
REMARK    3  A    between atoms: N_9  and  C_10
REMARK    4  A    between atoms: N_19  and  C_20
REMARK                            x       y       z     vdW  Elec       q    Type
REMARK                         _______ _______ _______ _____ _____    ______ ____
ROOT
ATOM      1  C   UNL     1       0.980   8.213  21.049  0.00  0.00    +0.000 C 
ATOM      2  C   UNL     1       1.860   9.032  21.993  0.00  0.00    +0.000 C 
ATOM      3  C   UNL     1       0.896   9.754  22.930  0.00  0.00    +0.000 C 
ATOM      4  N   UNL     1      -0.326   9.874  22.155  0.00  0.00    +0.000 N 
ATOM      5  C   UNL     1      -1.046  11.038  21.999  0.00  0.00    +0.000 A 
ATOM      6  C   UNL     1      -0.986  12.058  22.929  0.00  0.00    +0.000 A 
ATOM      7  C   UNL     1      -1.760  13.174  22.707  0.00  0.00    +0.000 A 
ATOM      8  N   UNL     1      -2.570  13.317  21.649  0.00  0.00    +0.000 NA
ATOM      9  C   UNL     1      -2.575  12.300  20.778  0.00  0.00    +0.000 A 
ATOM     10  N   UNL     1      -3.440  12.431  19.692  0.00  0.00    +0.000 N 
ATOM     11  N   UNL     1      -1.841  11.174  20.923  0.00  0.00    +0.000 NA
ATOM     12  C   UNL     1      -0.468   8.716  21.268  0.00  0.00    +0.000 C 
ATOM     13  H   UNL     1      -3.928  13.317  19.757  0.00  0.00    +0.000 HD
ENDROOT
BRANCH  10  14
ATOM     14  C   UNL     1      -3.280  11.932  18.392  0.00  0.00    +0.000 A 
ATOM     15  C   UNL     1      -4.416  11.729  17.597  0.00  0.00    +0.000 A 
ATOM     16  C   UNL     1      -4.304  11.163  16.325  0.00  0.00    +0.000 A 
ATOM     17  C   UNL     1      -3.048  10.830  15.833  0.00  0.00    +0.000 A 
ATOM     18  F   UNL     1      -2.941  10.274  14.619  0.00  0.00    +0.000 F 
ATOM     19  C   UNL     1      -1.903  11.060  16.583  0.00  0.00    +0.000 A 
ATOM     20  C   UNL     1      -2.022  11.605  17.863  0.00  0.00    +0.000 A 
ENDBRANCH  10  14
BRANCH   1  23
ATOM     21  C   UNL     1       2.121   6.044  20.288  0.00  0.00    +0.000 C 
ATOM     22  O   UNL     1       2.891   6.572  19.494  0.00  0.00    +0.000 OA
ATOM     23  N   UNL     1       1.239   6.772  21.070  0.00  0.00    +0.000 N 
ATOM     24  H   UNL     1       0.580   6.246  21.619  0.00  0.00    +0.000 HD
BRANCH  21  30
ATOM     25  C   UNL     1       1.419   3.822  18.128  0.00  0.00    +0.000 C 
ATOM     26  N   UNL     1       1.706   3.636  19.531  0.00  0.00    +0.000 N 
ATOM     27  C   UNL     1       1.700   2.407  20.139  0.00  0.00    +0.000 A 
ATOM     28  N   UNL     1       1.986   2.498  21.411  0.00  0.00    +0.000 NA
ATOM     29  C   UNL     1       2.187   3.833  21.629  0.00  0.00    +0.000 A 
ATOM     30  C   UNL     1       2.016   4.597  20.480  0.00  0.00    +0.000 A 
ENDBRANCH  21  30
ENDBRANCH   1  23
TORSDOF 3
ENDMDL
MODEL 6
REMARK VINA RESULT:      -6.6      0.665      1.140
REMARK  Name = 
REMARK  4 active torsions:
REMARK  status: ('A' for Active; 'I' for Inactive)
REMARK    1  A    between atoms: C_1  and  N_2
REMARK    2  A    between atoms: C_6  and  C_7
REMARK    3  A    between atoms: N_9  and  C_10
REMARK    4  A    between atoms: N_19  and  C_20
REMARK                            x       y       z     vdW  Elec       q    Type
REMARK                         _______ _______ _______ _____ _____    ______ ____
ROOT
ATOM      1  C   UNL     1       3.148  13.902  19.845  0.00  0.00    +0.000 C 
ATOM      2  C   UNL     1       2.911  15.188  20.637  0.00  0.00    +0.000 C 
ATOM      3  C   UNL     1       3.584  16.296  19.834  0.00  0.00    +0.000 C 
ATOM      4  N   UNL     1       4.636  15.611  19.103  0.00  0.00    +0.000 N 
ATOM      5  C   UNL     1       5.949  16.024  19.046  0.00  0.00    +0.000 A 
ATOM      6  C   UNL     1       6.303  17.346  19.237  0.00  0.00    +0.000 A 
ATOM      7  C   UNL     1       7.636  17.674  19.135  0.00  0.00    +0.000 A 
ATOM      8  N   UNL     1       8.599  16.786  18.852  0.00  0.00    +0.000 NA
ATOM      9  C   UNL     1       8.194  15.520  18.689  0.00  0.00    +0.000 A 
ATOM     10  N   UNL     1       9.189  14.598  18.364  0.00  0.00    +0.000 N 
ATOM     11  N   UNL     1       6.907  15.118  18.778  0.00  0.00    +0.000 NA
ATOM     12  C   UNL     1       4.206  14.251  18.769  0.00  0.00    +0.000 C 
ATOM     13  H   UNL     1      10.083  15.074  18.313  0.00  0.00    +0.000 HD
ENDROOT
BRANCH  10  14
ATOM     14  C   UNL     1       9.254  13.240  18.702  0.00  0.00    +0.000 A 
ATOM     15  C   UNL     1       9.099  12.280  17.692  0.00  0.00    +0.000 A 
ATOM     16  C   UNL     1       9.083  10.918  17.999  0.00  0.00    +0.000 A 
ATOM     17  C   UNL     1       9.256  10.511  19.316  0.00  0.00    +0.000 A 
ATOM     18  F   UNL     1       9.225   9.206  19.615  0.00  0.00    +0.000 F 
ATOM     19  C   UNL     1       9.454  11.439  20.330  0.00  0.00    +0.000 A 
ATOM     20  C   UNL     1       9.448  12.801  20.021  0.00  0.00    +0.000 A 
ENDBRANCH  10  14
BRANCH   1  23
ATOM     21  C   UNL     1       1.187  12.276  20.153  0.00  0.00    +0.000 C 
ATOM     22  O   UNL     1       1.442  11.979  21.315  0.00  0.00    +0.000 OA
ATOM     23  N   UNL     1       1.929  13.202  19.438  0.00  0.00    +0.000 N 
ATOM     24  H   UNL     1       1.703  13.307  18.463  0.00  0.00    +0.000 HD
BRANCH  21  30
ATOM     25  C   UNL     1      -1.889  13.069  20.129  0.00  0.00    +0.000 C 
ATOM     26  N   UNL     1      -1.238  12.022  19.379  0.00  0.00    +0.000 N 
ATOM     27  C   UNL     1      -1.908  11.188  18.522  0.00  0.00    +0.000 A 
ATOM     28  N   UNL     1      -1.103  10.323  17.964  0.00  0.00    +0.000 NA
ATOM     29  C   UNL     1       0.131  10.613  18.476  0.00  0.00    +0.000 A 
ATOM     30  C   UNL     1       0.103  11.671  19.379  0.00  0.00    +0.000 A 
ENDBRANCH  21  30
ENDBRANCH   1  23
TORSDOF 3
ENDMDL
MODEL 7
REMARK VINA RESULT:      -6.6      0.869      1.581
REMARK  Name = 
REMARK  4 active torsions:
REMARK  status: ('A' for Active; 'I' for Inactive)
REMARK    1  A    between atoms: C_1  and  N_2
REMARK    2  A    between atoms: C_6  and  C_7
REMARK    3  A    between atoms: N_9  and  C_10
REMARK    4  A    between atoms: N_19  and  C_20
REMARK                            x       y       z     vdW  Elec       q    Type
REMARK                         _______ _______ _______ _____ _____    ______ ____
ROOT
ATOM      1  C   UNL     1       2.744  13.664  20.043  0.00  0.00    +0.000 C 
ATOM      2  C   UNL     1       2.450  14.833  20.983  0.00  0.00    +0.000 C 
ATOM      3  C   UNL     1       3.070  16.059  20.320  0.00  0.00    +0.000 C 
ATOM      4  N   UNL     1       4.150  15.515  19.515  0.00  0.00    +0.000 N 
ATOM      5  C   UNL     1       5.443  15.992  19.512  0.00  0.00    +0.000 A 
ATOM      6  C   UNL     1       5.737  17.296  19.860  0.00  0.00    +0.000 A 
ATOM      7  C   UNL     1       7.053  17.694  19.802  0.00  0.00    +0.000 A 
ATOM      8  N   UNL     1       8.055  16.891  19.418  0.00  0.00    +0.000 NA
ATOM      9  C   UNL     1       7.708  15.637  19.104  0.00  0.00    +0.000 A 
ATOM     10  N   UNL     1       8.743  14.807  18.674  0.00  0.00    +0.000 N 
ATOM     11  N   UNL     1       6.441  15.169  19.140  0.00  0.00    +0.000 NA
ATOM     12  C   UNL     1       3.782  14.187  19.020  0.00  0.00    +0.000 C 
ATOM     13  H   UNL     1       9.614  15.326  18.682  0.00  0.00    +0.000 HD
ENDROOT
BRANCH  10  14
ATOM     14  C   UNL     1       8.871  13.422  18.847  0.00  0.00    +0.000 A 
ATOM     15  C   UNL     1       9.172  12.922  20.121  0.00  0.00    +0.000 A 
ATOM     16  C   UNL     1       9.381  11.555  20.319  0.00  0.00    +0.000 A 
ATOM     17  C   UNL     1       9.256  10.681  19.246  0.00  0.00    +0.000 A 
ATOM     18  F   UNL     1       9.471   9.372  19.431  0.00  0.00    +0.000 F 
ATOM     19  C   UNL     1       8.917  11.146  17.983  0.00  0.00    +0.000 A 
ATOM     20  C   UNL     1       8.730  12.516  17.785  0.00  0.00    +0.000 A 
ENDBRANCH  10  14
BRANCH   1  23
ATOM     21  C   UNL     1       0.824  11.967  20.177  0.00  0.00    +0.000 C 
ATOM     22  O   UNL     1       1.056  11.593  21.320  0.00  0.00    +0.000 OA
ATOM     23  N   UNL     1       1.557  12.962  19.551  0.00  0.00    +0.000 N 
ATOM     24  H   UNL     1       1.355  13.132  18.580  0.00  0.00    +0.000 HD
BRANCH  21  30
ATOM     25  C   UNL     1      -2.253  12.750  20.045  0.00  0.00    +0.000 C 
ATOM     26  N   UNL     1      -1.563  11.737  19.283  0.00  0.00    +0.000 N 
ATOM     27  C   UNL     1      -2.189  10.937  18.363  0.00  0.00    +0.000 A 
ATOM     28  N   UNL     1      -1.355  10.098  17.807  0.00  0.00    +0.000 NA
ATOM     29  C   UNL     1      -0.147  10.370  18.387  0.00  0.00    +0.000 A 
ATOM     30  C   UNL     1      -0.221  11.390  19.330  0.00  0.00    +0.000 A 
ENDBRANCH  21  30
ENDBRANCH   1  23
TORSDOF 3
ENDMDL
MODEL 8
REMARK VINA RESULT:      -6.5      1.914      2.532
REMARK  Name = 
REMARK  4 active torsions:
REMARK  status: ('A' for Active; 'I' for Inactive)
REMARK    1  A    between atoms: C_1  and  N_2
REMARK    2  A    between atoms: C_6  and  C_7
REMARK    3  A    between atoms: N_9  and  C_10
REMARK    4  A    between atoms: N_19  and  C_20
REMARK                            x       y       z     vdW  Elec       q    Type
REMARK                         _______ _______ _______ _____ _____    ______ ____
ROOT
ATOM      1  C   UNL     1       5.149  15.750  20.556  0.00  0.00    +0.000 C 
ATOM      2  C   UNL     1       5.506  17.117  21.141  0.00  0.00    +0.000 C 
ATOM      3  C   UNL     1       6.112  17.911  19.988  0.00  0.00    +0.000 C 
ATOM      4  N   UNL     1       6.660  16.893  19.109  0.00  0.00    +0.000 N 
ATOM      5  C   UNL     1       7.936  16.911  18.587  0.00  0.00    +0.000 A 
ATOM      6  C   UNL     1       8.637  18.090  18.424  0.00  0.00    +0.000 A 
ATOM      7  C   UNL     1       9.894  18.016  17.870  0.00  0.00    +0.000 A 
ATOM      8  N   UNL     1      10.465  16.870  17.473  0.00  0.00    +0.000 NA
ATOM      9  C   UNL     1       9.740  15.761  17.668  0.00  0.00    +0.000 A 
ATOM     10  N   UNL     1      10.317  14.570  17.229  0.00  0.00    +0.000 N 
ATOM     11  N   UNL     1       8.502  15.750  18.210  0.00  0.00    +0.000 NA
ATOM     12  C   UNL     1       5.833  15.686  19.168  0.00  0.00    +0.000 C 
ATOM     13  H   UNL     1      11.227  14.767  16.827  0.00  0.00    +0.000 HD
ENDROOT
BRANCH  10  14
ATOM     14  C   UNL     1      10.167  13.285  17.768  0.00  0.00    +0.000 A 
ATOM     15  C   UNL     1       9.000  12.562  17.485  0.00  0.00    +0.000 A 
ATOM     16  C   UNL     1       8.780  11.310  18.064  0.00  0.00    +0.000 A 
ATOM     17  C   UNL     1       9.745  10.764  18.901  0.00  0.00    +0.000 A 
ATOM     18  F   UNL     1       9.528   9.570  19.468  0.00  0.00    +0.000 F 
ATOM     19  C   UNL     1      10.928  11.440  19.163  0.00  0.00    +0.000 A 
ATOM     20  C   UNL     1      11.134  12.702  18.600  0.00  0.00    +0.000 A 
ENDBRANCH  10  14
BRANCH   1  23
ATOM     21  C   UNL     1       3.168  14.317  21.336  0.00  0.00    +0.000 C 
ATOM     22  O   UNL     1       3.826  13.544  22.022  0.00  0.00    +0.000 OA
ATOM     23  N   UNL     1       3.734  15.390  20.666  0.00  0.00    +0.000 N 
ATOM     24  H   UNL     1       3.131  15.909  20.051  0.00  0.00    +0.000 HD
BRANCH  21  30
ATOM     25  C   UNL     1       1.676  12.855  18.942  0.00  0.00    +0.000 C 
ATOM     26  N   UNL     1       1.087  13.546  20.063  0.00  0.00    +0.000 N 
ATOM     27  C   UNL     1      -0.267  13.671  20.237  0.00  0.00    +0.000 A 
ATOM     28  N   UNL     1      -0.554  14.340  21.323  0.00  0.00    +0.000 NA
ATOM     29  C   UNL     1       0.659  14.653  21.871  0.00  0.00    +0.000 A 
ATOM     30  C   UNL     1       1.728  14.183  21.114  0.00  0.00    +0.000 A 
ENDBRANCH  21  30
ENDBRANCH   1  23
TORSDOF 3
ENDMDL
MODEL 9
REMARK VINA RESULT:      -6.5      2.712      8.016
REMARK  Name = 
REMARK  4 active torsions:
REMARK  status: ('A' for Active; 'I' for Inactive)
REMARK    1  A    between atoms: C_1  and  N_2
REMARK    2  A    between atoms: C_6  and  C_7
REMARK    3  A    between atoms: N_9  and  C_10
REMARK    4  A    between atoms: N_19  and  C_20
REMARK                            x       y       z     vdW  Elec       q    Type
REMARK                         _______ _______ _______ _____ _____    ______ ____
ROOT
ATOM      1  C   UNL     1       4.494  14.525  18.125  0.00  0.00    +0.000 C 
ATOM      2  C   UNL     1       3.638  15.618  17.483  0.00  0.00    +0.000 C 
ATOM      3  C   UNL     1       2.499  15.877  18.464  0.00  0.00    +0.000 C 
ATOM      4  N   UNL     1       2.357  14.621  19.178  0.00  0.00    +0.000 N 
ATOM      5  C   UNL     1       1.163  13.963  19.380  0.00  0.00    +0.000 A 
ATOM      6  C   UNL     1      -0.044  14.636  19.381  0.00  0.00    +0.000 A 
ATOM      7  C   UNL     1      -1.185  13.903  19.618  0.00  0.00    +0.000 A 
ATOM      8  N   UNL     1      -1.185  12.585  19.857  0.00  0.00    +0.000 NA
ATOM      9  C   UNL     1       0.014  11.989  19.832  0.00  0.00    +0.000 A 
ATOM     10  N   UNL     1       0.023  10.622  20.111  0.00  0.00    +0.000 N 
ATOM     11  N   UNL     1       1.178  12.637  19.602  0.00  0.00    +0.000 NA
ATOM     12  C   UNL     1       3.664  13.971  19.309  0.00  0.00    +0.000 C 
ATOM     13  H   UNL     1      -0.926  10.311  20.286  0.00  0.00    +0.000 HD
ENDROOT
BRANCH  10  14
ATOM     14  C   UNL     1       0.892   9.643  19.613  0.00  0.00    +0.000 A 
ATOM     15  C   UNL     1       1.331   9.736  18.286  0.00  0.00    +0.000 A 
ATOM     16  C   UNL     1       2.137   8.740  17.730  0.00  0.00    +0.000 A 
ATOM     17  C   UNL     1       2.534   7.664  18.515  0.00  0.00    +0.000 A 
ATOM     18  F   UNL     1       3.295   6.700  17.979  0.00  0.00    +0.000 F 
ATOM     19  C   UNL     1       2.148   7.570  19.845  0.00  0.00    +0.000 A 
ATOM     20  C   UNL     1       1.324   8.556  20.389  0.00  0.00    +0.000 A 
ENDBRANCH  10  14
BRANCH   1  23
ATOM     21  C   UNL     1       7.038  14.251  17.925  0.00  0.00    +0.000 C 
ATOM     22  O   UNL     1       7.008  13.271  17.190  0.00  0.00    +0.000 OA
ATOM     23  N   UNL     1       5.891  14.899  18.354  0.00  0.00    +0.000 N 
ATOM     24  H   UNL     1       6.012  15.633  19.031  0.00  0.00    +0.000 HD
BRANCH  21  30
ATOM     25  C   UNL     1       8.363  13.761  20.770  0.00  0.00    +0.000 C 
ATOM     26  N   UNL     1       8.839  14.611  19.705  0.00  0.00    +0.000 N 
ATOM     27  C   UNL     1       9.983  15.361  19.801  0.00  0.00    +0.000 A 
ATOM     28  N   UNL     1      10.202  16.048  18.710  0.00  0.00    +0.000 NA
ATOM     29  C   UNL     1       9.164  15.725  17.880  0.00  0.00    +0.000 A 
ATOM     30  C   UNL     1       8.271  14.829  18.459  0.00  0.00    +0.000 A 
ENDBRANCH  21  30
ENDBRANCH   1  23
TORSDOF 3
ENDMDL
