MODEL 1
REMARK VINA RESULT:      -7.8      0.000      0.000
REMARK  Name = 
REMARK  4 active torsions:
REMARK  status: ('A' for Active; 'I' for Inactive)
REMARK    1  A    between atoms: C_1  and  C_2
REMARK    2  A    between atoms: C_2  and  C_3
REMARK    3  A    between atoms: C_6  and  C_8
REMARK    4  A    between atoms: C_10  and  O_11
REMARK                            x       y       z     vdW  Elec       q    Type
REMARK                         _______ _______ _______ _____ _____    ______ ____
ROOT
ATOM      1  C   UNL     1       6.024   5.188  18.128  0.00  0.00    +0.000 A 
ATOM      2  C   UNL     1       6.851   6.193  18.632  0.00  0.00    +0.000 A 
ATOM      3  C   UNL     1       7.579   6.938  17.738  0.00  0.00    +0.000 A 
ATOM      4  N   UNL     1       7.635   6.689  16.426  0.00  0.00    +0.000 NA
ATOM      5  C   UNL     1       6.956   5.642  15.949  0.00  0.00    +0.000 A 
ATOM      6  C   UNL     1       7.133   5.329  14.607  0.00  0.00    +0.000 A 
ATOM      7  C   UNL     1       6.498   4.241  14.010  0.00  0.00    +0.000 A 
ATOM      8  C   UNL     1       5.627   3.466  14.757  0.00  0.00    +0.000 A 
ATOM      9  C   UNL     1       5.414   3.776  16.101  0.00  0.00    +0.000 A 
ATOM     10  C   UNL     1       6.093   4.846  16.744  0.00  0.00    +0.000 A 
ENDROOT
BRANCH   1  16
ATOM     11  C   UNL     1       2.322   2.044  18.559  0.00  0.00    +0.000 C 
ATOM     12  C   UNL     1       1.839   3.158  19.502  0.00  0.00    +0.000 C 
ATOM     13  C   UNL     1       0.935   2.540  20.574  0.00  0.00    +0.000 C 
ATOM     14  C   UNL     1       3.027   3.884  20.177  0.00  0.00    +0.000 C 
ATOM     15  N   UNL     1       3.795   4.663  19.194  0.00  0.00    +0.000 N 
ATOM     16  C   UNL     1       5.169   4.422  19.086  0.00  0.00    +0.000 C 
ATOM     17  O   UNL     1       5.720   3.574  19.789  0.00  0.00    +0.000 OA
ATOM     18  C   UNL     1       2.950   5.579  18.415  0.00  0.00    +0.000 C 
ATOM     19  C   UNL     1       1.726   4.872  17.823  0.00  0.00    +0.000 C 
ATOM     20  O   UNL     1       1.011   4.109  18.795  0.00  0.00    +0.000 OA
ENDBRANCH   1  16
BRANCH   3  21
ATOM     21  O   UNL     1       8.298   8.021  18.143  0.00  0.00    +0.000 OA
ATOM     22  H   UNL     1       7.689   8.693  18.480  0.00  0.00    +0.000 HD
ENDBRANCH   3  21
TORSDOF 2
ENDMDL
MODEL 2
REMARK VINA RESULT:      -7.7      1.398      2.028
REMARK  Name = 
REMARK  4 active torsions:
REMARK  status: ('A' for Active; 'I' for Inactive)
REMARK    1  A    between atoms: C_1  and  C_2
REMARK    2  A    between atoms: C_2  and  C_3
REMARK    3  A    between atoms: C_6  and  C_8
REMARK    4  A    between atoms: C_10  and  O_11
REMARK                            x       y       z     vdW  Elec       q    Type
REMARK                         _______ _______ _______ _____ _____    ______ ____
ROOT
ATOM      1  C   UNL     1       5.104   5.700  17.122  0.00  0.00    +0.000 A 
ATOM      2  C   UNL     1       5.985   6.376  17.966  0.00  0.00    +0.000 A 
ATOM      3  C   UNL     1       7.226   6.700  17.476  0.00  0.00    +0.000 A 
ATOM      4  N   UNL     1       7.686   6.309  16.284  0.00  0.00    +0.000 NA
ATOM      5  C   UNL     1       6.903   5.543  15.521  0.00  0.00    +0.000 A 
ATOM      6  C   UNL     1       7.452   5.045  14.346  0.00  0.00    +0.000 A 
ATOM      7  C   UNL     1       6.736   4.211  13.488  0.00  0.00    +0.000 A 
ATOM      8  C   UNL     1       5.420   3.897  13.785  0.00  0.00    +0.000 A 
ATOM      9  C   UNL     1       4.839   4.405  14.947  0.00  0.00    +0.000 A 
ATOM     10  C   UNL     1       5.567   5.211  15.863  0.00  0.00    +0.000 A 
ENDROOT
BRANCH   1  16
ATOM     11  C   UNL     1       2.397   4.643  21.038  0.00  0.00    +0.000 C 
ATOM     12  C   UNL     1       1.961   3.509  20.097  0.00  0.00    +0.000 C 
ATOM     13  C   UNL     1       0.536   3.081  20.465  0.00  0.00    +0.000 C 
ATOM     14  C   UNL     1       2.006   3.953  18.615  0.00  0.00    +0.000 C 
ATOM     15  N   UNL     1       3.391   4.168  18.171  0.00  0.00    +0.000 N 
ATOM     16  C   UNL     1       3.724   5.410  17.618  0.00  0.00    +0.000 C 
ATOM     17  O   UNL     1       2.882   6.303  17.515  0.00  0.00    +0.000 OA
ATOM     18  C   UNL     1       4.254   3.008  18.432  0.00  0.00    +0.000 C 
ATOM     19  C   UNL     1       4.138   2.517  19.878  0.00  0.00    +0.000 C 
ATOM     20  O   UNL     1       2.782   2.334  20.288  0.00  0.00    +0.000 OA
ENDBRANCH   1  16
BRANCH   3  21
ATOM     21  O   UNL     1       8.086   7.478  18.192  0.00  0.00    +0.000 OA
ATOM     22  H   UNL     1       7.647   7.760  19.007  0.00  0.00    +0.000 HD
ENDBRANCH   3  21
TORSDOF 2
ENDMDL
MODEL 3
REMARK VINA RESULT:      -6.6      2.239      5.941
REMARK  Name = 
REMARK  4 active torsions:
REMARK  status: ('A' for Active; 'I' for Inactive)
REMARK    1  A    between atoms: C_1  and  C_2
REMARK    2  A    between atoms: C_2  and  C_3
REMARK    3  A    between atoms: C_6  and  C_8
REMARK    4  A    between atoms: C_10  and  O_11
REMARK                            x       y       z     vdW  Elec       q    Type
REMARK                         _______ _______ _______ _____ _____    ______ ____
ROOT
ATOM      1  C   UNL     1       2.994   6.321  18.671  0.00  0.00    +0.000 A 
ATOM      2  C   UNL     1       2.667   7.380  19.518  0.00  0.00    +0.000 A 
ATOM      3  C   UNL     1       1.901   7.107  20.625  0.00  0.00    +0.000 A 
ATOM      4  N   UNL     1       1.352   5.916  20.880  0.00  0.00    +0.000 NA
ATOM      5  C   UNL     1       1.543   4.927  20.003  0.00  0.00    +0.000 A 
ATOM      6  C   UNL     1       0.857   3.740  20.225  0.00  0.00    +0.000 A 
ATOM      7  C   UNL     1       0.957   2.652  19.359  0.00  0.00    +0.000 A 
ATOM      8  C   UNL     1       1.797   2.731  18.260  0.00  0.00    +0.000 A 
ATOM      9  C   UNL     1       2.515   3.905  18.029  0.00  0.00    +0.000 A 
ATOM     10  C   UNL     1       2.385   5.045  18.868  0.00  0.00    +0.000 A 
ENDROOT
BRANCH   1  16
ATOM     11  C   UNL     1       5.586   4.315  15.060  0.00  0.00    +0.000 C 
ATOM     12  C   UNL     1       6.662   5.206  15.699  0.00  0.00    +0.000 C 
ATOM     13  C   UNL     1       7.685   5.594  14.626  0.00  0.00    +0.000 C 
ATOM     14  C   UNL     1       6.046   6.485  16.318  0.00  0.00    +0.000 C 
ATOM     15  N   UNL     1       5.221   6.158  17.490  0.00  0.00    +0.000 N 
ATOM     16  C   UNL     1       3.891   6.593  17.506  0.00  0.00    +0.000 C 
ATOM     17  O   UNL     1       3.421   7.225  16.560  0.00  0.00    +0.000 OA
ATOM     18  C   UNL     1       5.945   5.350  18.482  0.00  0.00    +0.000 C 
ATOM     19  C   UNL     1       6.627   4.134  17.849  0.00  0.00    +0.000 C 
ATOM     20  O   UNL     1       7.406   4.478  16.703  0.00  0.00    +0.000 OA
ENDBRANCH   1  16
BRANCH   3  21
ATOM     21  O   UNL     1       1.659   8.060  21.567  0.00  0.00    +0.000 OA
ATOM     22  H   UNL     1       1.185   7.656  22.307  0.00  0.00    +0.000 HD
ENDBRANCH   3  21
TORSDOF 2
ENDMDL
MODEL 4
REMARK VINA RESULT:      -6.6      2.344      6.243
REMARK  Name = 
REMARK  4 active torsions:
REMARK  status: ('A' for Active; 'I' for Inactive)
REMARK    1  A    between atoms: C_1  and  C_2
REMARK    2  A    between atoms: C_2  and  C_3
REMARK    3  A    between atoms: C_6  and  C_8
REMARK    4  A    between atoms: C_10  and  O_11
REMARK                            x       y       z     vdW  Elec       q    Type
REMARK                         _______ _______ _______ _____ _____    ______ ____
ROOT
ATOM      1  C   UNL     1       3.029   5.413  18.609  0.00  0.00    +0.000 A 
ATOM      2  C   UNL     1       3.123   4.495  19.654  0.00  0.00    +0.000 A 
ATOM      3  C   UNL     1       2.466   4.782  20.825  0.00  0.00    +0.000 A 
ATOM      4  N   UNL     1       1.838   5.936  21.068  0.00  0.00    +0.000 NA
ATOM      5  C   UNL     1       1.858   6.881  20.124  0.00  0.00    +0.000 A 
ATOM      6  C   UNL     1       1.310   8.115  20.449  0.00  0.00    +0.000 A 
ATOM      7  C   UNL     1       1.303   9.184  19.553  0.00  0.00    +0.000 A 
ATOM      8  C   UNL     1       1.818   9.007  18.279  0.00  0.00    +0.000 A 
ATOM      9  C   UNL     1       2.352   7.769  17.921  0.00  0.00    +0.000 A 
ATOM     10  C   UNL     1       2.420   6.684  18.837  0.00  0.00    +0.000 A 
ENDROOT
BRANCH   1  16
ATOM     11  C   UNL     1       7.163   4.014  16.434  0.00  0.00    +0.000 C 
ATOM     12  C   UNL     1       6.822   5.251  15.588  0.00  0.00    +0.000 C 
ATOM     13  C   UNL     1       7.414   5.071  14.187  0.00  0.00    +0.000 C 
ATOM     14  C   UNL     1       5.292   5.461  15.485  0.00  0.00    +0.000 C 
ATOM     15  N   UNL     1       4.723   5.846  16.785  0.00  0.00    +0.000 N 
ATOM     16  C   UNL     1       3.676   5.075  17.304  0.00  0.00    +0.000 C 
ATOM     17  O   UNL     1       3.249   4.096  16.692  0.00  0.00    +0.000 OA
ATOM     18  C   UNL     1       5.407   7.002  17.380  0.00  0.00    +0.000 C 
ATOM     19  C   UNL     1       6.929   6.826  17.400  0.00  0.00    +0.000 C 
ATOM     20  O   UNL     1       7.450   6.435  16.129  0.00  0.00    +0.000 OA
ENDBRANCH   1  16
BRANCH   3  21
ATOM     21  O   UNL     1       2.398   3.873  21.837  0.00  0.00    +0.000 OA
ATOM     22  H   UNL     1       3.122   4.040  22.457  0.00  0.00    +0.000 HD
ENDBRANCH   3  21
TORSDOF 2
ENDMDL
MODEL 5
REMARK VINA RESULT:      -6.5      2.051      6.061
REMARK  Name = 
REMARK  4 active torsions:
REMARK  status: ('A' for Active; 'I' for Inactive)
REMARK    1  A    between atoms: C_1  and  C_2
REMARK    2  A    between atoms: C_2  and  C_3
REMARK    3  A    between atoms: C_6  and  C_8
REMARK    4  A    between atoms: C_10  and  O_11
REMARK                            x       y       z     vdW  Elec       q    Type
REMARK                         _______ _______ _______ _____ _____    ______ ____
ROOT
ATOM      1  C   UNL     1       3.111   5.416  18.495  0.00  0.00    +0.000 A 
ATOM      2  C   UNL     1       2.540   6.677  18.663  0.00  0.00    +0.000 A 
ATOM      3  C   UNL     1       2.010   6.986  19.891  0.00  0.00    +0.000 A 
ATOM      4  N   UNL     1       1.902   6.118  20.900  0.00  0.00    +0.000 NA
ATOM      5  C   UNL     1       2.319   4.864  20.706  0.00  0.00    +0.000 A 
ATOM      6  C   UNL     1       2.078   3.950  21.724  0.00  0.00    +0.000 A 
ATOM      7  C   UNL     1       2.444   2.608  21.619  0.00  0.00    +0.000 A 
ATOM      8  C   UNL     1       3.107   2.170  20.485  0.00  0.00    +0.000 A 
ATOM      9  C   UNL     1       3.382   3.076  19.459  0.00  0.00    +0.000 A 
ATOM     10  C   UNL     1       2.970   4.434  19.522  0.00  0.00    +0.000 A 
ENDROOT
BRANCH   1  16
ATOM     11  C   UNL     1       7.233   3.992  16.311  0.00  0.00    +0.000 C 
ATOM     12  C   UNL     1       6.919   5.255  15.493  0.00  0.00    +0.000 C 
ATOM     13  C   UNL     1       7.517   5.098  14.091  0.00  0.00    +0.000 C 
ATOM     14  C   UNL     1       5.393   5.496  15.386  0.00  0.00    +0.000 C 
ATOM     15  N   UNL     1       4.824   5.860  16.692  0.00  0.00    +0.000 N 
ATOM     16  C   UNL     1       3.761   5.096  17.186  0.00  0.00    +0.000 C 
ATOM     17  O   UNL     1       3.319   4.140  16.549  0.00  0.00    +0.000 OA
ATOM     18  C   UNL     1       5.525   6.989  17.318  0.00  0.00    +0.000 C 
ATOM     19  C   UNL     1       7.043   6.785  17.342  0.00  0.00    +0.000 C 
ATOM     20  O   UNL     1       7.565   6.415  16.065  0.00  0.00    +0.000 OA
ENDBRANCH   1  16
BRANCH   3  21
ATOM     21  O   UNL     1       1.562   8.242  20.169  0.00  0.00    +0.000 OA
ATOM     22  H   UNL     1       0.836   8.456  19.566  0.00  0.00    +0.000 HD
ENDBRANCH   3  21
TORSDOF 2
ENDMDL
MODEL 6
REMARK VINA RESULT:      -6.4      1.911      2.982
REMARK  Name = 
REMARK  4 active torsions:
REMARK  status: ('A' for Active; 'I' for Inactive)
REMARK    1  A    between atoms: C_1  and  C_2
REMARK    2  A    between atoms: C_2  and  C_3
REMARK    3  A    between atoms: C_6  and  C_8
REMARK    4  A    between atoms: C_10  and  O_11
REMARK                            x       y       z     vdW  Elec       q    Type
REMARK                         _______ _______ _______ _____ _____    ______ ____
ROOT
ATOM      1  C   UNL     1       5.307   4.164  17.675  0.00  0.00    +0.000 A 
ATOM      2  C   UNL     1       4.828   4.006  16.374  0.00  0.00    +0.000 A 
ATOM      3  C   UNL     1       5.474   4.676  15.365  0.00  0.00    +0.000 A 
ATOM      4  N   UNL     1       6.457   5.559  15.560  0.00  0.00    +0.000 NA
ATOM      5  C   UNL     1       6.833   5.823  16.815  0.00  0.00    +0.000 A 
ATOM      6  C   UNL     1       7.766   6.835  16.998  0.00  0.00    +0.000 A 
ATOM      7  C   UNL     1       8.209   7.217  18.264  0.00  0.00    +0.000 A 
ATOM      8  C   UNL     1       7.742   6.542  19.380  0.00  0.00    +0.000 A 
ATOM      9  C   UNL     1       6.822   5.505  19.219  0.00  0.00    +0.000 A 
ATOM     10  C   UNL     1       6.316   5.137  17.943  0.00  0.00    +0.000 A 
ENDROOT
BRANCH   1  16
ATOM     11  C   UNL     1       1.082   2.507  19.459  0.00  0.00    +0.000 C 
ATOM     12  C   UNL     1       1.648   3.198  20.710  0.00  0.00    +0.000 C 
ATOM     13  C   UNL     1       1.085   2.506  21.956  0.00  0.00    +0.000 C 
ATOM     14  C   UNL     1       3.195   3.142  20.737  0.00  0.00    +0.000 C 
ATOM     15  N   UNL     1       3.771   3.976  19.672  0.00  0.00    +0.000 N 
ATOM     16  C   UNL     1       4.661   3.379  18.772  0.00  0.00    +0.000 C 
ATOM     17  O   UNL     1       4.947   2.185  18.863  0.00  0.00    +0.000 OA
ATOM     18  C   UNL     1       3.262   5.354  19.696  0.00  0.00    +0.000 C 
ATOM     19  C   UNL     1       1.732   5.403  19.759  0.00  0.00    +0.000 C 
ATOM     20  O   UNL     1       1.200   4.570  20.790  0.00  0.00    +0.000 OA
ENDBRANCH   1  16
BRANCH   3  21
ATOM     21  O   UNL     1       5.150   4.463  14.058  0.00  0.00    +0.000 OA
ATOM     22  H   UNL     1       5.727   3.774  13.702  0.00  0.00    +0.000 HD
ENDBRANCH   3  21
TORSDOF 2
ENDMDL
MODEL 7
REMARK VINA RESULT:      -6.4      4.671      7.081
REMARK  Name = 
REMARK  4 active torsions:
REMARK  status: ('A' for Active; 'I' for Inactive)
REMARK    1  A    between atoms: C_1  and  C_2
REMARK    2  A    between atoms: C_2  and  C_3
REMARK    3  A    between atoms: C_6  and  C_8
REMARK    4  A    between atoms: C_10  and  O_11
REMARK                            x       y       z     vdW  Elec       q    Type
REMARK                         _______ _______ _______ _____ _____    ______ ____
ROOT
ATOM      1  C   UNL     1       1.259   8.628  20.202  0.00  0.00    +0.000 A 
ATOM      2  C   UNL     1       1.460   8.759  21.576  0.00  0.00    +0.000 A 
ATOM      3  C   UNL     1       0.590   9.552  22.282  0.00  0.00    +0.000 A 
ATOM      4  N   UNL     1      -0.367  10.298  21.722  0.00  0.00    +0.000 NA
ATOM      5  C   UNL     1      -0.481  10.289  20.391  0.00  0.00    +0.000 A 
ATOM      6  C   UNL     1      -1.396  11.169  19.827  0.00  0.00    +0.000 A 
ATOM      7  C   UNL     1      -1.578  11.267  18.448  0.00  0.00    +0.000 A 
ATOM      8  C   UNL     1      -0.859  10.434  17.606  0.00  0.00    +0.000 A 
ATOM      9  C   UNL     1       0.048   9.525  18.151  0.00  0.00    +0.000 A 
ATOM     10  C   UNL     1       0.289   9.448  19.549  0.00  0.00    +0.000 A 
ENDROOT
BRANCH   1  16
ATOM     11  C   UNL     1       1.468   4.549  17.538  0.00  0.00    +0.000 C 
ATOM     12  C   UNL     1       2.564   4.249  18.574  0.00  0.00    +0.000 C 
ATOM     13  C   UNL     1       3.592   3.303  17.946  0.00  0.00    +0.000 C 
ATOM     14  C   UNL     1       3.267   5.545  19.045  0.00  0.00    +0.000 C 
ATOM     15  N   UNL     1       2.354   6.381  19.839  0.00  0.00    +0.000 N 
ATOM     16  C   UNL     1       2.153   7.706  19.436  0.00  0.00    +0.000 C 
ATOM     17  O   UNL     1       2.718   8.158  18.440  0.00  0.00    +0.000 OA
ATOM     18  C   UNL     1       1.736   5.645  20.950  0.00  0.00    +0.000 C 
ATOM     19  C   UNL     1       1.118   4.320  20.492  0.00  0.00    +0.000 C 
ATOM     20  O   UNL     1       2.021   3.537  19.709  0.00  0.00    +0.000 OA
ENDBRANCH   1  16
BRANCH   3  21
ATOM     21  O   UNL     1       0.640   9.617  23.642  0.00  0.00    +0.000 OA
ATOM     22  H   UNL     1       1.050   8.808  23.979  0.00  0.00    +0.000 HD
ENDBRANCH   3  21
TORSDOF 2
ENDMDL
MODEL 8
REMARK VINA RESULT:      -6.1      5.472      7.771
REMARK  Name = 
REMARK  4 active torsions:
REMARK  status: ('A' for Active; 'I' for Inactive)
REMARK    1  A    between atoms: C_1  and  C_2
REMARK    2  A    between atoms: C_2  and  C_3
REMARK    3  A    between atoms: C_6  and  C_8
REMARK    4  A    between atoms: C_10  and  O_11
REMARK                            x       y       z     vdW  Elec       q    Type
REMARK                         _______ _______ _______ _____ _____    ______ ____
ROOT
ATOM      1  C   UNL     1       0.601   9.981  19.059  0.00  0.00    +0.000 A 
ATOM      2  C   UNL     1       0.983  10.737  20.168  0.00  0.00    +0.000 A 
ATOM      3  C   UNL     1       0.037  11.540  20.756  0.00  0.00    +0.000 A 
ATOM      4  N   UNL     1      -1.190  11.734  20.267  0.00  0.00    +0.000 NA
ATOM      5  C   UNL     1      -1.523  11.123  19.126  0.00  0.00    +0.000 A 
ATOM      6  C   UNL     1      -2.757  11.440  18.572  0.00  0.00    +0.000 A 
ATOM      7  C   UNL     1      -3.195  10.886  17.370  0.00  0.00    +0.000 A 
ATOM      8  C   UNL     1      -2.402   9.955  16.720  0.00  0.00    +0.000 A 
ATOM      9  C   UNL     1      -1.169   9.602  17.270  0.00  0.00    +0.000 A 
ATOM     10  C   UNL     1      -0.679  10.195  18.465  0.00  0.00    +0.000 A 
ENDROOT
BRANCH   1  16
ATOM     11  C   UNL     1       1.477   5.370  17.736  0.00  0.00    +0.000 C 
ATOM     12  C   UNL     1       2.716   5.639  18.605  0.00  0.00    +0.000 C 
ATOM     13  C   UNL     1       3.865   4.750  18.117  0.00  0.00    +0.000 C 
ATOM     14  C   UNL     1       3.142   7.125  18.539  0.00  0.00    +0.000 C 
ATOM     15  N   UNL     1       2.148   7.988  19.195  0.00  0.00    +0.000 N 
ATOM     16  C   UNL     1       1.600   9.045  18.458  0.00  0.00    +0.000 C 
ATOM     17  O   UNL     1       1.935   9.241  17.290  0.00  0.00    +0.000 OA
ATOM     18  C   UNL     1       1.841   7.556  20.565  0.00  0.00    +0.000 C 
ATOM     19  C   UNL     1       1.506   6.063  20.637  0.00  0.00    +0.000 C 
ATOM     20  O   UNL     1       2.478   5.251  19.978  0.00  0.00    +0.000 OA
ENDBRANCH   1  16
BRANCH   3  21
ATOM     21  O   UNL     1       0.297  12.198  21.920  0.00  0.00    +0.000 OA
ATOM     22  H   UNL     1       0.362  11.552  22.637  0.00  0.00    +0.000 HD
ENDBRANCH   3  21
TORSDOF 2
ENDMDL
MODEL 9
REMARK VINA RESULT:      -6.0      2.096      3.599
REMARK  Name = 
REMARK  4 active torsions:
REMARK  status: ('A' for Active; 'I' for Inactive)
REMARK    1  A    between atoms: C_1  and  C_2
REMARK    2  A    between atoms: C_2  and  C_3
REMARK    3  A    between atoms: C_6  and  C_8
REMARK    4  A    between atoms: C_10  and  O_11
REMARK                            x       y       z     vdW  Elec       q    Type
REMARK                         _______ _______ _______ _____ _____    ______ ____
ROOT
ATOM      1  C   UNL     1       4.412   4.269  16.982  0.00  0.00    +0.000 A 
ATOM      2  C   UNL     1       4.366   4.042  15.607  0.00  0.00    +0.000 A 
ATOM      3  C   UNL     1       5.508   4.269  14.878  0.00  0.00    +0.000 A 
ATOM      4  N   UNL     1       6.624   4.802  15.382  0.00  0.00    +0.000 NA
ATOM      5  C   UNL     1       6.635   5.153  16.670  0.00  0.00    +0.000 A 
ATOM      6  C   UNL     1       7.760   5.822  17.137  0.00  0.00    +0.000 A 
ATOM      7  C   UNL     1       7.868   6.262  18.456  0.00  0.00    +0.000 A 
ATOM      8  C   UNL     1       6.845   5.991  19.349  0.00  0.00    +0.000 A 
ATOM      9  C   UNL     1       5.715   5.300  18.910  0.00  0.00    +0.000 A 
ATOM     10  C   UNL     1       5.561   4.891  17.558  0.00  0.00    +0.000 A 
ENDROOT
BRANCH   1  16
ATOM     11  C   UNL     1       2.452   4.354  21.447  0.00  0.00    +0.000 C 
ATOM     12  C   UNL     1       2.204   2.883  21.074  0.00  0.00    +0.000 C 
ATOM     13  C   UNL     1       0.968   2.383  21.828  0.00  0.00    +0.000 C 
ATOM     14  C   UNL     1       1.989   2.714  19.550  0.00  0.00    +0.000 C 
ATOM     15  N   UNL     1       3.230   2.985  18.809  0.00  0.00    +0.000 N 
ATOM     16  C   UNL     1       3.199   3.951  17.797  0.00  0.00    +0.000 C 
ATOM     17  O   UNL     1       2.163   4.564  17.539  0.00  0.00    +0.000 OA
ATOM     18  C   UNL     1       4.367   2.196  19.304  0.00  0.00    +0.000 C 
ATOM     19  C   UNL     1       4.521   2.297  20.825  0.00  0.00    +0.000 C 
ATOM     20  O   UNL     1       3.297   2.047  21.517  0.00  0.00    +0.000 OA
ENDBRANCH   1  16
BRANCH   3  21
ATOM     21  O   UNL     1       5.578   3.939  13.558  0.00  0.00    +0.000 OA
ATOM     22  H   UNL     1       6.030   4.650  13.082  0.00  0.00    +0.000 HD
ENDBRANCH   3  21
TORSDOF 2
ENDMDL
