MODEL 1
REMARK VINA RESULT:      -6.6      0.000      0.000
REMARK  Name = 
REMARK  2 active torsions:
REMARK  status: ('A' for Active; 'I' for Inactive)
REMARK    1  A    between atoms: N_1  and  C_2
REMARK    2  A    between atoms: N_11  and  C_12
REMARK                            x       y       z     vdW  Elec       q    Type
REMARK                         _______ _______ _______ _____ _____    ______ ____
ROOT
ATOM      1  C   UNL     1       2.736   3.023  21.326  0.00  0.00    +0.000 A 
ATOM      2  N   UNL     1       3.579   1.983  21.289  0.00  0.00    +0.000 NA
ATOM      3  C   UNL     1       4.571   2.048  20.383  0.00  0.00    +0.000 A 
ATOM      4  N   UNL     1       4.790   3.045  19.510  0.00  0.00    +0.000 NA
ATOM      5  C   UNL     1       3.909   4.060  19.560  0.00  0.00    +0.000 A 
ATOM      6  C   UNL     1       2.871   4.090  20.469  0.00  0.00    +0.000 A 
ATOM      7  S   UNL     1       1.928   5.564  20.369  0.00  0.00    +0.000 S 
ATOM      8  C   UNL     1       2.913   6.145  19.006  0.00  0.00    +0.000 A 
ATOM      9  S   UNL     1       2.448   7.543  18.209  0.00  0.00    +0.000 S 
ATOM     10  N   UNL     1       3.949   5.230  18.737  0.00  0.00    +0.000 N 
ENDROOT
BRANCH  10  11
ATOM     11  C   UNL     1       4.950   5.372  17.722  0.00  0.00    +0.000 A 
ATOM     12  C   UNL     1       4.762   4.814  16.446  0.00  0.00    +0.000 A 
ATOM     13  C   UNL     1       5.772   4.837  15.478  0.00  0.00    +0.000 A 
ATOM     14  C   UNL     1       6.987   5.450  15.757  0.00  0.00    +0.000 A 
ATOM     15  C   UNL     1       7.180   6.056  16.993  0.00  0.00    +0.000 A 
ATOM     16  C   UNL     1       6.171   6.019  17.965  0.00  0.00    +0.000 A 
ENDBRANCH  10  11
BRANCH   1  17
ATOM     17  N   UNL     1       1.672   2.933  22.222  0.00  0.00    +0.000 N 
ATOM     18  H   UNL     1       1.980   3.223  23.145  0.00  0.00    +0.000 HD
ATOM     19  H   UNL     1       0.840   3.418  21.901  0.00  0.00    +0.000 HD
ENDBRANCH   1  17
TORSDOF 2
ENDMDL
MODEL 2
REMARK VINA RESULT:      -6.5      0.112      1.169
REMARK  Name = 
REMARK  2 active torsions:
REMARK  status: ('A' for Active; 'I' for Inactive)
REMARK    1  A    between atoms: N_1  and  C_2
REMARK    2  A    between atoms: N_11  and  C_12
REMARK                            x       y       z     vdW  Elec       q    Type
REMARK                         _______ _______ _______ _____ _____    ______ ____
ROOT
ATOM      1  C   UNL     1       2.705   2.986  21.346  0.00  0.00    +0.000 A 
ATOM      2  N   UNL     1       3.539   1.938  21.337  0.00  0.00    +0.000 NA
ATOM      3  C   UNL     1       4.548   1.982  20.449  0.00  0.00    +0.000 A 
ATOM      4  N   UNL     1       4.793   2.966  19.570  0.00  0.00    +0.000 NA
ATOM      5  C   UNL     1       3.921   3.990  19.590  0.00  0.00    +0.000 A 
ATOM      6  C   UNL     1       2.867   4.042  20.479  0.00  0.00    +0.000 A 
ATOM      7  S   UNL     1       1.941   5.524  20.343  0.00  0.00    +0.000 S 
ATOM      8  C   UNL     1       2.957   6.078  18.992  0.00  0.00    +0.000 A 
ATOM      9  S   UNL     1       2.522   7.470  18.169  0.00  0.00    +0.000 S 
ATOM     10  N   UNL     1       3.989   5.149  18.754  0.00  0.00    +0.000 N 
ENDROOT
BRANCH  10  11
ATOM     11  C   UNL     1       5.010   5.269  17.757  0.00  0.00    +0.000 A 
ATOM     12  C   UNL     1       6.207   5.953  18.033  0.00  0.00    +0.000 A 
ATOM     13  C   UNL     1       7.166   6.185  17.041  0.00  0.00    +0.000 A 
ATOM     14  C   UNL     1       6.963   5.707  15.752  0.00  0.00    +0.000 A 
ATOM     15  C   UNL     1       5.812   4.982  15.466  0.00  0.00    +0.000 A 
ATOM     16  C   UNL     1       4.847   4.763  16.459  0.00  0.00    +0.000 A 
ENDBRANCH  10  11
BRANCH   1  17
ATOM     17  N   UNL     1       1.623   2.918  22.223  0.00  0.00    +0.000 N 
ATOM     18  H   UNL     1       1.841   2.279  22.981  0.00  0.00    +0.000 HD
ATOM     19  H   UNL     1       1.309   3.830  22.537  0.00  0.00    +0.000 HD
ENDBRANCH   1  17
TORSDOF 2
ENDMDL
MODEL 3
REMARK VINA RESULT:      -6.4      2.556      4.265
REMARK  Name = 
REMARK  2 active torsions:
REMARK  status: ('A' for Active; 'I' for Inactive)
REMARK    1  A    between atoms: N_1  and  C_2
REMARK    2  A    between atoms: N_11  and  C_12
REMARK                            x       y       z     vdW  Elec       q    Type
REMARK                         _______ _______ _______ _____ _____    ______ ____
ROOT
ATOM      1  C   UNL     1       3.091   2.056  18.493  0.00  0.00    +0.000 A 
ATOM      2  N   UNL     1       1.931   1.804  19.112  0.00  0.00    +0.000 NA
ATOM      3  C   UNL     1       1.185   2.872  19.448  0.00  0.00    +0.000 A 
ATOM      4  N   UNL     1       1.496   4.160  19.233  0.00  0.00    +0.000 NA
ATOM      5  C   UNL     1       2.680   4.376  18.633  0.00  0.00    +0.000 A 
ATOM      6  C   UNL     1       3.502   3.343  18.233  0.00  0.00    +0.000 A 
ATOM      7  S   UNL     1       4.940   3.906  17.403  0.00  0.00    +0.000 S 
ATOM      8  C   UNL     1       4.466   5.602  17.656  0.00  0.00    +0.000 A 
ATOM      9  S   UNL     1       5.542   6.815  17.236  0.00  0.00    +0.000 S 
ATOM     10  N   UNL     1       3.211   5.661  18.294  0.00  0.00    +0.000 N 
ENDROOT
BRANCH  10  11
ATOM     11  C   UNL     1       2.504   6.856  18.642  0.00  0.00    +0.000 A 
ATOM     12  C   UNL     1       2.148   7.792  17.657  0.00  0.00    +0.000 A 
ATOM     13  C   UNL     1       1.563   9.020  17.986  0.00  0.00    +0.000 A 
ATOM     14  C   UNL     1       1.291   9.326  19.314  0.00  0.00    +0.000 A 
ATOM     15  C   UNL     1       1.585   8.395  20.304  0.00  0.00    +0.000 A 
ATOM     16  C   UNL     1       2.183   7.172  19.971  0.00  0.00    +0.000 A 
ENDBRANCH  10  11
BRANCH   1  17
ATOM     17  N   UNL     1       3.894   0.956  18.195  0.00  0.00    +0.000 N 
ATOM     18  H   UNL     1       3.942   0.343  19.003  0.00  0.00    +0.000 HD
ATOM     19  H   UNL     1       3.619   0.483  17.341  0.00  0.00    +0.000 HD
ENDBRANCH   1  17
TORSDOF 2
ENDMDL
MODEL 4
REMARK VINA RESULT:      -6.4      2.579      4.385
REMARK  Name = 
REMARK  2 active torsions:
REMARK  status: ('A' for Active; 'I' for Inactive)
REMARK    1  A    between atoms: N_1  and  C_2
REMARK    2  A    between atoms: N_11  and  C_12
REMARK                            x       y       z     vdW  Elec       q    Type
REMARK                         _______ _______ _______ _____ _____    ______ ____
ROOT
ATOM      1  C   UNL     1       2.961   2.215  18.508  0.00  0.00    +0.000 A 
ATOM      2  N   UNL     1       1.802   2.012  19.147  0.00  0.00    +0.000 NA
ATOM      3  C   UNL     1       1.106   3.112  19.490  0.00  0.00    +0.000 A 
ATOM      4  N   UNL     1       1.467   4.385  19.264  0.00  0.00    +0.000 NA
ATOM      5  C   UNL     1       2.648   4.550  18.644  0.00  0.00    +0.000 A 
ATOM      6  C   UNL     1       3.421   3.482  18.236  0.00  0.00    +0.000 A 
ATOM      7  S   UNL     1       4.867   3.982  17.380  0.00  0.00    +0.000 S 
ATOM      8  C   UNL     1       4.468   5.697  17.633  0.00  0.00    +0.000 A 
ATOM      9  S   UNL     1       5.585   6.863  17.190  0.00  0.00    +0.000 S 
ATOM     10  N   UNL     1       3.227   5.810  18.290  0.00  0.00    +0.000 N 
ENDROOT
BRANCH  10  11
ATOM     11  C   UNL     1       2.575   7.035  18.644  0.00  0.00    +0.000 A 
ATOM     12  C   UNL     1       2.213   7.297  19.976  0.00  0.00    +0.000 A 
ATOM     13  C   UNL     1       1.472   8.430  20.328  0.00  0.00    +0.000 A 
ATOM     14  C   UNL     1       1.102   9.348  19.353  0.00  0.00    +0.000 A 
ATOM     15  C   UNL     1       1.493   9.141  18.034  0.00  0.00    +0.000 A 
ATOM     16  C   UNL     1       2.224   7.997  17.685  0.00  0.00    +0.000 A 
ENDBRANCH  10  11
BRANCH   1  17
ATOM     17  N   UNL     1       3.714   1.081  18.203  0.00  0.00    +0.000 N 
ATOM     18  H   UNL     1       3.968   1.097  17.220  0.00  0.00    +0.000 HD
ATOM     19  H   UNL     1       4.504   0.950  18.825  0.00  0.00    +0.000 HD
ENDBRANCH   1  17
TORSDOF 2
ENDMDL
MODEL 5
REMARK VINA RESULT:      -6.4      2.926      5.420
REMARK  Name = 
REMARK  2 active torsions:
REMARK  status: ('A' for Active; 'I' for Inactive)
REMARK    1  A    between atoms: N_1  and  C_2
REMARK    2  A    between atoms: N_11  and  C_12
REMARK                            x       y       z     vdW  Elec       q    Type
REMARK                         _______ _______ _______ _____ _____    ______ ____
ROOT
ATOM      1  C   UNL     1       6.800   5.161  16.705  0.00  0.00    +0.000 A 
ATOM      2  N   UNL     1       7.454   6.328  16.748  0.00  0.00    +0.000 NA
ATOM      3  C   UNL     1       6.769   7.383  17.225  0.00  0.00    +0.000 A 
ATOM      4  N   UNL     1       5.495   7.379  17.650  0.00  0.00    +0.000 NA
ATOM      5  C   UNL     1       4.862   6.195  17.568  0.00  0.00    +0.000 A 
ATOM      6  C   UNL     1       5.490   5.055  17.111  0.00  0.00    +0.000 A 
ATOM      7  S   UNL     1       4.459   3.639  17.188  0.00  0.00    +0.000 S 
ATOM      8  C   UNL     1       3.100   4.616  17.792  0.00  0.00    +0.000 A 
ATOM      9  S   UNL     1       1.595   3.900  17.949  0.00  0.00    +0.000 S 
ATOM     10  N   UNL     1       3.511   5.951  17.971  0.00  0.00    +0.000 N 
ENDROOT
BRANCH  10  11
ATOM     11  C   UNL     1       2.693   7.021  18.460  0.00  0.00    +0.000 A 
ATOM     12  C   UNL     1       2.287   8.061  17.609  0.00  0.00    +0.000 A 
ATOM     13  C   UNL     1       1.589   9.175  18.089  0.00  0.00    +0.000 A 
ATOM     14  C   UNL     1       1.252   9.256  19.434  0.00  0.00    +0.000 A 
ATOM     15  C   UNL     1       1.595   8.215  20.289  0.00  0.00    +0.000 A 
ATOM     16  C   UNL     1       2.307   7.107  19.807  0.00  0.00    +0.000 A 
ENDBRANCH  10  11
BRANCH   1  17
ATOM     17  N   UNL     1       7.486   4.079  16.156  0.00  0.00    +0.000 N 
ATOM     18  H   UNL     1       7.673   4.257  15.175  0.00  0.00    +0.000 HD
ATOM     19  H   UNL     1       8.312   3.822  16.687  0.00  0.00    +0.000 HD
ENDBRANCH   1  17
TORSDOF 2
ENDMDL
MODEL 6
REMARK VINA RESULT:      -6.3      2.960      5.494
REMARK  Name = 
REMARK  2 active torsions:
REMARK  status: ('A' for Active; 'I' for Inactive)
REMARK    1  A    between atoms: N_1  and  C_2
REMARK    2  A    between atoms: N_11  and  C_12
REMARK                            x       y       z     vdW  Elec       q    Type
REMARK                         _______ _______ _______ _____ _____    ______ ____
ROOT
ATOM      1  C   UNL     1       6.808   5.146  16.627  0.00  0.00    +0.000 A 
ATOM      2  N   UNL     1       7.510   6.285  16.680  0.00  0.00    +0.000 NA
ATOM      3  C   UNL     1       6.873   7.360  17.179  0.00  0.00    +0.000 A 
ATOM      4  N   UNL     1       5.605   7.402  17.617  0.00  0.00    +0.000 NA
ATOM      5  C   UNL     1       4.923   6.246  17.526  0.00  0.00    +0.000 A 
ATOM      6  C   UNL     1       5.499   5.088  17.046  0.00  0.00    +0.000 A 
ATOM      7  S   UNL     1       4.412   3.714  17.116  0.00  0.00    +0.000 S 
ATOM      8  C   UNL     1       3.101   4.737  17.748  0.00  0.00    +0.000 A 
ATOM      9  S   UNL     1       1.569   4.081  17.912  0.00  0.00    +0.000 S 
ATOM     10  N   UNL     1       3.568   6.052  17.942  0.00  0.00    +0.000 N 
ENDROOT
BRANCH  10  11
ATOM     11  C   UNL     1       2.800   7.147  18.455  0.00  0.00    +0.000 A 
ATOM     12  C   UNL     1       2.396   7.172  19.800  0.00  0.00    +0.000 A 
ATOM     13  C   UNL     1       1.547   8.168  20.294  0.00  0.00    +0.000 A 
ATOM     14  C   UNL     1       1.107   9.185  19.456  0.00  0.00    +0.000 A 
ATOM     15  C   UNL     1       1.534   9.213  18.133  0.00  0.00    +0.000 A 
ATOM     16  C   UNL     1       2.374   8.205  17.638  0.00  0.00    +0.000 A 
ENDBRANCH  10  11
BRANCH   1  17
ATOM     17  N   UNL     1       7.444   4.045  16.056  0.00  0.00    +0.000 N 
ATOM     18  H   UNL     1       7.020   3.190  16.404  0.00  0.00    +0.000 HD
ATOM     19  H   UNL     1       7.489   4.093  15.044  0.00  0.00    +0.000 HD
ENDBRANCH   1  17
TORSDOF 2
ENDMDL
MODEL 7
REMARK VINA RESULT:      -6.2      2.151      3.784
REMARK  Name = 
REMARK  2 active torsions:
REMARK  status: ('A' for Active; 'I' for Inactive)
REMARK    1  A    between atoms: N_1  and  C_2
REMARK    2  A    between atoms: N_11  and  C_12
REMARK                            x       y       z     vdW  Elec       q    Type
REMARK                         _______ _______ _______ _____ _____    ______ ____
ROOT
ATOM      1  C   UNL     1       1.847   7.420  19.869  0.00  0.00    +0.000 A 
ATOM      2  N   UNL     1       2.000   8.461  19.041  0.00  0.00    +0.000 NA
ATOM      3  C   UNL     1       2.843   8.288  18.008  0.00  0.00    +0.000 A 
ATOM      4  N   UNL     1       3.551   7.180  17.734  0.00  0.00    +0.000 NA
ATOM      5  C   UNL     1       3.392   6.164  18.601  0.00  0.00    +0.000 A 
ATOM      6  C   UNL     1       2.534   6.243  19.678  0.00  0.00    +0.000 A 
ATOM      7  S   UNL     1       2.458   4.749  20.593  0.00  0.00    +0.000 S 
ATOM      8  C   UNL     1       3.678   3.999  19.538  0.00  0.00    +0.000 A 
ATOM      9  S   UNL     1       4.283   2.491  19.944  0.00  0.00    +0.000 S 
ATOM     10  N   UNL     1       4.033   4.888  18.505  0.00  0.00    +0.000 N 
ENDROOT
BRANCH  10  11
ATOM     11  C   UNL     1       4.973   4.623  17.457  0.00  0.00    +0.000 A 
ATOM     12  C   UNL     1       6.352   4.780  17.673  0.00  0.00    +0.000 A 
ATOM     13  C   UNL     1       7.279   4.642  16.634  0.00  0.00    +0.000 A 
ATOM     14  C   UNL     1       6.847   4.310  15.356  0.00  0.00    +0.000 A 
ATOM     15  C   UNL     1       5.492   4.097  15.127  0.00  0.00    +0.000 A 
ATOM     16  C   UNL     1       4.565   4.250  16.167  0.00  0.00    +0.000 A 
ENDBRANCH  10  11
BRANCH   1  17
ATOM     17  N   UNL     1       1.020   7.614  20.974  0.00  0.00    +0.000 N 
ATOM     18  H   UNL     1       0.572   8.523  20.907  0.00  0.00    +0.000 HD
ATOM     19  H   UNL     1       0.369   6.850  21.123  0.00  0.00    +0.000 HD
ENDBRANCH   1  17
TORSDOF 2
ENDMDL
MODEL 8
REMARK VINA RESULT:      -6.2      1.556      1.963
REMARK  Name = 
REMARK  2 active torsions:
REMARK  status: ('A' for Active; 'I' for Inactive)
REMARK    1  A    between atoms: N_1  and  C_2
REMARK    2  A    between atoms: N_11  and  C_12
REMARK                            x       y       z     vdW  Elec       q    Type
REMARK                         _______ _______ _______ _____ _____    ______ ____
ROOT
ATOM      1  C   UNL     1       1.709   3.000  19.725  0.00  0.00    +0.000 A 
ATOM      2  N   UNL     1       2.007   1.719  19.476  0.00  0.00    +0.000 NA
ATOM      3  C   UNL     1       3.003   1.493  18.600  0.00  0.00    +0.000 A 
ATOM      4  N   UNL     1       3.715   2.425  17.947  0.00  0.00    +0.000 NA
ATOM      5  C   UNL     1       3.372   3.700  18.203  0.00  0.00    +0.000 A 
ATOM      6  C   UNL     1       2.377   4.028  19.101  0.00  0.00    +0.000 A 
ATOM      7  S   UNL     1       2.194   5.760  19.304  0.00  0.00    +0.000 S 
ATOM      8  C   UNL     1       3.452   6.072  18.085  0.00  0.00    +0.000 A 
ATOM      9  S   UNL     1       3.724   7.648  17.587  0.00  0.00    +0.000 S 
ATOM     10  N   UNL     1       3.997   4.854  17.634  0.00  0.00    +0.000 N 
ENDROOT
BRANCH  10  11
ATOM     11  C   UNL     1       5.044   4.712  16.667  0.00  0.00    +0.000 A 
ATOM     12  C   UNL     1       6.391   4.864  17.039  0.00  0.00    +0.000 A 
ATOM     13  C   UNL     1       7.421   4.847  16.093  0.00  0.00    +0.000 A 
ATOM     14  C   UNL     1       7.128   4.646  14.750  0.00  0.00    +0.000 A 
ATOM     15  C   UNL     1       5.809   4.441  14.361  0.00  0.00    +0.000 A 
ATOM     16  C   UNL     1       4.778   4.471  15.311  0.00  0.00    +0.000 A 
ENDBRANCH  10  11
BRANCH   1  17
ATOM     17  N   UNL     1       0.639   3.238  20.586  0.00  0.00    +0.000 N 
ATOM     18  H   UNL     1      -0.208   3.380  20.045  0.00  0.00    +0.000 HD
ATOM     19  H   UNL     1       0.546   2.531  21.308  0.00  0.00    +0.000 HD
ENDBRANCH   1  17
TORSDOF 2
ENDMDL
MODEL 9
REMARK VINA RESULT:      -6.2      2.436      3.035
REMARK  Name = 
REMARK  2 active torsions:
REMARK  status: ('A' for Active; 'I' for Inactive)
REMARK    1  A    between atoms: N_1  and  C_2
REMARK    2  A    between atoms: N_11  and  C_12
REMARK                            x       y       z     vdW  Elec       q    Type
REMARK                         _______ _______ _______ _____ _____    ______ ____
ROOT
ATOM      1  C   UNL     1       1.454   3.750  19.467  0.00  0.00    +0.000 A 
ATOM      2  N   UNL     1       1.367   4.503  20.571  0.00  0.00    +0.000 NA
ATOM      3  C   UNL     1       2.369   5.375  20.783  0.00  0.00    +0.000 A 
ATOM      4  N   UNL     1       3.447   5.554  20.004  0.00  0.00    +0.000 NA
ATOM      5  C   UNL     1       3.514   4.763  18.918  0.00  0.00    +0.000 A 
ATOM      6  C   UNL     1       2.523   3.853  18.608  0.00  0.00    +0.000 A 
ATOM      7  S   UNL     1       2.823   3.016  17.098  0.00  0.00    +0.000 S 
ATOM      8  C   UNL     1       4.375   3.860  16.895  0.00  0.00    +0.000 A 
ATOM      9  S   UNL     1       5.390   3.402  15.644  0.00  0.00    +0.000 S 
ATOM     10  N   UNL     1       4.560   4.784  17.943  0.00  0.00    +0.000 N 
ENDROOT
BRANCH  10  11
ATOM     11  C   UNL     1       5.685   5.656  18.101  0.00  0.00    +0.000 A 
ATOM     12  C   UNL     1       5.807   6.820  17.324  0.00  0.00    +0.000 A 
ATOM     13  C   UNL     1       6.952   7.623  17.376  0.00  0.00    +0.000 A 
ATOM     14  C   UNL     1       7.992   7.294  18.237  0.00  0.00    +0.000 A 
ATOM     15  C   UNL     1       7.874   6.177  19.057  0.00  0.00    +0.000 A 
ATOM     16  C   UNL     1       6.732   5.368  18.991  0.00  0.00    +0.000 A 
ENDBRANCH  10  11
BRANCH   1  17
ATOM     17  N   UNL     1       0.448   2.804  19.274  0.00  0.00    +0.000 N 
ATOM     18  H   UNL     1       0.561   2.369  18.364  0.00  0.00    +0.000 HD
ATOM     19  H   UNL     1       0.378   2.138  20.037  0.00  0.00    +0.000 HD
ENDBRANCH   1  17
TORSDOF 2
ENDMDL
