MODEL 1
REMARK VINA RESULT:      -7.9      0.000      0.000
REMARK  Name = 
REMARK  10 active torsions:
REMARK  status: ('A' for Active; 'I' for Inactive)
REMARK    1  A    between atoms: C_1  and  O_2
REMARK    2  A    between atoms: O_2  and  C_3
REMARK    3  A    between atoms: C_7  and  C_8
REMARK    4  A    between atoms: C_9  and  C_11
REMARK    5  A    between atoms: C_11  and  C_13
REMARK    6  A    between atoms: C_14  and  O_15
REMARK    7  A    between atoms: C_17  and  O_18
REMARK    8  A    between atoms: O_18  and  C_19
REMARK    9  A    between atoms: C_21  and  O_22
REMARK   10  A    between atoms: O_22  and  C_23
REMARK                            x       y       z     vdW  Elec       q    Type
REMARK                         _______ _______ _______ _____ _____    ______ ____
ROOT
ATOM      1  C   UNL     1       6.232   5.037  18.491  0.00  0.00    +0.000 C 
ATOM      2  O   UNL     1       6.941   5.620  19.306  0.00  0.00    +0.000 OA
ENDROOT
BRANCH   1   3
ATOM      3  C   UNL     1       4.808   4.745  18.803  0.00  0.00    +0.000 A 
ATOM      4  C   UNL     1       4.457   3.476  19.305  0.00  0.00    +0.000 A 
ATOM      5  C   UNL     1       3.128   3.153  19.583  0.00  0.00    +0.000 A 
ATOM      6  C   UNL     1       2.103   4.058  19.334  0.00  0.00    +0.000 A 
ATOM      7  C   UNL     1       2.428   5.312  18.819  0.00  0.00    +0.000 A 
ATOM      8  C   UNL     1       3.772   5.670  18.559  0.00  0.00    +0.000 A 
BRANCH   4   9
ATOM      9  O   UNL     1       5.329   2.450  19.565  0.00  0.00    +0.000 OA
ATOM     10  H   UNL     1       6.004   2.704  20.213  0.00  0.00    +0.000 HD
ENDBRANCH   4   9
BRANCH   6  11
ATOM     11  O   UNL     1       0.852   3.597  19.633  0.00  0.00    +0.000 OA
ATOM     12  C   UNL     1       0.442   2.383  19.023  0.00  0.00    +0.000 C 
ENDBRANCH   6  11
BRANCH   8  13
ATOM     13  O   UNL     1       3.906   7.002  18.252  0.00  0.00    +0.000 OA
ATOM     14  C   UNL     1       2.723   7.739  17.958  0.00  0.00    +0.000 C 
ENDBRANCH   8  13
ENDBRANCH   1   3
BRANCH   1  16
ATOM     15  C   UNL     1       5.958   4.998  16.056  0.00  0.00    +0.000 C 
ATOM     16  C   UNL     1       6.742   4.758  17.121  0.00  0.00    +0.000 C 
ATOM     17  F   UNL     1       7.950   4.171  17.025  0.00  0.00    +0.000 F 
BRANCH  15  22
ATOM     18  C   UNL     1       5.954   3.520  12.577  0.00  0.00    +0.000 A 
ATOM     19  C   UNL     1       7.111   4.094  12.050  0.00  0.00    +0.000 A 
ATOM     20  C   UNL     1       7.855   5.003  12.804  0.00  0.00    +0.000 A 
ATOM     21  C   UNL     1       7.451   5.322  14.101  0.00  0.00    +0.000 A 
ATOM     22  C   UNL     1       6.294   4.750  14.649  0.00  0.00    +0.000 A 
ATOM     23  C   UNL     1       5.549   3.856  13.871  0.00  0.00    +0.000 A 
BRANCH  18  25
ATOM     24  C   UNL     1       4.100   3.072  11.167  0.00  0.00    +0.000 C 
ATOM     25  O   UNL     1       5.317   2.628  11.756  0.00  0.00    +0.000 OA
ENDBRANCH  18  25
ENDBRANCH  15  22
ENDBRANCH   1  16
TORSDOF 7
ENDMDL
MODEL 2
REMARK VINA RESULT:      -7.7      1.230      1.242
REMARK  Name = 
REMARK  10 active torsions:
REMARK  status: ('A' for Active; 'I' for Inactive)
REMARK    1  A    between atoms: C_1  and  O_2
REMARK    2  A    between atoms: O_2  and  C_3
REMARK    3  A    between atoms: C_7  and  C_8
REMARK    4  A    between atoms: C_9  and  C_11
REMARK    5  A    between atoms: C_11  and  C_13
REMARK    6  A    between atoms: C_14  and  O_15
REMARK    7  A    between atoms: C_17  and  O_18
REMARK    8  A    between atoms: O_18  and  C_19
REMARK    9  A    between atoms: C_21  and  O_22
REMARK   10  A    between atoms: O_22  and  C_23
REMARK                            x       y       z     vdW  Elec       q    Type
REMARK                         _______ _______ _______ _____ _____    ______ ____
ROOT
ATOM      1  C   UNL     1       5.740   5.865  17.883  0.00  0.00    +0.000 C 
ATOM      2  O   UNL     1       6.692   6.368  18.474  0.00  0.00    +0.000 OA
ENDROOT
BRANCH   1   3
ATOM      3  C   UNL     1       4.512   5.479  18.626  0.00  0.00    +0.000 A 
ATOM      4  C   UNL     1       4.447   4.213  19.242  0.00  0.00    +0.000 A 
ATOM      5  C   UNL     1       3.300   3.802  19.924  0.00  0.00    +0.000 A 
ATOM      6  C   UNL     1       2.171   4.609  19.981  0.00  0.00    +0.000 A 
ATOM      7  C   UNL     1       2.209   5.857  19.360  0.00  0.00    +0.000 A 
ATOM      8  C   UNL     1       3.371   6.306  18.690  0.00  0.00    +0.000 A 
BRANCH   4   9
ATOM      9  O   UNL     1       5.445   3.274  19.246  0.00  0.00    +0.000 OA
ATOM     10  H   UNL     1       5.278   2.570  19.892  0.00  0.00    +0.000 HD
ENDBRANCH   4   9
BRANCH   6  11
ATOM     11  O   UNL     1       1.118   4.067  20.661  0.00  0.00    +0.000 OA
ATOM     12  C   UNL     1       1.353   2.862  21.372  0.00  0.00    +0.000 C 
ENDBRANCH   6  11
BRANCH   8  13
ATOM     13  O   UNL     1       3.284   7.627  18.325  0.00  0.00    +0.000 OA
ATOM     14  C   UNL     1       2.003   8.134  17.965  0.00  0.00    +0.000 C 
ENDBRANCH   8  13
ENDBRANCH   1   3
BRANCH   1  16
ATOM     15  C   UNL     1       6.403   4.791  15.783  0.00  0.00    +0.000 C 
ATOM     16  C   UNL     1       5.740   5.785  16.397  0.00  0.00    +0.000 C 
ATOM     17  F   UNL     1       5.150   6.795  15.729  0.00  0.00    +0.000 F 
BRANCH  15  22
ATOM     18  C   UNL     1       5.921   3.393  12.305  0.00  0.00    +0.000 A 
ATOM     19  C   UNL     1       6.966   4.019  11.626  0.00  0.00    +0.000 A 
ATOM     20  C   UNL     1       7.786   4.936  12.285  0.00  0.00    +0.000 A 
ATOM     21  C   UNL     1       7.573   5.212  13.637  0.00  0.00    +0.000 A 
ATOM     22  C   UNL     1       6.530   4.586  14.335  0.00  0.00    +0.000 A 
ATOM     23  C   UNL     1       5.705   3.685  13.653  0.00  0.00    +0.000 A 
BRANCH  18  25
ATOM     24  C   UNL     1       3.940   2.955  11.075  0.00  0.00    +0.000 C 
ATOM     25  O   UNL     1       5.196   2.498  11.564  0.00  0.00    +0.000 OA
ENDBRANCH  18  25
ENDBRANCH  15  22
ENDBRANCH   1  16
TORSDOF 7
ENDMDL
MODEL 3
REMARK VINA RESULT:      -7.5      3.180      7.564
REMARK  Name = 
REMARK  10 active torsions:
REMARK  status: ('A' for Active; 'I' for Inactive)
REMARK    1  A    between atoms: C_1  and  O_2
REMARK    2  A    between atoms: O_2  and  C_3
REMARK    3  A    between atoms: C_7  and  C_8
REMARK    4  A    between atoms: C_9  and  C_11
REMARK    5  A    between atoms: C_11  and  C_13
REMARK    6  A    between atoms: C_14  and  O_15
REMARK    7  A    between atoms: C_17  and  O_18
REMARK    8  A    between atoms: O_18  and  C_19
REMARK    9  A    between atoms: C_21  and  O_22
REMARK   10  A    between atoms: O_22  and  C_23
REMARK                            x       y       z     vdW  Elec       q    Type
REMARK                         _______ _______ _______ _____ _____    ______ ____
ROOT
ATOM      1  C   UNL     1       3.527   4.144  19.607  0.00  0.00    +0.000 C 
ATOM      2  O   UNL     1       3.488   3.111  20.272  0.00  0.00    +0.000 OA
ENDROOT
BRANCH   1   3
ATOM      3  C   UNL     1       4.466   4.266  18.461  0.00  0.00    +0.000 A 
ATOM      4  C   UNL     1       4.028   3.913  17.169  0.00  0.00    +0.000 A 
ATOM      5  C   UNL     1       4.888   3.987  16.072  0.00  0.00    +0.000 A 
ATOM      6  C   UNL     1       6.215   4.369  16.224  0.00  0.00    +0.000 A 
ATOM      7  C   UNL     1       6.672   4.704  17.499  0.00  0.00    +0.000 A 
ATOM      8  C   UNL     1       5.809   4.665  18.619  0.00  0.00    +0.000 A 
BRANCH   4   9
ATOM      9  O   UNL     1       2.772   3.472  16.843  0.00  0.00    +0.000 OA
ATOM     10  H   UNL     1       2.755   3.033  15.979  0.00  0.00    +0.000 HD
ENDBRANCH   4   9
BRANCH   6  11
ATOM     11  O   UNL     1       6.943   4.373  15.069  0.00  0.00    +0.000 OA
ATOM     12  C   UNL     1       6.274   3.993  13.877  0.00  0.00    +0.000 C 
ENDBRANCH   6  11
BRANCH   8  13
ATOM     13  O   UNL     1       6.383   5.219  19.737  0.00  0.00    +0.000 OA
ATOM     14  C   UNL     1       7.722   5.693  19.632  0.00  0.00    +0.000 C 
ENDBRANCH   8  13
ENDBRANCH   1   3
BRANCH   1  16
ATOM     15  C   UNL     1       2.867   6.503  19.632  0.00  0.00    +0.000 C 
ATOM     16  C   UNL     1       2.527   5.220  19.840  0.00  0.00    +0.000 C 
ATOM     17  F   UNL     1       1.339   4.851  20.358  0.00  0.00    +0.000 F 
BRANCH  15  22
ATOM     18  C   UNL     1       0.418   8.920  21.196  0.00  0.00    +0.000 A 
ATOM     19  C   UNL     1       0.194   9.791  20.129  0.00  0.00    +0.000 A 
ATOM     20  C   UNL     1       0.884   9.624  18.926  0.00  0.00    +0.000 A 
ATOM     21  C   UNL     1       1.785   8.568  18.783  0.00  0.00    +0.000 A 
ATOM     22  C   UNL     1       2.016   7.680  19.844  0.00  0.00    +0.000 A 
ATOM     23  C   UNL     1       1.331   7.874  21.049  0.00  0.00    +0.000 A 
BRANCH  18  25
ATOM     24  C   UNL     1      -0.579  10.535  22.619  0.00  0.00    +0.000 C 
ATOM     25  O   UNL     1      -0.329   9.167  22.317  0.00  0.00    +0.000 OA
ENDBRANCH  18  25
ENDBRANCH  15  22
ENDBRANCH   1  16
TORSDOF 7
ENDMDL
MODEL 4
REMARK VINA RESULT:      -7.4      2.870      7.179
REMARK  Name = 
REMARK  10 active torsions:
REMARK  status: ('A' for Active; 'I' for Inactive)
REMARK    1  A    between atoms: C_1  and  O_2
REMARK    2  A    between atoms: O_2  and  C_3
REMARK    3  A    between atoms: C_7  and  C_8
REMARK    4  A    between atoms: C_9  and  C_11
REMARK    5  A    between atoms: C_11  and  C_13
REMARK    6  A    between atoms: C_14  and  O_15
REMARK    7  A    between atoms: C_17  and  O_18
REMARK    8  A    between atoms: O_18  and  C_19
REMARK    9  A    between atoms: C_21  and  O_22
REMARK   10  A    between atoms: O_22  and  C_23
REMARK                            x       y       z     vdW  Elec       q    Type
REMARK                         _______ _______ _______ _____ _____    ______ ____
ROOT
ATOM      1  C   UNL     1       3.696   4.022  19.639  0.00  0.00    +0.000 C 
ATOM      2  O   UNL     1       3.691   2.963  20.261  0.00  0.00    +0.000 OA
ENDROOT
BRANCH   1   3
ATOM      3  C   UNL     1       4.585   4.199  18.460  0.00  0.00    +0.000 A 
ATOM      4  C   UNL     1       4.102   3.876  17.177  0.00  0.00    +0.000 A 
ATOM      5  C   UNL     1       4.915   4.001  16.049  0.00  0.00    +0.000 A 
ATOM      6  C   UNL     1       6.239   4.406  16.160  0.00  0.00    +0.000 A 
ATOM      7  C   UNL     1       6.741   4.712  17.425  0.00  0.00    +0.000 A 
ATOM      8  C   UNL     1       5.925   4.621  18.577  0.00  0.00    +0.000 A 
BRANCH   4   9
ATOM      9  O   UNL     1       2.842   3.419  16.888  0.00  0.00    +0.000 OA
ATOM     10  H   UNL     1       2.244   4.139  16.636  0.00  0.00    +0.000 HD
ENDBRANCH   4   9
BRANCH   6  11
ATOM     11  O   UNL     1       6.919   4.460  14.976  0.00  0.00    +0.000 OA
ATOM     12  C   UNL     1       6.261   3.957  13.824  0.00  0.00    +0.000 C 
ENDBRANCH   6  11
BRANCH   8  13
ATOM     13  O   UNL     1       6.533   5.153  19.688  0.00  0.00    +0.000 OA
ATOM     14  C   UNL     1       7.821   5.738  19.525  0.00  0.00    +0.000 C 
ENDBRANCH   8  13
ENDBRANCH   1   3
BRANCH   1  16
ATOM     15  C   UNL     1       2.897   6.335  19.519  0.00  0.00    +0.000 C 
ATOM     16  C   UNL     1       2.700   5.081  19.958  0.00  0.00    +0.000 C 
ATOM     17  F   UNL     1       1.685   4.740  20.776  0.00  0.00    +0.000 F 
BRANCH  15  22
ATOM     18  C   UNL     1       1.187   9.683  19.126  0.00  0.00    +0.000 A 
ATOM     19  C   UNL     1       0.596   9.823  20.382  0.00  0.00    +0.000 A 
ATOM     20  C   UNL     1       0.706   8.804  21.330  0.00  0.00    +0.000 A 
ATOM     21  C   UNL     1       1.429   7.649  21.027  0.00  0.00    +0.000 A 
ATOM     22  C   UNL     1       2.034   7.496  19.771  0.00  0.00    +0.000 A 
ATOM     23  C   UNL     1       1.897   8.519  18.826  0.00  0.00    +0.000 A 
BRANCH  18  25
ATOM     24  C   UNL     1       1.886  11.868  18.521  0.00  0.00    +0.000 C 
ATOM     25  O   UNL     1       1.033  10.754  18.286  0.00  0.00    +0.000 OA
ENDBRANCH  18  25
ENDBRANCH  15  22
ENDBRANCH   1  16
TORSDOF 7
ENDMDL
MODEL 5
REMARK VINA RESULT:      -7.4      4.729      6.461
REMARK  Name = 
REMARK  10 active torsions:
REMARK  status: ('A' for Active; 'I' for Inactive)
REMARK    1  A    between atoms: C_1  and  O_2
REMARK    2  A    between atoms: O_2  and  C_3
REMARK    3  A    between atoms: C_7  and  C_8
REMARK    4  A    between atoms: C_9  and  C_11
REMARK    5  A    between atoms: C_11  and  C_13
REMARK    6  A    between atoms: C_14  and  O_15
REMARK    7  A    between atoms: C_17  and  O_18
REMARK    8  A    between atoms: O_18  and  C_19
REMARK    9  A    between atoms: C_21  and  O_22
REMARK   10  A    between atoms: O_22  and  C_23
REMARK                            x       y       z     vdW  Elec       q    Type
REMARK                         _______ _______ _______ _____ _____    ______ ____
ROOT
ATOM      1  C   UNL     1       7.066   6.673  17.131  0.00  0.00    +0.000 C 
ATOM      2  O   UNL     1       7.482   6.360  16.019  0.00  0.00    +0.000 OA
ENDROOT
BRANCH   1   3
ATOM      3  C   UNL     1       5.934   5.934  17.748  0.00  0.00    +0.000 A 
ATOM      4  C   UNL     1       6.155   4.646  18.274  0.00  0.00    +0.000 A 
ATOM      5  C   UNL     1       5.111   3.908  18.835  0.00  0.00    +0.000 A 
ATOM      6  C   UNL     1       3.812   4.401  18.853  0.00  0.00    +0.000 A 
ATOM      7  C   UNL     1       3.570   5.666  18.319  0.00  0.00    +0.000 A 
ATOM      8  C   UNL     1       4.619   6.443  17.774  0.00  0.00    +0.000 A 
BRANCH   4   9
ATOM      9  O   UNL     1       7.357   3.987  18.298  0.00  0.00    +0.000 OA
ATOM     10  H   UNL     1       7.570   3.591  17.439  0.00  0.00    +0.000 HD
ENDBRANCH   4   9
BRANCH   6  11
ATOM     11  O   UNL     1       2.892   3.560  19.411  0.00  0.00    +0.000 OA
ATOM     12  C   UNL     1       3.031   2.173  19.146  0.00  0.00    +0.000 C 
ENDBRANCH   6  11
BRANCH   8  13
ATOM     13  O   UNL     1       4.221   7.726  17.487  0.00  0.00    +0.000 OA
ATOM     14  C   UNL     1       2.886   8.097  17.815  0.00  0.00    +0.000 C 
ENDBRANCH   8  13
ENDBRANCH   1   3
BRANCH   1  16
ATOM     15  C   UNL     1       7.775   8.978  17.565  0.00  0.00    +0.000 C 
ATOM     16  C   UNL     1       7.792   7.689  17.942  0.00  0.00    +0.000 C 
ATOM     17  F   UNL     1       8.530   7.235  18.974  0.00  0.00    +0.000 F 
BRANCH  15  22
ATOM     18  C   UNL     1       9.231  12.401  18.237  0.00  0.00    +0.000 A 
ATOM     19  C   UNL     1       9.996  12.140  19.375  0.00  0.00    +0.000 A 
ATOM     20  C   UNL     1       9.988  10.869  19.953  0.00  0.00    +0.000 A 
ATOM     21  C   UNL     1       9.229   9.849  19.377  0.00  0.00    +0.000 A 
ATOM     22  C   UNL     1       8.461  10.093  18.229  0.00  0.00    +0.000 A 
ATOM     23  C   UNL     1       8.464  11.379  17.675  0.00  0.00    +0.000 A 
BRANCH  18  25
ATOM     24  C   UNL     1      10.649  14.207  17.638  0.00  0.00    +0.000 C 
ATOM     25  O   UNL     1       9.332  13.675  17.746  0.00  0.00    +0.000 OA
ENDBRANCH  18  25
ENDBRANCH  15  22
ENDBRANCH   1  16
TORSDOF 7
ENDMDL
MODEL 6
REMARK VINA RESULT:      -7.0      3.036      7.336
REMARK  Name = 
REMARK  10 active torsions:
REMARK  status: ('A' for Active; 'I' for Inactive)
REMARK    1  A    between atoms: C_1  and  O_2
REMARK    2  A    between atoms: O_2  and  C_3
REMARK    3  A    between atoms: C_7  and  C_8
REMARK    4  A    between atoms: C_9  and  C_11
REMARK    5  A    between atoms: C_11  and  C_13
REMARK    6  A    between atoms: C_14  and  O_15
REMARK    7  A    between atoms: C_17  and  O_18
REMARK    8  A    between atoms: O_18  and  C_19
REMARK    9  A    between atoms: C_21  and  O_22
REMARK   10  A    between atoms: O_22  and  C_23
REMARK                            x       y       z     vdW  Elec       q    Type
REMARK                         _______ _______ _______ _____ _____    ______ ____
ROOT
ATOM      1  C   UNL     1       3.669   4.266  19.732  0.00  0.00    +0.000 C 
ATOM      2  O   UNL     1       3.759   3.318  20.508  0.00  0.00    +0.000 OA
ENDROOT
BRANCH   1   3
ATOM      3  C   UNL     1       4.561   4.355  18.546  0.00  0.00    +0.000 A 
ATOM      4  C   UNL     1       5.893   4.782  18.714  0.00  0.00    +0.000 A 
ATOM      5  C   UNL     1       6.753   4.907  17.621  0.00  0.00    +0.000 A 
ATOM      6  C   UNL     1       6.311   4.657  16.328  0.00  0.00    +0.000 A 
ATOM      7  C   UNL     1       4.989   4.253  16.139  0.00  0.00    +0.000 A 
ATOM      8  C   UNL     1       4.110   4.091  17.236  0.00  0.00    +0.000 A 
BRANCH   4   9
ATOM      9  O   UNL     1       6.482   5.114  19.906  0.00  0.00    +0.000 OA
ATOM     10  H   UNL     1       6.816   6.024  19.905  0.00  0.00    +0.000 HD
ENDBRANCH   4   9
BRANCH   6  11
ATOM     11  O   UNL     1       7.254   4.843  15.358  0.00  0.00    +0.000 OA
ATOM     12  C   UNL     1       6.860   4.615  14.014  0.00  0.00    +0.000 C 
ENDBRANCH   6  11
BRANCH   8  13
ATOM     13  O   UNL     1       2.927   3.498  16.870  0.00  0.00    +0.000 OA
ATOM     14  C   UNL     1       2.626   2.219  17.420  0.00  0.00    +0.000 C 
ENDBRANCH   8  13
ENDBRANCH   1   3
BRANCH   1  16
ATOM     15  C   UNL     1       2.833   6.565  19.862  0.00  0.00    +0.000 C 
ATOM     16  C   UNL     1       2.563   5.249  19.879  0.00  0.00    +0.000 C 
ATOM     17  F   UNL     1       1.334   4.756  20.132  0.00  0.00    +0.000 F 
BRANCH  15  22
ATOM     18  C   UNL     1       0.878   9.742  19.251  0.00  0.00    +0.000 A 
ATOM     19  C   UNL     1       0.220   9.881  20.473  0.00  0.00    +0.000 A 
ATOM     20  C   UNL     1       0.367   8.913  21.468  0.00  0.00    +0.000 A 
ATOM     21  C   UNL     1       1.195   7.811  21.247  0.00  0.00    +0.000 A 
ATOM     22  C   UNL     1       1.869   7.659  20.026  0.00  0.00    +0.000 A 
ATOM     23  C   UNL     1       1.694   8.629  19.033  0.00  0.00    +0.000 A 
BRANCH  18  25
ATOM     24  C   UNL     1      -0.526  11.506  18.515  0.00  0.00    +0.000 C 
ATOM     25  O   UNL     1       0.677  10.762  18.360  0.00  0.00    +0.000 OA
ENDBRANCH  18  25
ENDBRANCH  15  22
ENDBRANCH   1  16
TORSDOF 7
ENDMDL
MODEL 7
REMARK VINA RESULT:      -7.0      4.474      6.618
REMARK  Name = 
REMARK  10 active torsions:
REMARK  status: ('A' for Active; 'I' for Inactive)
REMARK    1  A    between atoms: C_1  and  O_2
REMARK    2  A    between atoms: O_2  and  C_3
REMARK    3  A    between atoms: C_7  and  C_8
REMARK    4  A    between atoms: C_9  and  C_11
REMARK    5  A    between atoms: C_11  and  C_13
REMARK    6  A    between atoms: C_14  and  O_15
REMARK    7  A    between atoms: C_17  and  O_18
REMARK    8  A    between atoms: O_18  and  C_19
REMARK    9  A    between atoms: C_21  and  O_22
REMARK   10  A    between atoms: O_22  and  C_23
REMARK                            x       y       z     vdW  Elec       q    Type
REMARK                         _______ _______ _______ _____ _____    ______ ____
ROOT
ATOM      1  C   UNL     1       7.077   6.757  17.136  0.00  0.00    +0.000 C 
ATOM      2  O   UNL     1       7.388   6.575  15.962  0.00  0.00    +0.000 OA
ENDROOT
BRANCH   1   3
ATOM      3  C   UNL     1       5.960   5.990  17.747  0.00  0.00    +0.000 A 
ATOM      4  C   UNL     1       6.219   4.727  18.315  0.00  0.00    +0.000 A 
ATOM      5  C   UNL     1       5.193   3.963  18.872  0.00  0.00    +0.000 A 
ATOM      6  C   UNL     1       3.875   4.403  18.846  0.00  0.00    +0.000 A 
ATOM      7  C   UNL     1       3.596   5.642  18.270  0.00  0.00    +0.000 A 
ATOM      8  C   UNL     1       4.626   6.446  17.727  0.00  0.00    +0.000 A 
BRANCH   4   9
ATOM      9  O   UNL     1       7.446   4.119  18.386  0.00  0.00    +0.000 OA
ATOM     10  H   UNL     1       7.600   3.526  17.634  0.00  0.00    +0.000 HD
ENDBRANCH   4   9
BRANCH   6  11
ATOM     11  O   UNL     1       2.976   3.542  19.407  0.00  0.00    +0.000 OA
ATOM     12  C   UNL     1       2.770   2.299  18.754  0.00  0.00    +0.000 C 
ENDBRANCH   6  11
BRANCH   8  13
ATOM     13  O   UNL     1       4.184   7.703  17.395  0.00  0.00    +0.000 OA
ATOM     14  C   UNL     1       2.881   8.085  17.822  0.00  0.00    +0.000 C 
ENDBRANCH   8  13
ENDBRANCH   1   3
BRANCH   1  16
ATOM     15  C   UNL     1       8.077   8.924  17.690  0.00  0.00    +0.000 C 
ATOM     16  C   UNL     1       7.914   7.629  18.004  0.00  0.00    +0.000 C 
ATOM     17  F   UNL     1       8.563   7.034  19.024  0.00  0.00    +0.000 F 
BRANCH  15  22
ATOM     18  C   UNL     1       9.439  11.102  20.462  0.00  0.00    +0.000 A 
ATOM     19  C   UNL     1      10.262  11.964  19.736  0.00  0.00    +0.000 A 
ATOM     20  C   UNL     1      10.417  11.796  18.359  0.00  0.00    +0.000 A 
ATOM     21  C   UNL     1       9.728  10.776  17.702  0.00  0.00    +0.000 A 
ATOM     22  C   UNL     1       8.892   9.906  18.416  0.00  0.00    +0.000 A 
ATOM     23  C   UNL     1       8.764  10.075  19.799  0.00  0.00    +0.000 A 
BRANCH  18  25
ATOM     24  C   UNL     1       8.381  12.349  22.181  0.00  0.00    +0.000 C 
ATOM     25  O   UNL     1       9.346  11.374  21.801  0.00  0.00    +0.000 OA
ENDBRANCH  18  25
ENDBRANCH  15  22
ENDBRANCH   1  16
TORSDOF 7
ENDMDL
MODEL 8
REMARK VINA RESULT:      -7.0      1.660      2.856
REMARK  Name = 
REMARK  10 active torsions:
REMARK  status: ('A' for Active; 'I' for Inactive)
REMARK    1  A    between atoms: C_1  and  O_2
REMARK    2  A    between atoms: O_2  and  C_3
REMARK    3  A    between atoms: C_7  and  C_8
REMARK    4  A    between atoms: C_9  and  C_11
REMARK    5  A    between atoms: C_11  and  C_13
REMARK    6  A    between atoms: C_14  and  O_15
REMARK    7  A    between atoms: C_17  and  O_18
REMARK    8  A    between atoms: O_18  and  C_19
REMARK    9  A    between atoms: C_21  and  O_22
REMARK   10  A    between atoms: O_22  and  C_23
REMARK                            x       y       z     vdW  Elec       q    Type
REMARK                         _______ _______ _______ _____ _____    ______ ____
ROOT
ATOM      1  C   UNL     1       5.526   4.520  18.076  0.00  0.00    +0.000 C 
ATOM      2  O   UNL     1       6.598   4.400  18.664  0.00  0.00    +0.000 OA
ENDROOT
BRANCH   1   3
ATOM      3  C   UNL     1       4.326   5.026  18.792  0.00  0.00    +0.000 A 
ATOM      4  C   UNL     1       3.869   6.334  18.536  0.00  0.00    +0.000 A 
ATOM      5  C   UNL     1       2.764   6.856  19.210  0.00  0.00    +0.000 A 
ATOM      6  C   UNL     1       2.105   6.119  20.187  0.00  0.00    +0.000 A 
ATOM      7  C   UNL     1       2.555   4.829  20.469  0.00  0.00    +0.000 A 
ATOM      8  C   UNL     1       3.654   4.270  19.775  0.00  0.00    +0.000 A 
BRANCH   4   9
ATOM      9  O   UNL     1       4.424   7.214  17.643  0.00  0.00    +0.000 OA
ATOM     10  H   UNL     1       5.157   6.816  17.150  0.00  0.00    +0.000 HD
ENDBRANCH   4   9
BRANCH   6  11
ATOM     11  O   UNL     1       1.057   6.765  20.777  0.00  0.00    +0.000 OA
ATOM     12  C   UNL     1       1.248   8.125  21.133  0.00  0.00    +0.000 C 
ENDBRANCH   6  11
BRANCH   8  13
ATOM     13  O   UNL     1       3.816   2.934  20.047  0.00  0.00    +0.000 OA
ATOM     14  C   UNL     1       3.138   1.999  19.213  0.00  0.00    +0.000 C 
ENDBRANCH   8  13
ENDBRANCH   1   3
BRANCH   1  16
ATOM     15  C   UNL     1       6.534   4.559  15.843  0.00  0.00    +0.000 C 
ATOM     16  C   UNL     1       5.454   4.314  16.604  0.00  0.00    +0.000 C 
ATOM     17  F   UNL     1       4.253   3.985  16.089  0.00  0.00    +0.000 F 
BRANCH  15  22
ATOM     18  C   UNL     1       6.079   3.270  12.319  0.00  0.00    +0.000 A 
ATOM     19  C   UNL     1       7.005   4.056  11.633  0.00  0.00    +0.000 A 
ATOM     20  C   UNL     1       7.730   5.041  12.306  0.00  0.00    +0.000 A 
ATOM     21  C   UNL     1       7.544   5.225  13.677  0.00  0.00    +0.000 A 
ATOM     22  C   UNL     1       6.621   4.439  14.383  0.00  0.00    +0.000 A 
ATOM     23  C   UNL     1       5.888   3.470  13.688  0.00  0.00    +0.000 A 
BRANCH  18  25
ATOM     24  C   UNL     1       6.224   1.200  11.168  0.00  0.00    +0.000 C 
ATOM     25  O   UNL     1       5.442   2.323  11.562  0.00  0.00    +0.000 OA
ENDBRANCH  18  25
ENDBRANCH  15  22
ENDBRANCH   1  16
TORSDOF 7
ENDMDL
MODEL 9
REMARK VINA RESULT:      -6.9      2.950      7.336
REMARK  Name = 
REMARK  10 active torsions:
REMARK  status: ('A' for Active; 'I' for Inactive)
REMARK    1  A    between atoms: C_1  and  O_2
REMARK    2  A    between atoms: O_2  and  C_3
REMARK    3  A    between atoms: C_7  and  C_8
REMARK    4  A    between atoms: C_9  and  C_11
REMARK    5  A    between atoms: C_11  and  C_13
REMARK    6  A    between atoms: C_14  and  O_15
REMARK    7  A    between atoms: C_17  and  O_18
REMARK    8  A    between atoms: O_18  and  C_19
REMARK    9  A    between atoms: C_21  and  O_22
REMARK   10  A    between atoms: O_22  and  C_23
REMARK                            x       y       z     vdW  Elec       q    Type
REMARK                         _______ _______ _______ _____ _____    ______ ____
ROOT
ATOM      1  C   UNL     1       3.941   4.081  19.757  0.00  0.00    +0.000 C 
ATOM      2  O   UNL     1       3.844   3.030  20.384  0.00  0.00    +0.000 OA
ENDROOT
BRANCH   1   3
ATOM      3  C   UNL     1       4.845   4.177  18.581  0.00  0.00    +0.000 A 
ATOM      4  C   UNL     1       6.106   4.788  18.727  0.00  0.00    +0.000 A 
ATOM      5  C   UNL     1       6.972   4.923  17.640  0.00  0.00    +0.000 A 
ATOM      6  C   UNL     1       6.600   4.499  16.370  0.00  0.00    +0.000 A 
ATOM      7  C   UNL     1       5.348   3.909  16.202  0.00  0.00    +0.000 A 
ATOM      8  C   UNL     1       4.468   3.735  17.296  0.00  0.00    +0.000 A 
BRANCH   4   9
ATOM      9  O   UNL     1       6.615   5.304  19.891  0.00  0.00    +0.000 OA
ATOM     10  H   UNL     1       6.798   6.253  19.817  0.00  0.00    +0.000 HD
ENDBRANCH   4   9
BRANCH   6  11
ATOM     11  O   UNL     1       7.538   4.716  15.401  0.00  0.00    +0.000 OA
ATOM     12  C   UNL     1       7.081   4.802  14.060  0.00  0.00    +0.000 C 
ENDBRANCH   6  11
BRANCH   8  13
ATOM     13  O   UNL     1       3.381   2.961  16.972  0.00  0.00    +0.000 OA
ATOM     14  C   UNL     1       2.087   3.535  17.121  0.00  0.00    +0.000 C 
ENDBRANCH   8  13
ENDBRANCH   1   3
BRANCH   1  16
ATOM     15  C   UNL     1       3.061   6.321  19.296  0.00  0.00    +0.000 C 
ATOM     16  C   UNL     1       3.038   5.222  20.068  0.00  0.00    +0.000 C 
ATOM     17  F   UNL     1       2.303   5.132  21.194  0.00  0.00    +0.000 F 
BRANCH  15  22
ATOM     18  C   UNL     1       0.774   8.908  20.834  0.00  0.00    +0.000 A 
ATOM     19  C   UNL     1       0.534   9.730  19.733  0.00  0.00    +0.000 A 
ATOM     20  C   UNL     1       1.162   9.476  18.513  0.00  0.00    +0.000 A 
ATOM     21  C   UNL     1       2.017   8.380  18.387  0.00  0.00    +0.000 A 
ATOM     22  C   UNL     1       2.263   7.539  19.482  0.00  0.00    +0.000 A 
ATOM     23  C   UNL     1       1.641   7.821  20.704  0.00  0.00    +0.000 A 
BRANCH  18  25
ATOM     24  C   UNL     1      -0.346  10.592  22.074  0.00  0.00    +0.000 C 
ATOM     25  O   UNL     1       0.088   9.239  21.972  0.00  0.00    +0.000 OA
ENDBRANCH  18  25
ENDBRANCH  15  22
ENDBRANCH   1  16
TORSDOF 7
ENDMDL
