MODEL 1
REMARK VINA RESULT:      -7.6      0.000      0.000
REMARK  Name = 
REMARK  7 active torsions:
REMARK  status: ('A' for Active; 'I' for Inactive)
REMARK    1  A    between atoms: C_1  and  C_2
REMARK    2  A    between atoms: C_2  and  O_4
REMARK    3  A    between atoms: O_4  and  N_5
REMARK    4  A    between atoms: C_6  and  C_7
REMARK    5  A    between atoms: C_6  and  C_8
REMARK    6  A    between atoms: C_11  and  C_12
REMARK    7  A    between atoms: C_17  and  N_18
REMARK                            x       y       z     vdW  Elec       q    Type
REMARK                         _______ _______ _______ _____ _____    ______ ____
ROOT
ATOM      1  C   UNL     1       4.059   5.836  18.039  0.00  0.00    +0.000 A 
ATOM      2  N   UNL     1       4.458   6.985  17.403  0.00  0.00    +0.000 NA
ATOM      3  C   UNL     1       3.661   8.064  17.462  0.00  0.00    +0.000 A 
ATOM      4  C   UNL     1       2.459   8.066  18.126  0.00  0.00    +0.000 A 
ATOM      5  C   UNL     1       2.097   6.899  18.818  0.00  0.00    +0.000 A 
ATOM      6  C   UNL     1       2.894   5.730  18.844  0.00  0.00    +0.000 A 
ENDROOT
BRANCH   6   7
ATOM      7  N   UNL     1       2.468   4.610  19.576  0.00  0.00    +0.000 N 
ATOM      8  C   UNL     1       2.065   4.783  20.999  0.00  0.00    +0.000 C 
ATOM      9  C   UNL     1       2.182   3.429  21.724  0.00  0.00    +0.000 C 
ATOM     10  O   UNL     1       1.320   2.451  21.119  0.00  0.00    +0.000 OA
ATOM     11  C   UNL     1       1.681   2.254  19.747  0.00  0.00    +0.000 C 
ATOM     12  C   UNL     1       1.621   3.559  18.936  0.00  0.00    +0.000 C 
ENDBRANCH   6   7
BRANCH   4  13
ATOM     13  C   UNL     1       1.560   9.263  18.098  0.00  0.00    +0.000 C 
ATOM     14  F   UNL     1       0.436   9.086  17.350  0.00  0.00    +0.000 F 
ATOM     15  F   UNL     1       1.131   9.614  19.341  0.00  0.00    +0.000 F 
ATOM     16  F   UNL     1       2.177  10.365  17.592  0.00  0.00    +0.000 F 
ENDBRANCH   4  13
BRANCH   1  18
ATOM     17  N   UNL     1       6.116   4.394  18.268  0.00  0.00    +0.000 NA
ATOM     18  C   UNL     1       5.002   4.723  17.680  0.00  0.00    +0.000 C 
ATOM     19  C   UNL     1       4.543   3.808  16.560  0.00  0.00    +0.000 C 
BRANCH  17  20
ATOM     20  O   UNL     1       6.349   5.158  19.418  0.00  0.00    +0.000 OA
BRANCH  20  22
ATOM     21  C   UNL     1       7.847   6.671  18.461  0.00  0.00    +0.000 C 
ATOM     22  C   UNL     1       7.654   5.565  19.463  0.00  0.00    +0.000 C 
ATOM     23  O   UNL     1       8.566   5.097  20.136  0.00  0.00    +0.000 OA
ENDBRANCH  20  22
ENDBRANCH  17  20
ENDBRANCH   1  18
TORSDOF 5
ENDMDL
MODEL 2
REMARK VINA RESULT:      -7.2      0.391      1.024
REMARK  Name = 
REMARK  7 active torsions:
REMARK  status: ('A' for Active; 'I' for Inactive)
REMARK    1  A    between atoms: C_1  and  C_2
REMARK    2  A    between atoms: C_2  and  O_4
REMARK    3  A    between atoms: O_4  and  N_5
REMARK    4  A    between atoms: C_6  and  C_7
REMARK    5  A    between atoms: C_6  and  C_8
REMARK    6  A    between atoms: C_11  and  C_12
REMARK    7  A    between atoms: C_17  and  N_18
REMARK                            x       y       z     vdW  Elec       q    Type
REMARK                         _______ _______ _______ _____ _____    ______ ____
ROOT
ATOM      1  C   UNL     1       3.958   5.882  18.114  0.00  0.00    +0.000 A 
ATOM      2  N   UNL     1       4.411   7.022  17.499  0.00  0.00    +0.000 NA
ATOM      3  C   UNL     1       3.632   8.116  17.519  0.00  0.00    +0.000 A 
ATOM      4  C   UNL     1       2.399   8.142  18.123  0.00  0.00    +0.000 A 
ATOM      5  C   UNL     1       1.982   6.982  18.797  0.00  0.00    +0.000 A 
ATOM      6  C   UNL     1       2.754   5.799  18.862  0.00  0.00    +0.000 A 
ENDROOT
BRANCH   6   7
ATOM      7  N   UNL     1       2.271   4.688  19.571  0.00  0.00    +0.000 N 
ATOM      8  C   UNL     1       1.656   3.558  18.821  0.00  0.00    +0.000 C 
ATOM      9  C   UNL     1       0.735   2.766  19.769  0.00  0.00    +0.000 C 
ATOM     10  O   UNL     1       1.480   2.230  20.874  0.00  0.00    +0.000 OA
ATOM     11  C   UNL     1       2.085   3.291  21.624  0.00  0.00    +0.000 C 
ATOM     12  C   UNL     1       3.010   4.162  20.758  0.00  0.00    +0.000 C 
ENDBRANCH   6   7
BRANCH   4  13
ATOM     13  C   UNL     1       1.526   9.356  18.052  0.00  0.00    +0.000 C 
ATOM     14  F   UNL     1       0.410   9.183  17.292  0.00  0.00    +0.000 F 
ATOM     15  F   UNL     1       1.086   9.747  19.279  0.00  0.00    +0.000 F 
ATOM     16  F   UNL     1       2.173  10.432  17.529  0.00  0.00    +0.000 F 
ENDBRANCH   4  13
BRANCH   1  18
ATOM     17  N   UNL     1       5.972   4.399  18.444  0.00  0.00    +0.000 NA
ATOM     18  C   UNL     1       4.897   4.750  17.802  0.00  0.00    +0.000 C 
ATOM     19  C   UNL     1       4.477   3.847  16.658  0.00  0.00    +0.000 C 
BRANCH  17  20
ATOM     20  O   UNL     1       6.161   5.156  19.607  0.00  0.00    +0.000 OA
BRANCH  20  22
ATOM     21  C   UNL     1       7.835   6.410  18.571  0.00  0.00    +0.000 C 
ATOM     22  C   UNL     1       7.474   5.520  19.730  0.00  0.00    +0.000 C 
ATOM     23  O   UNL     1       8.279   5.158  20.580  0.00  0.00    +0.000 OA
ENDBRANCH  20  22
ENDBRANCH  17  20
ENDBRANCH   1  18
TORSDOF 5
ENDMDL
MODEL 3
REMARK VINA RESULT:      -7.1      1.878      3.792
REMARK  Name = 
REMARK  7 active torsions:
REMARK  status: ('A' for Active; 'I' for Inactive)
REMARK    1  A    between atoms: C_1  and  C_2
REMARK    2  A    between atoms: C_2  and  O_4
REMARK    3  A    between atoms: O_4  and  N_5
REMARK    4  A    between atoms: C_6  and  C_7
REMARK    5  A    between atoms: C_6  and  C_8
REMARK    6  A    between atoms: C_11  and  C_12
REMARK    7  A    between atoms: C_17  and  N_18
REMARK                            x       y       z     vdW  Elec       q    Type
REMARK                         _______ _______ _______ _____ _____    ______ ____
ROOT
ATOM      1  C   UNL     1       3.854   5.410  18.979  0.00  0.00    +0.000 A 
ATOM      2  N   UNL     1       2.978   5.883  19.923  0.00  0.00    +0.000 NA
ATOM      3  C   UNL     1       2.309   7.020  19.668  0.00  0.00    +0.000 A 
ATOM      4  C   UNL     1       2.468   7.733  18.505  0.00  0.00    +0.000 A 
ATOM      5  C   UNL     1       3.325   7.199  17.529  0.00  0.00    +0.000 A 
ATOM      6  C   UNL     1       4.038   5.988  17.695  0.00  0.00    +0.000 A 
ENDROOT
BRANCH   6   7
ATOM      7  N   UNL     1       4.861   5.514  16.661  0.00  0.00    +0.000 N 
ATOM      8  C   UNL     1       4.649   4.137  16.138  0.00  0.00    +0.000 C 
ATOM      9  C   UNL     1       5.944   3.650  15.460  0.00  0.00    +0.000 C 
ATOM     10  O   UNL     1       6.299   4.508  14.363  0.00  0.00    +0.000 OA
ATOM     11  C   UNL     1       6.515   5.845  14.829  0.00  0.00    +0.000 C 
ATOM     12  C   UNL     1       5.282   6.418  15.548  0.00  0.00    +0.000 C 
ENDBRANCH   6   7
BRANCH   4  13
ATOM     13  C   UNL     1       1.768   9.039  18.294  0.00  0.00    +0.000 C 
ATOM     14  F   UNL     1       1.249   9.572  19.434  0.00  0.00    +0.000 F 
ATOM     15  F   UNL     1       2.594   9.990  17.779  0.00  0.00    +0.000 F 
ATOM     16  F   UNL     1       0.729   8.936  17.422  0.00  0.00    +0.000 F 
ENDBRANCH   4  13
BRANCH   1  18
ATOM     17  N   UNL     1       5.876   4.198  19.878  0.00  0.00    +0.000 NA
ATOM     18  C   UNL     1       4.616   4.250  19.554  0.00  0.00    +0.000 C 
ATOM     19  C   UNL     1       3.789   3.024  19.893  0.00  0.00    +0.000 C 
BRANCH  17  20
ATOM     20  O   UNL     1       6.508   5.439  19.730  0.00  0.00    +0.000 OA
BRANCH  20  22
ATOM     21  C   UNL     1       7.808   6.774  18.326  0.00  0.00    +0.000 C 
ATOM     22  C   UNL     1       7.463   5.374  18.754  0.00  0.00    +0.000 C 
ATOM     23  O   UNL     1       7.940   4.371  18.234  0.00  0.00    +0.000 OA
ENDBRANCH  20  22
ENDBRANCH  17  20
ENDBRANCH   1  18
TORSDOF 5
ENDMDL
MODEL 4
REMARK VINA RESULT:      -6.9      0.887      1.189
REMARK  Name = 
REMARK  7 active torsions:
REMARK  status: ('A' for Active; 'I' for Inactive)
REMARK    1  A    between atoms: C_1  and  C_2
REMARK    2  A    between atoms: C_2  and  O_4
REMARK    3  A    between atoms: O_4  and  N_5
REMARK    4  A    between atoms: C_6  and  C_7
REMARK    5  A    between atoms: C_6  and  C_8
REMARK    6  A    between atoms: C_11  and  C_12
REMARK    7  A    between atoms: C_17  and  N_18
REMARK                            x       y       z     vdW  Elec       q    Type
REMARK                         _______ _______ _______ _____ _____    ______ ____
ROOT
ATOM      1  C   UNL     1       3.606   5.556  17.876  0.00  0.00    +0.000 A 
ATOM      2  N   UNL     1       4.022   6.635  17.136  0.00  0.00    +0.000 NA
ATOM      3  C   UNL     1       3.426   7.822  17.337  0.00  0.00    +0.000 A 
ATOM      4  C   UNL     1       2.414   8.002  18.247  0.00  0.00    +0.000 A 
ATOM      5  C   UNL     1       2.044   6.899  19.034  0.00  0.00    +0.000 A 
ATOM      6  C   UNL     1       2.644   5.623  18.919  0.00  0.00    +0.000 A 
ENDROOT
BRANCH   6   7
ATOM      7  N   UNL     1       2.228   4.577  19.757  0.00  0.00    +0.000 N 
ATOM      8  C   UNL     1       2.241   4.779  21.232  0.00  0.00    +0.000 C 
ATOM      9  C   UNL     1       2.297   3.406  21.928  0.00  0.00    +0.000 C 
ATOM     10  O   UNL     1       1.149   2.613  21.585  0.00  0.00    +0.000 OA
ATOM     11  C   UNL     1       1.104   2.394  20.170  0.00  0.00    +0.000 C 
ATOM     12  C   UNL     1       1.072   3.711  19.377  0.00  0.00    +0.000 C 
ENDBRANCH   6   7
BRANCH   4  13
ATOM     13  C   UNL     1       1.719   9.321  18.383  0.00  0.00    +0.000 C 
ATOM     14  F   UNL     1       1.353   9.619  19.660  0.00  0.00    +0.000 F 
ATOM     15  F   UNL     1       2.496  10.359  17.965  0.00  0.00    +0.000 F 
ATOM     16  F   UNL     1       0.580   9.388  17.641  0.00  0.00    +0.000 F 
ENDBRANCH   4  13
BRANCH   1  18
ATOM     17  N   UNL     1       5.465   3.871  17.616  0.00  0.00    +0.000 NA
ATOM     18  C   UNL     1       4.271   4.315  17.352  0.00  0.00    +0.000 C 
ATOM     19  C   UNL     1       3.401   3.419  16.490  0.00  0.00    +0.000 C 
BRANCH  17  20
ATOM     20  O   UNL     1       6.112   4.649  18.585  0.00  0.00    +0.000 OA
BRANCH  20  22
ATOM     21  C   UNL     1       7.852   6.166  18.927  0.00  0.00    +0.000 C 
ATOM     22  C   UNL     1       7.388   4.941  18.186  0.00  0.00    +0.000 C 
ATOM     23  O   UNL     1       8.056   4.376  17.328  0.00  0.00    +0.000 OA
ENDBRANCH  20  22
ENDBRANCH  17  20
ENDBRANCH   1  18
TORSDOF 5
ENDMDL
MODEL 5
REMARK VINA RESULT:      -6.7      3.417      5.594
REMARK  Name = 
REMARK  7 active torsions:
REMARK  status: ('A' for Active; 'I' for Inactive)
REMARK    1  A    between atoms: C_1  and  C_2
REMARK    2  A    between atoms: C_2  and  O_4
REMARK    3  A    between atoms: O_4  and  N_5
REMARK    4  A    between atoms: C_6  and  C_7
REMARK    5  A    between atoms: C_6  and  C_8
REMARK    6  A    between atoms: C_11  and  C_12
REMARK    7  A    between atoms: C_17  and  N_18
REMARK                            x       y       z     vdW  Elec       q    Type
REMARK                         _______ _______ _______ _____ _____    ______ ____
ROOT
ATOM      1  C   UNL     1       3.302   4.806  18.596  0.00  0.00    +0.000 A 
ATOM      2  N   UNL     1       4.182   3.765  18.441  0.00  0.00    +0.000 NA
ATOM      3  C   UNL     1       5.473   4.045  18.197  0.00  0.00    +0.000 A 
ATOM      4  C   UNL     1       5.950   5.328  18.091  0.00  0.00    +0.000 A 
ATOM      5  C   UNL     1       5.043   6.378  18.312  0.00  0.00    +0.000 A 
ATOM      6  C   UNL     1       3.676   6.176  18.614  0.00  0.00    +0.000 A 
ENDROOT
BRANCH   6   7
ATOM      7  N   UNL     1       2.839   7.281  18.838  0.00  0.00    +0.000 N 
ATOM      8  C   UNL     1       2.151   7.918  17.682  0.00  0.00    +0.000 C 
ATOM      9  C   UNL     1       1.774   9.364  18.054  0.00  0.00    +0.000 C 
ATOM     10  O   UNL     1       0.887   9.386  19.184  0.00  0.00    +0.000 OA
ATOM     11  C   UNL     1       1.518   8.784  20.320  0.00  0.00    +0.000 C 
ATOM     12  C   UNL     1       1.958   7.337  20.043  0.00  0.00    +0.000 C 
ENDBRANCH   6   7
BRANCH   4  13
ATOM     13  C   UNL     1       7.379   5.598  17.736  0.00  0.00    +0.000 C 
ATOM     14  F   UNL     1       8.032   6.371  18.646  0.00  0.00    +0.000 F 
ATOM     15  F   UNL     1       8.107   4.453  17.626  0.00  0.00    +0.000 F 
ATOM     16  F   UNL     1       7.506   6.236  16.541  0.00  0.00    +0.000 F 
ENDBRANCH   4  13
BRANCH   1  18
ATOM     17  N   UNL     1       1.250   3.860  19.719  0.00  0.00    +0.000 NA
ATOM     18  C   UNL     1       1.903   4.260  18.667  0.00  0.00    +0.000 C 
ATOM     19  C   UNL     1       1.126   4.277  17.365  0.00  0.00    +0.000 C 
BRANCH  17  20
ATOM     20  O   UNL     1       1.969   4.082  20.900  0.00  0.00    +0.000 OA
BRANCH  20  22
ATOM     21  C   UNL     1       3.345   2.245  21.322  0.00  0.00    +0.000 C 
ATOM     22  C   UNL     1       2.043   2.931  21.636  0.00  0.00    +0.000 C 
ATOM     23  O   UNL     1       1.193   2.459  22.383  0.00  0.00    +0.000 OA
ENDBRANCH  20  22
ENDBRANCH  17  20
ENDBRANCH   1  18
TORSDOF 5
ENDMDL
MODEL 6
REMARK VINA RESULT:      -6.7      1.236      1.666
REMARK  Name = 
REMARK  7 active torsions:
REMARK  status: ('A' for Active; 'I' for Inactive)
REMARK    1  A    between atoms: C_1  and  C_2
REMARK    2  A    between atoms: C_2  and  O_4
REMARK    3  A    between atoms: O_4  and  N_5
REMARK    4  A    between atoms: C_6  and  C_7
REMARK    5  A    between atoms: C_6  and  C_8
REMARK    6  A    between atoms: C_11  and  C_12
REMARK    7  A    between atoms: C_17  and  N_18
REMARK                            x       y       z     vdW  Elec       q    Type
REMARK                         _______ _______ _______ _____ _____    ______ ____
ROOT
ATOM      1  C   UNL     1       3.832   5.833  17.861  0.00  0.00    +0.000 A 
ATOM      2  N   UNL     1       4.037   6.966  17.114  0.00  0.00    +0.000 NA
ATOM      3  C   UNL     1       3.293   8.053  17.377  0.00  0.00    +0.000 A 
ATOM      4  C   UNL     1       2.332   8.079  18.357  0.00  0.00    +0.000 A 
ATOM      5  C   UNL     1       2.180   6.928  19.148  0.00  0.00    +0.000 A 
ATOM      6  C   UNL     1       2.947   5.753  18.969  0.00  0.00    +0.000 A 
ENDROOT
BRANCH   6   7
ATOM      7  N   UNL     1       2.744   4.651  19.815  0.00  0.00    +0.000 N 
ATOM      8  C   UNL     1       3.926   3.928  20.361  0.00  0.00    +0.000 C 
ATOM      9  C   UNL     1       3.503   2.503  20.764  0.00  0.00    +0.000 C 
ATOM     10  O   UNL     1       2.481   2.540  21.774  0.00  0.00    +0.000 OA
ATOM     11  C   UNL     1       1.324   3.226  21.282  0.00  0.00    +0.000 C 
ATOM     12  C   UNL     1       1.645   4.659  20.827  0.00  0.00    +0.000 C 
ENDBRANCH   6   7
BRANCH   4  13
ATOM     13  C   UNL     1       1.468   9.283  18.564  0.00  0.00    +0.000 C 
ATOM     14  F   UNL     1       0.987   9.401  19.832  0.00  0.00    +0.000 F 
ATOM     15  F   UNL     1       2.130  10.444  18.306  0.00  0.00    +0.000 F 
ATOM     16  F   UNL     1       0.379   9.288  17.748  0.00  0.00    +0.000 F 
ENDBRANCH   4  13
BRANCH   1  18
ATOM     17  N   UNL     1       5.922   4.555  17.258  0.00  0.00    +0.000 NA
ATOM     18  C   UNL     1       4.629   4.704  17.270  0.00  0.00    +0.000 C 
ATOM     19  C   UNL     1       3.818   3.550  16.713  0.00  0.00    +0.000 C 
BRANCH  17  20
ATOM     20  O   UNL     1       6.574   5.560  17.982  0.00  0.00    +0.000 OA
BRANCH  20  22
ATOM     21  C   UNL     1       7.767   7.564  17.894  0.00  0.00    +0.000 C 
ATOM     22  C   UNL     1       7.332   6.333  17.146  0.00  0.00    +0.000 C 
ATOM     23  O   UNL     1       7.586   6.137  15.963  0.00  0.00    +0.000 OA
ENDBRANCH  20  22
ENDBRANCH  17  20
ENDBRANCH   1  18
TORSDOF 5
ENDMDL
MODEL 7
REMARK VINA RESULT:      -6.7      3.316      4.735
REMARK  Name = 
REMARK  7 active torsions:
REMARK  status: ('A' for Active; 'I' for Inactive)
REMARK    1  A    between atoms: C_1  and  C_2
REMARK    2  A    between atoms: C_2  and  O_4
REMARK    3  A    between atoms: O_4  and  N_5
REMARK    4  A    between atoms: C_6  and  C_7
REMARK    5  A    between atoms: C_6  and  C_8
REMARK    6  A    between atoms: C_11  and  C_12
REMARK    7  A    between atoms: C_17  and  N_18
REMARK                            x       y       z     vdW  Elec       q    Type
REMARK                         _______ _______ _______ _____ _____    ______ ____
ROOT
ATOM      1  C   UNL     1       3.730   5.393  17.597  0.00  0.00    +0.000 A 
ATOM      2  N   UNL     1       3.997   4.076  17.322  0.00  0.00    +0.000 NA
ATOM      3  C   UNL     1       3.164   3.137  17.800  0.00  0.00    +0.000 A 
ATOM      4  C   UNL     1       2.059   3.438  18.558  0.00  0.00    +0.000 A 
ATOM      5  C   UNL     1       1.773   4.795  18.778  0.00  0.00    +0.000 A 
ATOM      6  C   UNL     1       2.571   5.851  18.279  0.00  0.00    +0.000 A 
ENDROOT
BRANCH   6   7
ATOM      7  N   UNL     1       2.204   7.183  18.530  0.00  0.00    +0.000 N 
ATOM      8  C   UNL     1       2.109   7.657  19.938  0.00  0.00    +0.000 C 
ATOM      9  C   UNL     1       1.192   8.894  19.991  0.00  0.00    +0.000 C 
ATOM     10  O   UNL     1       1.724   9.958  19.185  0.00  0.00    +0.000 OA
ATOM     11  C   UNL     1       1.827   9.539  17.819  0.00  0.00    +0.000 C 
ATOM     12  C   UNL     1       2.706   8.287  17.658  0.00  0.00    +0.000 C 
ENDBRANCH   6   7
BRANCH   4  13
ATOM     13  C   UNL     1       1.202   2.358  19.142  0.00  0.00    +0.000 C 
ATOM     14  F   UNL     1       1.850   1.172  19.304  0.00  0.00    +0.000 F 
ATOM     15  F   UNL     1       0.719   2.692  20.371  0.00  0.00    +0.000 F 
ATOM     16  F   UNL     1       0.111   2.088  18.375  0.00  0.00    +0.000 F 
ENDBRANCH   4  13
BRANCH   1  18
ATOM     17  N   UNL     1       5.947   6.581  17.797  0.00  0.00    +0.000 NA
ATOM     18  C   UNL     1       4.884   6.236  17.131  0.00  0.00    +0.000 C 
ATOM     19  C   UNL     1       4.849   6.646  15.671  0.00  0.00    +0.000 C 
BRANCH  17  20
ATOM     20  O   UNL     1       5.993   5.981  19.061  0.00  0.00    +0.000 OA
BRANCH  20  22
ATOM     21  C   UNL     1       7.719   4.804  18.022  0.00  0.00    +0.000 C 
ATOM     22  C   UNL     1       7.232   5.449  19.291  0.00  0.00    +0.000 C 
ATOM     23  O   UNL     1       7.852   5.415  20.348  0.00  0.00    +0.000 OA
ENDBRANCH  20  22
ENDBRANCH  17  20
ENDBRANCH   1  18
TORSDOF 5
ENDMDL
MODEL 8
REMARK VINA RESULT:      -6.6      3.348      5.576
REMARK  Name = 
REMARK  7 active torsions:
REMARK  status: ('A' for Active; 'I' for Inactive)
REMARK    1  A    between atoms: C_1  and  C_2
REMARK    2  A    between atoms: C_2  and  O_4
REMARK    3  A    between atoms: O_4  and  N_5
REMARK    4  A    between atoms: C_6  and  C_7
REMARK    5  A    between atoms: C_6  and  C_8
REMARK    6  A    between atoms: C_11  and  C_12
REMARK    7  A    between atoms: C_17  and  N_18
REMARK                            x       y       z     vdW  Elec       q    Type
REMARK                         _______ _______ _______ _____ _____    ______ ____
ROOT
ATOM      1  C   UNL     1       3.353   4.795  18.647  0.00  0.00    +0.000 A 
ATOM      2  N   UNL     1       4.240   3.755  18.527  0.00  0.00    +0.000 NA
ATOM      3  C   UNL     1       5.532   4.034  18.289  0.00  0.00    +0.000 A 
ATOM      4  C   UNL     1       6.004   5.316  18.155  0.00  0.00    +0.000 A 
ATOM      5  C   UNL     1       5.090   6.367  18.339  0.00  0.00    +0.000 A 
ATOM      6  C   UNL     1       3.721   6.167  18.633  0.00  0.00    +0.000 A 
ENDROOT
BRANCH   6   7
ATOM      7  N   UNL     1       2.877   7.273  18.820  0.00  0.00    +0.000 N 
ATOM      8  C   UNL     1       2.206   7.883  17.639  0.00  0.00    +0.000 C 
ATOM      9  C   UNL     1       1.819   9.335  17.975  0.00  0.00    +0.000 C 
ATOM     10  O   UNL     1       0.913   9.378  19.089  0.00  0.00    +0.000 OA
ATOM     11  C   UNL     1       1.527   8.801  20.248  0.00  0.00    +0.000 C 
ATOM     12  C   UNL     1       1.976   7.351  20.009  0.00  0.00    +0.000 C 
ENDBRANCH   6   7
BRANCH   4  13
ATOM     13  C   UNL     1       7.435   5.583  17.808  0.00  0.00    +0.000 C 
ATOM     14  F   UNL     1       7.594   6.405  16.734  0.00  0.00    +0.000 F 
ATOM     15  F   UNL     1       8.113   6.171  18.831  0.00  0.00    +0.000 F 
ATOM     16  F   UNL     1       8.120   4.445  17.513  0.00  0.00    +0.000 F 
ENDBRANCH   4  13
BRANCH   1  18
ATOM     17  N   UNL     1       1.306   3.841  19.770  0.00  0.00    +0.000 NA
ATOM     18  C   UNL     1       1.957   4.244  18.718  0.00  0.00    +0.000 C 
ATOM     19  C   UNL     1       1.179   4.260  17.416  0.00  0.00    +0.000 C 
BRANCH  17  20
ATOM     20  O   UNL     1       2.024   4.063  20.951  0.00  0.00    +0.000 OA
BRANCH  20  22
ATOM     21  C   UNL     1       1.160   2.293  22.203  0.00  0.00    +0.000 C 
ATOM     22  C   UNL     1       2.373   2.872  21.527  0.00  0.00    +0.000 C 
ATOM     23  O   UNL     1       3.484   2.355  21.572  0.00  0.00    +0.000 OA
ENDBRANCH  20  22
ENDBRANCH  17  20
ENDBRANCH   1  18
TORSDOF 5
ENDMDL
MODEL 9
REMARK VINA RESULT:      -6.6      0.940      1.591
REMARK  Name = 
REMARK  7 active torsions:
REMARK  status: ('A' for Active; 'I' for Inactive)
REMARK    1  A    between atoms: C_1  and  C_2
REMARK    2  A    between atoms: C_2  and  O_4
REMARK    3  A    between atoms: O_4  and  N_5
REMARK    4  A    between atoms: C_6  and  C_7
REMARK    5  A    between atoms: C_6  and  C_8
REMARK    6  A    between atoms: C_11  and  C_12
REMARK    7  A    between atoms: C_17  and  N_18
REMARK                            x       y       z     vdW  Elec       q    Type
REMARK                         _______ _______ _______ _____ _____    ______ ____
ROOT
ATOM      1  C   UNL     1       4.203   5.854  17.668  0.00  0.00    +0.000 A 
ATOM      2  N   UNL     1       4.631   7.087  17.244  0.00  0.00    +0.000 NA
ATOM      3  C   UNL     1       3.820   8.144  17.413  0.00  0.00    +0.000 A 
ATOM      4  C   UNL     1       2.577   8.044  17.988  0.00  0.00    +0.000 A 
ATOM      5  C   UNL     1       2.184   6.783  18.468  0.00  0.00    +0.000 A 
ATOM      6  C   UNL     1       2.989   5.625  18.369  0.00  0.00    +0.000 A 
ENDROOT
BRANCH   6   7
ATOM      7  N   UNL     1       2.528   4.406  18.891  0.00  0.00    +0.000 N 
ATOM      8  C   UNL     1       1.854   3.437  17.984  0.00  0.00    +0.000 C 
ATOM      9  C   UNL     1       0.974   2.491  18.823  0.00  0.00    +0.000 C 
ATOM     10  O   UNL     1       1.771   1.756  19.767  0.00  0.00    +0.000 OA
ATOM     11  C   UNL     1       2.435   2.658  20.661  0.00  0.00    +0.000 C 
ATOM     12  C   UNL     1       3.324   3.667  19.917  0.00  0.00    +0.000 C 
ENDBRANCH   6   7
BRANCH   4  13
ATOM     13  C   UNL     1       1.669   9.230  18.084  0.00  0.00    +0.000 C 
ATOM     14  F   UNL     1       2.232  10.388  17.643  0.00  0.00    +0.000 F 
ATOM     15  F   UNL     1       0.530   9.067  17.356  0.00  0.00    +0.000 F 
ATOM     16  F   UNL     1       1.263   9.472  19.360  0.00  0.00    +0.000 F 
ENDBRANCH   4  13
BRANCH   1  18
ATOM     17  N   UNL     1       6.267   4.410  17.801  0.00  0.00    +0.000 NA
ATOM     18  C   UNL     1       5.181   4.810  17.207  0.00  0.00    +0.000 C 
ATOM     19  C   UNL     1       4.793   4.060  15.947  0.00  0.00    +0.000 C 
BRANCH  17  20
ATOM     20  O   UNL     1       6.429   5.004  19.058  0.00  0.00    +0.000 OA
BRANCH  20  22
ATOM     21  C   UNL     1       8.392   5.382  20.264  0.00  0.00    +0.000 C 
ATOM     22  C   UNL     1       7.556   5.779  19.077  0.00  0.00    +0.000 C 
ATOM     23  O   UNL     1       7.850   6.699  18.321  0.00  0.00    +0.000 OA
ENDBRANCH  20  22
ENDBRANCH  17  20
ENDBRANCH   1  18
TORSDOF 5
ENDMDL
