MODEL 1
REMARK VINA RESULT:      -7.0      0.000      0.000
REMARK  Name = 
REMARK  2 active torsions:
REMARK  status: ('A' for Active; 'I' for Inactive)
REMARK    1  A    between atoms: C_4  and  C_5
REMARK    2  A    between atoms: C_5  and  C_6
REMARK                            x       y       z     vdW  Elec       q    Type
REMARK                         _______ _______ _______ _____ _____    ______ ____
ROOT
ATOM      1  C   UNL     1       4.692   3.822  17.794  0.00  0.00    +0.000 A 
ATOM      2  N   UNL     1       4.582   4.937  17.098  0.00  0.00    +0.000 NA
ATOM      3  C   UNL     1       5.687   5.686  17.419  0.00  0.00    +0.000 A 
ATOM      4  C   UNL     1       6.056   6.970  16.993  0.00  0.00    +0.000 A 
ATOM      5  C   UNL     1       7.226   7.541  17.511  0.00  0.00    +0.000 A 
ATOM      6  C   UNL     1       8.018   6.841  18.427  0.00  0.00    +0.000 A 
ATOM      7  C   UNL     1       7.675   5.551  18.849  0.00  0.00    +0.000 A 
ATOM      8  C   UNL     1       6.501   5.010  18.321  0.00  0.00    +0.000 A 
ATOM      9  N   UNL     1       5.867   3.809  18.510  0.00  0.00    +0.000 N 
ATOM     10  H   UNL     1       6.182   3.061  19.110  0.00  0.00    +0.000 HD
ENDROOT
BRANCH   1  11
ATOM     11  C   UNL     1       3.683   2.724  17.892  0.00  0.00    +0.000 C 
BRANCH  11  15
ATOM     12  C   UNL     1       0.738   3.564  20.125  0.00  0.00    +0.000 A 
ATOM     13  C   UNL     1       1.553   3.178  21.165  0.00  0.00    +0.000 A 
ATOM     14  S   UNL     1       3.081   2.641  20.616  0.00  0.00    +0.000 S 
ATOM     15  C   UNL     1       2.672   2.942  18.978  0.00  0.00    +0.000 A 
ATOM     16  C   UNL     1       1.382   3.423  18.863  0.00  0.00    +0.000 A 
ENDBRANCH  11  15
ENDBRANCH   1  11
TORSDOF 2
ENDMDL
MODEL 2
REMARK VINA RESULT:      -6.9      0.859      1.103
REMARK  Name = 
REMARK  2 active torsions:
REMARK  status: ('A' for Active; 'I' for Inactive)
REMARK    1  A    between atoms: C_4  and  C_5
REMARK    2  A    between atoms: C_5  and  C_6
REMARK                            x       y       z     vdW  Elec       q    Type
REMARK                         _______ _______ _______ _____ _____    ______ ____
ROOT
ATOM      1  C   UNL     1       4.863   3.821  18.163  0.00  0.00    +0.000 A 
ATOM      2  N   UNL     1       4.676   4.861  17.373  0.00  0.00    +0.000 NA
ATOM      3  C   UNL     1       5.747   5.691  17.592  0.00  0.00    +0.000 A 
ATOM      4  C   UNL     1       6.035   6.948  17.041  0.00  0.00    +0.000 A 
ATOM      5  C   UNL     1       7.186   7.623  17.470  0.00  0.00    +0.000 A 
ATOM      6  C   UNL     1       8.037   7.051  18.420  0.00  0.00    +0.000 A 
ATOM      7  C   UNL     1       7.775   5.789  18.967  0.00  0.00    +0.000 A 
ATOM      8  C   UNL     1       6.618   5.143  18.526  0.00  0.00    +0.000 A 
ATOM      9  N   UNL     1       6.055   3.933  18.841  0.00  0.00    +0.000 N 
ATOM     10  H   UNL     1       6.426   3.260  19.496  0.00  0.00    +0.000 HD
ENDROOT
BRANCH   1  11
ATOM     11  C   UNL     1       3.918   2.686  18.390  0.00  0.00    +0.000 C 
BRANCH  11  15
ATOM     12  C   UNL     1       1.574   3.130  21.336  0.00  0.00    +0.000 A 
ATOM     13  C   UNL     1       0.701   3.676  20.422  0.00  0.00    +0.000 A 
ATOM     14  S   UNL     1       1.372   3.734  18.850  0.00  0.00    +0.000 S 
ATOM     15  C   UNL     1       2.833   3.005  19.375  0.00  0.00    +0.000 A 
ATOM     16  C   UNL     1       2.806   2.746  20.733  0.00  0.00    +0.000 A 
ENDBRANCH  11  15
ENDBRANCH   1  11
TORSDOF 2
ENDMDL
MODEL 3
REMARK VINA RESULT:      -6.8      0.373      1.538
REMARK  Name = 
REMARK  2 active torsions:
REMARK  status: ('A' for Active; 'I' for Inactive)
REMARK    1  A    between atoms: C_4  and  C_5
REMARK    2  A    between atoms: C_5  and  C_6
REMARK                            x       y       z     vdW  Elec       q    Type
REMARK                         _______ _______ _______ _____ _____    ______ ____
ROOT
ATOM      1  C   UNL     1       4.825   4.040  18.271  0.00  0.00    +0.000 A 
ATOM      2  N   UNL     1       5.865   4.129  19.077  0.00  0.00    +0.000 NA
ATOM      3  C   UNL     1       6.526   5.275  18.707  0.00  0.00    +0.000 A 
ATOM      4  C   UNL     1       7.712   5.829  19.209  0.00  0.00    +0.000 A 
ATOM      5  C   UNL     1       8.210   6.999  18.620  0.00  0.00    +0.000 A 
ATOM      6  C   UNL     1       7.534   7.608  17.558  0.00  0.00    +0.000 A 
ATOM      7  C   UNL     1       6.338   7.079  17.057  0.00  0.00    +0.000 A 
ATOM      8  C   UNL     1       5.869   5.910  17.659  0.00  0.00    +0.000 A 
ATOM      9  N   UNL     1       4.767   5.126  17.429  0.00  0.00    +0.000 N 
ATOM     10  H   UNL     1       4.059   5.292  16.729  0.00  0.00    +0.000 HD
ENDROOT
BRANCH   1  11
ATOM     11  C   UNL     1       3.854   2.907  18.182  0.00  0.00    +0.000 C 
BRANCH  11  15
ATOM     12  C   UNL     1       0.680   3.453  20.181  0.00  0.00    +0.000 A 
ATOM     13  C   UNL     1       1.417   3.033  21.265  0.00  0.00    +0.000 A 
ATOM     14  S   UNL     1       3.014   2.606  20.827  0.00  0.00    +0.000 S 
ATOM     15  C   UNL     1       2.739   3.002  19.182  0.00  0.00    +0.000 A 
ATOM     16  C   UNL     1       1.441   3.432  18.978  0.00  0.00    +0.000 A 
ENDBRANCH  11  15
ENDBRANCH   1  11
TORSDOF 2
ENDMDL
MODEL 4
REMARK VINA RESULT:      -6.7      0.935      1.895
REMARK  Name = 
REMARK  2 active torsions:
REMARK  status: ('A' for Active; 'I' for Inactive)
REMARK    1  A    between atoms: C_4  and  C_5
REMARK    2  A    between atoms: C_5  and  C_6
REMARK                            x       y       z     vdW  Elec       q    Type
REMARK                         _______ _______ _______ _____ _____    ______ ____
ROOT
ATOM      1  C   UNL     1       4.953   4.009  18.468  0.00  0.00    +0.000 A 
ATOM      2  N   UNL     1       6.033   4.182  19.205  0.00  0.00    +0.000 NA
ATOM      3  C   UNL     1       6.607   5.346  18.757  0.00  0.00    +0.000 A 
ATOM      4  C   UNL     1       7.789   5.979  19.166  0.00  0.00    +0.000 A 
ATOM      5  C   UNL     1       8.187   7.150  18.509  0.00  0.00    +0.000 A 
ATOM      6  C   UNL     1       7.417   7.685  17.471  0.00  0.00    +0.000 A 
ATOM      7  C   UNL     1       6.224   7.076  17.062  0.00  0.00    +0.000 A 
ATOM      8  C   UNL     1       5.856   5.907  17.731  0.00  0.00    +0.000 A 
ATOM      9  N   UNL     1       4.785   5.060  17.596  0.00  0.00    +0.000 N 
ATOM     10  H   UNL     1       4.030   5.163  16.935  0.00  0.00    +0.000 HD
ENDROOT
BRANCH   1  11
ATOM     11  C   UNL     1       4.041   2.825  18.477  0.00  0.00    +0.000 C 
BRANCH  11  15
ATOM     12  C   UNL     1       1.569   2.919  21.350  0.00  0.00    +0.000 A 
ATOM     13  C   UNL     1       0.642   3.281  20.400  0.00  0.00    +0.000 A 
ATOM     14  S   UNL     1       1.338   3.419  18.844  0.00  0.00    +0.000 S 
ATOM     15  C   UNL     1       2.888   2.972  19.426  0.00  0.00    +0.000 A 
ATOM     16  C   UNL     1       2.867   2.745  20.789  0.00  0.00    +0.000 A 
ENDBRANCH  11  15
ENDBRANCH   1  11
TORSDOF 2
ENDMDL
MODEL 5
REMARK VINA RESULT:      -6.7      2.483      5.755
REMARK  Name = 
REMARK  2 active torsions:
REMARK  status: ('A' for Active; 'I' for Inactive)
REMARK    1  A    between atoms: C_4  and  C_5
REMARK    2  A    between atoms: C_5  and  C_6
REMARK                            x       y       z     vdW  Elec       q    Type
REMARK                         _______ _______ _______ _____ _____    ______ ____
ROOT
ATOM      1  C   UNL     1       3.703   5.823  18.325  0.00  0.00    +0.000 A 
ATOM      2  N   UNL     1       2.813   5.030  17.759  0.00  0.00    +0.000 NA
ATOM      3  C   UNL     1       2.198   4.364  18.790  0.00  0.00    +0.000 A 
ATOM      4  C   UNL     1       1.201   3.379  18.754  0.00  0.00    +0.000 A 
ATOM      5  C   UNL     1       0.768   2.816  19.962  0.00  0.00    +0.000 A 
ATOM      6  C   UNL     1       1.312   3.232  21.181  0.00  0.00    +0.000 A 
ATOM      7  C   UNL     1       2.295   4.228  21.237  0.00  0.00    +0.000 A 
ATOM      8  C   UNL     1       2.711   4.767  20.018  0.00  0.00    +0.000 A 
ATOM      9  N   UNL     1       3.637   5.727  19.696  0.00  0.00    +0.000 N 
ATOM     10  H   UNL     1       4.207   6.241  20.351  0.00  0.00    +0.000 HD
ENDROOT
BRANCH   1  11
ATOM     11  C   UNL     1       4.717   6.672  17.631  0.00  0.00    +0.000 C 
BRANCH  11  15
ATOM     12  C   UNL     1       6.277   4.968  14.625  0.00  0.00    +0.000 A 
ATOM     13  C   UNL     1       7.154   4.413  15.530  0.00  0.00    +0.000 A 
ATOM     14  S   UNL     1       6.856   4.951  17.125  0.00  0.00    +0.000 S 
ATOM     15  C   UNL     1       5.532   5.918  16.622  0.00  0.00    +0.000 A 
ATOM     16  C   UNL     1       5.343   5.840  15.255  0.00  0.00    +0.000 A 
ENDBRANCH  11  15
ENDBRANCH   1  11
TORSDOF 2
ENDMDL
MODEL 6
REMARK VINA RESULT:      -6.5      1.806      5.679
REMARK  Name = 
REMARK  2 active torsions:
REMARK  status: ('A' for Active; 'I' for Inactive)
REMARK    1  A    between atoms: C_4  and  C_5
REMARK    2  A    between atoms: C_5  and  C_6
REMARK                            x       y       z     vdW  Elec       q    Type
REMARK                         _______ _______ _______ _____ _____    ______ ____
ROOT
ATOM      1  C   UNL     1       4.826   4.109  18.250  0.00  0.00    +0.000 A 
ATOM      2  N   UNL     1       3.594   4.527  18.032  0.00  0.00    +0.000 NA
ATOM      3  C   UNL     1       2.834   3.981  19.037  0.00  0.00    +0.000 A 
ATOM      4  C   UNL     1       1.454   4.072  19.268  0.00  0.00    +0.000 A 
ATOM      5  C   UNL     1       0.906   3.375  20.353  0.00  0.00    +0.000 A 
ATOM      6  C   UNL     1       1.719   2.610  21.195  0.00  0.00    +0.000 A 
ATOM      7  C   UNL     1       3.101   2.522  20.990  0.00  0.00    +0.000 A 
ATOM      8  C   UNL     1       3.618   3.223  19.898  0.00  0.00    +0.000 A 
ATOM      9  N   UNL     1       4.889   3.356  19.399  0.00  0.00    +0.000 N 
ATOM     10  H   UNL     1       5.722   2.934  19.782  0.00  0.00    +0.000 HD
ENDROOT
BRANCH   1  11
ATOM     11  C   UNL     1       6.015   4.326  17.370  0.00  0.00    +0.000 C 
BRANCH  11  15
ATOM     12  C   UNL     1       7.634   7.752  17.458  0.00  0.00    +0.000 A 
ATOM     13  C   UNL     1       8.224   7.325  18.626  0.00  0.00    +0.000 A 
ATOM     14  S   UNL     1       7.734   5.743  19.051  0.00  0.00    +0.000 S 
ATOM     15  C   UNL     1       6.742   5.605  17.659  0.00  0.00    +0.000 A 
ATOM     16  C   UNL     1       6.775   6.761  16.901  0.00  0.00    +0.000 A 
ENDBRANCH  11  15
ENDBRANCH   1  11
TORSDOF 2
ENDMDL
MODEL 7
REMARK VINA RESULT:      -6.5      2.330      5.566
REMARK  Name = 
REMARK  2 active torsions:
REMARK  status: ('A' for Active; 'I' for Inactive)
REMARK    1  A    between atoms: C_4  and  C_5
REMARK    2  A    between atoms: C_5  and  C_6
REMARK                            x       y       z     vdW  Elec       q    Type
REMARK                         _______ _______ _______ _____ _____    ______ ____
ROOT
ATOM      1  C   UNL     1       5.374   4.506  18.919  0.00  0.00    +0.000 A 
ATOM      2  N   UNL     1       4.464   5.419  19.196  0.00  0.00    +0.000 NA
ATOM      3  C   UNL     1       3.412   4.737  19.756  0.00  0.00    +0.000 A 
ATOM      4  C   UNL     1       2.170   5.212  20.203  0.00  0.00    +0.000 A 
ATOM      5  C   UNL     1       1.237   4.292  20.699  0.00  0.00    +0.000 A 
ATOM      6  C   UNL     1       1.539   2.928  20.757  0.00  0.00    +0.000 A 
ATOM      7  C   UNL     1       2.780   2.439  20.333  0.00  0.00    +0.000 A 
ATOM      8  C   UNL     1       3.688   3.377  19.838  0.00  0.00    +0.000 A 
ATOM      9  N   UNL     1       4.961   3.263  19.338  0.00  0.00    +0.000 N 
ATOM     10  H   UNL     1       5.485   2.406  19.248  0.00  0.00    +0.000 HD
ENDROOT
BRANCH   1  11
ATOM     11  C   UNL     1       6.661   4.716  18.188  0.00  0.00    +0.000 C 
BRANCH  11  15
ATOM     12  C   UNL     1       6.932   4.782  14.407  0.00  0.00    +0.000 A 
ATOM     13  C   UNL     1       5.633   4.328  14.413  0.00  0.00    +0.000 A 
ATOM     14  S   UNL     1       5.044   4.090  16.001  0.00  0.00    +0.000 S 
ATOM     15  C   UNL     1       6.520   4.615  16.698  0.00  0.00    +0.000 A 
ATOM     16  C   UNL     1       7.446   4.943  15.726  0.00  0.00    +0.000 A 
ENDBRANCH  11  15
ENDBRANCH   1  11
TORSDOF 2
ENDMDL
MODEL 8
REMARK VINA RESULT:      -6.5      1.798      5.746
REMARK  Name = 
REMARK  2 active torsions:
REMARK  status: ('A' for Active; 'I' for Inactive)
REMARK    1  A    between atoms: C_4  and  C_5
REMARK    2  A    between atoms: C_5  and  C_6
REMARK                            x       y       z     vdW  Elec       q    Type
REMARK                         _______ _______ _______ _____ _____    ______ ____
ROOT
ATOM      1  C   UNL     1       3.788   5.117  17.330  0.00  0.00    +0.000 A 
ATOM      2  N   UNL     1       3.266   3.921  17.136  0.00  0.00    +0.000 NA
ATOM      3  C   UNL     1       2.423   3.706  18.199  0.00  0.00    +0.000 A 
ATOM      4  C   UNL     1       1.641   2.585  18.511  0.00  0.00    +0.000 A 
ATOM      5  C   UNL     1       0.893   2.596  19.695  0.00  0.00    +0.000 A 
ATOM      6  C   UNL     1       0.917   3.705  20.546  0.00  0.00    +0.000 A 
ATOM      7  C   UNL     1       1.677   4.840  20.241  0.00  0.00    +0.000 A 
ATOM      8  C   UNL     1       2.417   4.799  19.057  0.00  0.00    +0.000 A 
ATOM      9  N   UNL     1       3.260   5.701  18.459  0.00  0.00    +0.000 N 
ATOM     10  H   UNL     1       3.493   6.617  18.812  0.00  0.00    +0.000 HD
ENDROOT
BRANCH   1  11
ATOM     11  C   UNL     1       4.859   5.770  16.518  0.00  0.00    +0.000 C 
BRANCH  11  15
ATOM     12  C   UNL     1       7.926   7.325  18.115  0.00  0.00    +0.000 A 
ATOM     13  C   UNL     1       7.974   6.182  18.880  0.00  0.00    +0.000 A 
ATOM     14  S   UNL     1       6.682   5.119  18.529  0.00  0.00    +0.000 S 
ATOM     15  C   UNL     1       6.056   6.171  17.328  0.00  0.00    +0.000 A 
ATOM     16  C   UNL     1       6.816   7.321  17.221  0.00  0.00    +0.000 A 
ENDBRANCH  11  15
ENDBRANCH   1  11
TORSDOF 2
ENDMDL
MODEL 9
REMARK VINA RESULT:      -6.5      1.295      1.388
REMARK  Name = 
REMARK  2 active torsions:
REMARK  status: ('A' for Active; 'I' for Inactive)
REMARK    1  A    between atoms: C_4  and  C_5
REMARK    2  A    between atoms: C_5  and  C_6
REMARK                            x       y       z     vdW  Elec       q    Type
REMARK                         _______ _______ _______ _____ _____    ______ ____
ROOT
ATOM      1  C   UNL     1       3.716   5.318  17.817  0.00  0.00    +0.000 A 
ATOM      2  N   UNL     1       4.247   6.273  17.079  0.00  0.00    +0.000 NA
ATOM      3  C   UNL     1       5.532   6.426  17.536  0.00  0.00    +0.000 A 
ATOM      4  C   UNL     1       6.528   7.325  17.130  0.00  0.00    +0.000 A 
ATOM      5  C   UNL     1       7.761   7.310  17.796  0.00  0.00    +0.000 A 
ATOM      6  C   UNL     1       7.998   6.411  18.840  0.00  0.00    +0.000 A 
ATOM      7  C   UNL     1       7.022   5.493  19.246  0.00  0.00    +0.000 A 
ATOM      8  C   UNL     1       5.802   5.535  18.568  0.00  0.00    +0.000 A 
ATOM      9  N   UNL     1       4.643   4.812  18.699  0.00  0.00    +0.000 N 
ATOM     10  H   UNL     1       4.482   4.069  19.362  0.00  0.00    +0.000 HD
ENDROOT
BRANCH   1  11
ATOM     11  C   UNL     1       2.295   4.856  17.800  0.00  0.00    +0.000 C 
BRANCH  11  15
ATOM     12  C   UNL     1       1.309   3.495  21.198  0.00  0.00    +0.000 A 
ATOM     13  C   UNL     1       1.519   2.253  20.642  0.00  0.00    +0.000 A 
ATOM     14  S   UNL     1       1.970   2.355  18.996  0.00  0.00    +0.000 S 
ATOM     15  C   UNL     1       1.911   4.069  19.018  0.00  0.00    +0.000 A 
ATOM     16  C   UNL     1       1.531   4.543  20.259  0.00  0.00    +0.000 A 
ENDBRANCH  11  15
ENDBRANCH   1  11
TORSDOF 2
ENDMDL
