MODEL 1
REMARK VINA RESULT:      -8.7      0.000      0.000
REMARK  Name = 
REMARK  6 active torsions:
REMARK  status: ('A' for Active; 'I' for Inactive)
REMARK    1  A    between atoms: C_1  and  C_2
REMARK    2  A    between atoms: C_2  and  C_4
REMARK    3  A    between atoms: C_8  and  N_9
REMARK    4  A    between atoms: C_10  and  C_12
REMARK    5  A    between atoms: C_12  and  C_13
REMARK    6  A    between atoms: C_13  and  N_14
REMARK                            x       y       z     vdW  Elec       q    Type
REMARK                         _______ _______ _______ _____ _____    ______ ____
ROOT
ATOM      1  C   UNL     1       2.982   6.341  17.968  0.00  0.00    +0.000 C 
ENDROOT
BRANCH   1   2
ATOM      2  N   UNL     1       3.906   5.518  18.849  0.00  0.00    +0.000 N 
ATOM      3  C   UNL     1       3.078   4.524  19.489  0.00  0.00    +0.000 A 
ATOM      4  C   UNL     1       2.315   4.905  20.612  0.00  0.00    +0.000 A 
ATOM      5  C   UNL     1       1.508   3.983  21.281  0.00  0.00    +0.000 A 
ATOM      6  C   UNL     1       1.478   2.657  20.866  0.00  0.00    +0.000 A 
ATOM      7  C   UNL     1       2.220   2.261  19.750  0.00  0.00    +0.000 A 
ATOM      8  C   UNL     1       2.994   3.192  19.038  0.00  0.00    +0.000 A 
ATOM      9  S   UNL     1       3.724   2.650  17.499  0.00  0.00    +0.000 S 
ATOM     10  C   UNL     1       4.803   4.005  17.105  0.00  0.00    +0.000 A 
ATOM     11  C   UNL     1       5.459   4.027  15.873  0.00  0.00    +0.000 A 
ATOM     12  C   UNL     1       6.377   5.039  15.581  0.00  0.00    +0.000 A 
ATOM     13  C   UNL     1       6.738   5.957  16.565  0.00  0.00    +0.000 A 
ATOM     14  C   UNL     1       6.055   5.967  17.776  0.00  0.00    +0.000 A 
ATOM     15  C   UNL     1       4.973   5.097  17.969  0.00  0.00    +0.000 A 
ENDBRANCH   1   2
BRANCH   1  16
ATOM     16  C   UNL     1       3.177   7.867  18.086  0.00  0.00    +0.000 C 
BRANCH  16  18
ATOM     17  N   UNL     1       1.215   9.328  17.895  0.00  0.00    +0.000 N 
ATOM     18  C   UNL     1       1.943   8.476  18.728  0.00  0.00    +0.000 C 
ATOM     19  O   UNL     1       1.663   8.208  19.897  0.00  0.00    +0.000 OA
ATOM     20  H   UNL     1       1.438   9.317  16.911  0.00  0.00    +0.000 HD
BRANCH  17  25
ATOM     21  C   UNL     1      -2.211  10.826  17.947  0.00  0.00    +0.000 A 
ATOM     22  C   UNL     1      -2.122  11.675  19.055  0.00  0.00    +0.000 A 
ATOM     23  C   UNL     1      -0.938  11.749  19.773  0.00  0.00    +0.000 A 
ATOM     24  C   UNL     1       0.165  10.984  19.396  0.00  0.00    +0.000 A 
ATOM     25  C   UNL     1       0.103  10.115  18.301  0.00  0.00    +0.000 A 
ATOM     26  C   UNL     1      -1.094  10.046  17.573  0.00  0.00    +0.000 A 
BRANCH  21  28
ATOM     27  C   UNL     1      -4.635  11.633  17.525  0.00  0.00    +0.000 C 
ATOM     28  C   UNL     1      -3.479  10.725  17.164  0.00  0.00    +0.000 C 
ATOM     29  O   UNL     1      -3.559   9.927  16.237  0.00  0.00    +0.000 OA
ENDBRANCH  21  28
ENDBRANCH  17  25
ENDBRANCH  16  18
ENDBRANCH   1  16
TORSDOF 5
ENDMDL
MODEL 2
REMARK VINA RESULT:      -8.6      1.469      2.351
REMARK  Name = 
REMARK  6 active torsions:
REMARK  status: ('A' for Active; 'I' for Inactive)
REMARK    1  A    between atoms: C_1  and  C_2
REMARK    2  A    between atoms: C_2  and  C_4
REMARK    3  A    between atoms: C_8  and  N_9
REMARK    4  A    between atoms: C_10  and  C_12
REMARK    5  A    between atoms: C_12  and  C_13
REMARK    6  A    between atoms: C_13  and  N_14
REMARK                            x       y       z     vdW  Elec       q    Type
REMARK                         _______ _______ _______ _____ _____    ______ ____
ROOT
ATOM      1  C   UNL     1       3.014   6.251  17.819  0.00  0.00    +0.000 C 
ENDROOT
BRANCH   1   2
ATOM      2  N   UNL     1       3.905   5.456  18.757  0.00  0.00    +0.000 N 
ATOM      3  C   UNL     1       3.059   4.467  19.381  0.00  0.00    +0.000 A 
ATOM      4  C   UNL     1       2.243   4.864  20.460  0.00  0.00    +0.000 A 
ATOM      5  C   UNL     1       1.414   3.948  21.112  0.00  0.00    +0.000 A 
ATOM      6  C   UNL     1       1.415   2.613  20.724  0.00  0.00    +0.000 A 
ATOM      7  C   UNL     1       2.210   2.202  19.652  0.00  0.00    +0.000 A 
ATOM      8  C   UNL     1       3.007   3.126  18.955  0.00  0.00    +0.000 A 
ATOM      9  S   UNL     1       3.810   2.559  17.462  0.00  0.00    +0.000 S 
ATOM     10  C   UNL     1       4.893   3.916  17.087  0.00  0.00    +0.000 A 
ATOM     11  C   UNL     1       5.603   3.919  15.886  0.00  0.00    +0.000 A 
ATOM     12  C   UNL     1       6.524   4.934  15.614  0.00  0.00    +0.000 A 
ATOM     13  C   UNL     1       6.833   5.875  16.593  0.00  0.00    +0.000 A 
ATOM     14  C   UNL     1       6.096   5.904  17.772  0.00  0.00    +0.000 A 
ATOM     15  C   UNL     1       5.015   5.028  17.935  0.00  0.00    +0.000 A 
ENDBRANCH   1   2
BRANCH   1  16
ATOM     16  C   UNL     1       3.193   7.781  17.911  0.00  0.00    +0.000 C 
BRANCH  16  18
ATOM     17  N   UNL     1       1.278   9.313  17.995  0.00  0.00    +0.000 N 
ATOM     18  C   UNL     1       2.033   8.369  18.695  0.00  0.00    +0.000 C 
ATOM     19  O   UNL     1       1.832   8.009  19.855  0.00  0.00    +0.000 OA
ATOM     20  H   UNL     1       1.427   9.381  17.000  0.00  0.00    +0.000 HD
BRANCH  17  25
ATOM     21  C   UNL     1      -0.635  11.440  20.403  0.00  0.00    +0.000 A 
ATOM     22  C   UNL     1      -1.830  11.639  19.703  0.00  0.00    +0.000 A 
ATOM     23  C   UNL     1      -1.996  11.070  18.449  0.00  0.00    +0.000 A 
ATOM     24  C   UNL     1      -0.983  10.301  17.882  0.00  0.00    +0.000 A 
ATOM     25  C   UNL     1       0.229  10.096  18.551  0.00  0.00    +0.000 A 
ATOM     26  C   UNL     1       0.394  10.667  19.822  0.00  0.00    +0.000 A 
BRANCH  21  28
ATOM     27  C   UNL     1      -1.182  11.473  22.934  0.00  0.00    +0.000 C 
ATOM     28  C   UNL     1      -0.431  12.049  21.751  0.00  0.00    +0.000 C 
ATOM     29  O   UNL     1       0.347  12.985  21.884  0.00  0.00    +0.000 OA
ENDBRANCH  21  28
ENDBRANCH  17  25
ENDBRANCH  16  18
ENDBRANCH   1  16
TORSDOF 5
ENDMDL
MODEL 3
REMARK VINA RESULT:      -8.5      3.618      7.886
REMARK  Name = 
REMARK  6 active torsions:
REMARK  status: ('A' for Active; 'I' for Inactive)
REMARK    1  A    between atoms: C_1  and  C_2
REMARK    2  A    between atoms: C_2  and  C_4
REMARK    3  A    between atoms: C_8  and  N_9
REMARK    4  A    between atoms: C_10  and  C_12
REMARK    5  A    between atoms: C_12  and  C_13
REMARK    6  A    between atoms: C_13  and  N_14
REMARK                            x       y       z     vdW  Elec       q    Type
REMARK                         _______ _______ _______ _____ _____    ______ ____
ROOT
ATOM      1  C   UNL     1       4.837   5.914  18.879  0.00  0.00    +0.000 C 
ENDROOT
BRANCH   1   2
ATOM      2  N   UNL     1       3.565   5.515  18.153  0.00  0.00    +0.000 N 
ATOM      3  C   UNL     1       3.248   4.178  18.594  0.00  0.00    +0.000 A 
ATOM      4  C   UNL     1       3.942   3.096  18.015  0.00  0.00    +0.000 A 
ATOM      5  C   UNL     1       3.666   1.779  18.392  0.00  0.00    +0.000 A 
ATOM      6  C   UNL     1       2.668   1.518  19.323  0.00  0.00    +0.000 A 
ATOM      7  C   UNL     1       1.975   2.577  19.915  0.00  0.00    +0.000 A 
ATOM      8  C   UNL     1       2.281   3.907  19.581  0.00  0.00    +0.000 A 
ATOM      9  S   UNL     1       1.508   5.196  20.550  0.00  0.00    +0.000 S 
ATOM     10  C   UNL     1       1.939   6.655  19.633  0.00  0.00    +0.000 A 
ATOM     11  C   UNL     1       1.636   7.913  20.157  0.00  0.00    +0.000 A 
ATOM     12  C   UNL     1       1.888   9.067  19.412  0.00  0.00    +0.000 A 
ATOM     13  C   UNL     1       2.324   8.963  18.093  0.00  0.00    +0.000 A 
ATOM     14  C   UNL     1       2.672   7.716  17.583  0.00  0.00    +0.000 A 
ATOM     15  C   UNL     1       2.637   6.592  18.418  0.00  0.00    +0.000 A 
ENDBRANCH   1   2
BRANCH   1  16
ATOM     16  C   UNL     1       6.130   5.333  18.271  0.00  0.00    +0.000 C 
BRANCH  16  18
ATOM     17  N   UNL     1       6.538   4.449  16.018  0.00  0.00    +0.000 N 
ATOM     18  C   UNL     1       6.110   5.547  16.767  0.00  0.00    +0.000 C 
ATOM     19  O   UNL     1       5.743   6.628  16.307  0.00  0.00    +0.000 OA
ATOM     20  H   UNL     1       6.631   3.567  16.499  0.00  0.00    +0.000 HD
BRANCH  17  25
ATOM     21  C   UNL     1       6.141   3.559  12.408  0.00  0.00    +0.000 A 
ATOM     22  C   UNL     1       7.099   4.388  11.814  0.00  0.00    +0.000 A 
ATOM     23  C   UNL     1       7.867   5.228  12.606  0.00  0.00    +0.000 A 
ATOM     24  C   UNL     1       7.693   5.252  13.988  0.00  0.00    +0.000 A 
ATOM     25  C   UNL     1       6.733   4.445  14.610  0.00  0.00    +0.000 A 
ATOM     26  C   UNL     1       5.960   3.592  13.809  0.00  0.00    +0.000 A 
BRANCH  21  28
ATOM     27  C   UNL     1       3.958   3.154  11.075  0.00  0.00    +0.000 C 
ATOM     28  C   UNL     1       5.296   2.652  11.575  0.00  0.00    +0.000 C 
ATOM     29  O   UNL     1       5.703   1.531  11.294  0.00  0.00    +0.000 OA
ENDBRANCH  21  28
ENDBRANCH  17  25
ENDBRANCH  16  18
ENDBRANCH   1  16
TORSDOF 5
ENDMDL
MODEL 4
REMARK VINA RESULT:      -8.5      1.247      1.431
REMARK  Name = 
REMARK  6 active torsions:
REMARK  status: ('A' for Active; 'I' for Inactive)
REMARK    1  A    between atoms: C_1  and  C_2
REMARK    2  A    between atoms: C_2  and  C_4
REMARK    3  A    between atoms: C_8  and  N_9
REMARK    4  A    between atoms: C_10  and  C_12
REMARK    5  A    between atoms: C_12  and  C_13
REMARK    6  A    between atoms: C_13  and  N_14
REMARK                            x       y       z     vdW  Elec       q    Type
REMARK                         _______ _______ _______ _____ _____    ______ ____
ROOT
ATOM      1  C   UNL     1       3.474   6.514  18.857  0.00  0.00    +0.000 C 
ENDROOT
BRANCH   1   2
ATOM      2  N   UNL     1       3.975   5.216  19.465  0.00  0.00    +0.000 N 
ATOM      3  C   UNL     1       2.903   4.260  19.321  0.00  0.00    +0.000 A 
ATOM      4  C   UNL     1       1.835   4.302  20.240  0.00  0.00    +0.000 A 
ATOM      5  C   UNL     1       0.778   3.393  20.159  0.00  0.00    +0.000 A 
ATOM      6  C   UNL     1       0.788   2.402  19.184  0.00  0.00    +0.000 A 
ATOM      7  C   UNL     1       1.833   2.349  18.258  0.00  0.00    +0.000 A 
ATOM      8  C   UNL     1       2.874   3.292  18.299  0.00  0.00    +0.000 A 
ATOM      9  S   UNL     1       4.041   3.287  16.944  0.00  0.00    +0.000 S 
ATOM     10  C   UNL     1       5.292   4.403  17.531  0.00  0.00    +0.000 A 
ATOM     11  C   UNL     1       6.328   4.786  16.679  0.00  0.00    +0.000 A 
ATOM     12  C   UNL     1       7.367   5.593  17.149  0.00  0.00    +0.000 A 
ATOM     13  C   UNL     1       7.442   5.913  18.503  0.00  0.00    +0.000 A 
ATOM     14  C   UNL     1       6.389   5.574  19.346  0.00  0.00    +0.000 A 
ATOM     15  C   UNL     1       5.242   4.970  18.814  0.00  0.00    +0.000 A 
ENDBRANCH   1   2
BRANCH   1  16
ATOM     16  C   UNL     1       2.477   7.292  19.741  0.00  0.00    +0.000 C 
BRANCH  16  18
ATOM     17  N   UNL     1       1.099   9.321  19.659  0.00  0.00    +0.000 N 
ATOM     18  C   UNL     1       1.852   8.406  18.920  0.00  0.00    +0.000 C 
ATOM     19  O   UNL     1       2.024   8.441  17.701  0.00  0.00    +0.000 OA
ATOM     20  H   UNL     1       1.190   9.293  20.664  0.00  0.00    +0.000 HD
BRANCH  17  25
ATOM     21  C   UNL     1      -1.635  11.073  17.807  0.00  0.00    +0.000 A 
ATOM     22  C   UNL     1      -1.267  12.413  17.976  0.00  0.00    +0.000 A 
ATOM     23  C   UNL     1      -0.123  12.726  18.694  0.00  0.00    +0.000 A 
ATOM     24  C   UNL     1       0.663  11.717  19.247  0.00  0.00    +0.000 A 
ATOM     25  C   UNL     1       0.313  10.369  19.107  0.00  0.00    +0.000 A 
ATOM     26  C   UNL     1      -0.842  10.053  18.376  0.00  0.00    +0.000 A 
BRANCH  21  28
ATOM     27  C   UNL     1      -2.748  10.407  15.566  0.00  0.00    +0.000 C 
ATOM     28  C   UNL     1      -2.868  10.713  17.044  0.00  0.00    +0.000 C 
ATOM     29  O   UNL     1      -3.945  10.651  17.624  0.00  0.00    +0.000 OA
ENDBRANCH  21  28
ENDBRANCH  17  25
ENDBRANCH  16  18
ENDBRANCH   1  16
TORSDOF 5
ENDMDL
MODEL 5
REMARK VINA RESULT:      -8.4      2.087      2.779
REMARK  Name = 
REMARK  6 active torsions:
REMARK  status: ('A' for Active; 'I' for Inactive)
REMARK    1  A    between atoms: C_1  and  C_2
REMARK    2  A    between atoms: C_2  and  C_4
REMARK    3  A    between atoms: C_8  and  N_9
REMARK    4  A    between atoms: C_10  and  C_12
REMARK    5  A    between atoms: C_12  and  C_13
REMARK    6  A    between atoms: C_13  and  N_14
REMARK                            x       y       z     vdW  Elec       q    Type
REMARK                         _______ _______ _______ _____ _____    ______ ____
ROOT
ATOM      1  C   UNL     1       4.199   6.433  18.562  0.00  0.00    +0.000 C 
ENDROOT
BRANCH   1   2
ATOM      2  N   UNL     1       4.499   5.046  19.102  0.00  0.00    +0.000 N 
ATOM      3  C   UNL     1       3.221   4.433  19.380  0.00  0.00    +0.000 A 
ATOM      4  C   UNL     1       2.555   4.777  20.574  0.00  0.00    +0.000 A 
ATOM      5  C   UNL     1       1.324   4.204  20.903  0.00  0.00    +0.000 A 
ATOM      6  C   UNL     1       0.756   3.252  20.065  0.00  0.00    +0.000 A 
ATOM      7  C   UNL     1       1.395   2.905  18.872  0.00  0.00    +0.000 A 
ATOM      8  C   UNL     1       2.609   3.513  18.507  0.00  0.00    +0.000 A 
ATOM      9  S   UNL     1       3.235   3.178  16.867  0.00  0.00    +0.000 S 
ATOM     10  C   UNL     1       4.860   3.893  16.939  0.00  0.00    +0.000 A 
ATOM     11  C   UNL     1       5.633   3.966  15.780  0.00  0.00    +0.000 A 
ATOM     12  C   UNL     1       6.944   4.445  15.835  0.00  0.00    +0.000 A 
ATOM     13  C   UNL     1       7.530   4.731  17.067  0.00  0.00    +0.000 A 
ATOM     14  C   UNL     1       6.751   4.704  18.219  0.00  0.00    +0.000 A 
ATOM     15  C   UNL     1       5.376   4.450  18.119  0.00  0.00    +0.000 A 
ENDBRANCH   1   2
BRANCH   1  16
ATOM     16  C   UNL     1       2.817   6.571  17.888  0.00  0.00    +0.000 C 
BRANCH  16  18
ATOM     17  N   UNL     1       1.611   8.153  19.326  0.00  0.00    +0.000 N 
ATOM     18  C   UNL     1       2.293   7.978  18.120  0.00  0.00    +0.000 C 
ATOM     19  O   UNL     1       2.478   8.849  17.270  0.00  0.00    +0.000 OA
ATOM     20  H   UNL     1       1.690   7.420  20.014  0.00  0.00    +0.000 HD
BRANCH  17  25
ATOM     21  C   UNL     1      -0.238  10.623  21.437  0.00  0.00    +0.000 A 
ATOM     22  C   UNL     1      -0.480  11.647  20.514  0.00  0.00    +0.000 A 
ATOM     23  C   UNL     1      -0.035  11.513  19.207  0.00  0.00    +0.000 A 
ATOM     24  C   UNL     1       0.649  10.367  18.807  0.00  0.00    +0.000 A 
ATOM     25  C   UNL     1       0.918   9.333  19.710  0.00  0.00    +0.000 A 
ATOM     26  C   UNL     1       0.463   9.467  21.031  0.00  0.00    +0.000 A 
BRANCH  21  28
ATOM     27  C   UNL     1      -1.870  11.660  23.160  0.00  0.00    +0.000 C 
ATOM     28  C   UNL     1      -0.701  10.749  22.852  0.00  0.00    +0.000 C 
ATOM     29  O   UNL     1      -0.144  10.104  23.733  0.00  0.00    +0.000 OA
ENDBRANCH  21  28
ENDBRANCH  17  25
ENDBRANCH  16  18
ENDBRANCH   1  16
TORSDOF 5
ENDMDL
MODEL 6
REMARK VINA RESULT:      -8.4      2.409      2.837
REMARK  Name = 
REMARK  6 active torsions:
REMARK  status: ('A' for Active; 'I' for Inactive)
REMARK    1  A    between atoms: C_1  and  C_2
REMARK    2  A    between atoms: C_2  and  C_4
REMARK    3  A    between atoms: C_8  and  N_9
REMARK    4  A    between atoms: C_10  and  C_12
REMARK    5  A    between atoms: C_12  and  C_13
REMARK    6  A    between atoms: C_13  and  N_14
REMARK                            x       y       z     vdW  Elec       q    Type
REMARK                         _______ _______ _______ _____ _____    ______ ____
ROOT
ATOM      1  C   UNL     1       2.484   6.335  18.117  0.00  0.00    +0.000 C 
ENDROOT
BRANCH   1   2
ATOM      2  N   UNL     1       3.574   5.631  18.905  0.00  0.00    +0.000 N 
ATOM      3  C   UNL     1       2.932   4.548  19.610  0.00  0.00    +0.000 A 
ATOM      4  C   UNL     1       2.233   4.840  20.799  0.00  0.00    +0.000 A 
ATOM      5  C   UNL     1       1.604   3.831  21.532  0.00  0.00    +0.000 A 
ATOM      6  C   UNL     1       1.694   2.509  21.112  0.00  0.00    +0.000 A 
ATOM      7  C   UNL     1       2.375   2.200  19.931  0.00  0.00    +0.000 A 
ATOM      8  C   UNL     1       2.966   3.214  19.159  0.00  0.00    +0.000 A 
ATOM      9  S   UNL     1       3.613   2.757  17.557  0.00  0.00    +0.000 S 
ATOM     10  C   UNL     1       4.484   4.228  17.076  0.00  0.00    +0.000 A 
ATOM     11  C   UNL     1       5.019   4.324  15.791  0.00  0.00    +0.000 A 
ATOM     12  C   UNL     1       5.780   5.437  15.425  0.00  0.00    +0.000 A 
ATOM     13  C   UNL     1       6.118   6.394  16.378  0.00  0.00    +0.000 A 
ATOM     14  C   UNL     1       5.550   6.328  17.647  0.00  0.00    +0.000 A 
ATOM     15  C   UNL     1       4.601   5.337  17.929  0.00  0.00    +0.000 A 
ENDBRANCH   1   2
BRANCH   1  16
ATOM     16  C   UNL     1       2.801   7.801  17.756  0.00  0.00    +0.000 C 
BRANCH  16  18
ATOM     17  N   UNL     1       1.870   8.551  19.899  0.00  0.00    +0.000 N 
ATOM     18  C   UNL     1       1.852   8.714  18.513  0.00  0.00    +0.000 C 
ATOM     19  O   UNL     1       1.142   9.509  17.895  0.00  0.00    +0.000 OA
ATOM     20  H   UNL     1       2.623   8.007  20.293  0.00  0.00    +0.000 HD
BRANCH  17  25
ATOM     21  C   UNL     1      -0.005  11.249  21.683  0.00  0.00    +0.000 A 
ATOM     22  C   UNL     1      -0.742  10.505  22.610  0.00  0.00    +0.000 A 
ATOM     23  C   UNL     1      -0.613   9.124  22.642  0.00  0.00    +0.000 A 
ATOM     24  C   UNL     1       0.245   8.474  21.758  0.00  0.00    +0.000 A 
ATOM     25  C   UNL     1       0.985   9.190  20.810  0.00  0.00    +0.000 A 
ATOM     26  C   UNL     1       0.858  10.587  20.782  0.00  0.00    +0.000 A 
BRANCH  21  28
ATOM     27  C   UNL     1      -0.954  13.440  22.686  0.00  0.00    +0.000 C 
ATOM     28  C   UNL     1      -0.133  12.736  21.625  0.00  0.00    +0.000 C 
ATOM     29  O   UNL     1       0.437  13.362  20.739  0.00  0.00    +0.000 OA
ENDBRANCH  21  28
ENDBRANCH  17  25
ENDBRANCH  16  18
ENDBRANCH   1  16
TORSDOF 5
ENDMDL
MODEL 7
REMARK VINA RESULT:      -8.3      1.338      1.580
REMARK  Name = 
REMARK  6 active torsions:
REMARK  status: ('A' for Active; 'I' for Inactive)
REMARK    1  A    between atoms: C_1  and  C_2
REMARK    2  A    between atoms: C_2  and  C_4
REMARK    3  A    between atoms: C_8  and  N_9
REMARK    4  A    between atoms: C_10  and  C_12
REMARK    5  A    between atoms: C_12  and  C_13
REMARK    6  A    between atoms: C_13  and  N_14
REMARK                            x       y       z     vdW  Elec       q    Type
REMARK                         _______ _______ _______ _____ _____    ______ ____
ROOT
ATOM      1  C   UNL     1       4.161   6.306  18.748  0.00  0.00    +0.000 C 
ENDROOT
BRANCH   1   2
ATOM      2  N   UNL     1       4.480   4.886  19.182  0.00  0.00    +0.000 N 
ATOM      3  C   UNL     1       3.212   4.246  19.441  0.00  0.00    +0.000 A 
ATOM      4  C   UNL     1       2.570   4.498  20.671  0.00  0.00    +0.000 A 
ATOM      5  C   UNL     1       1.350   3.895  20.984  0.00  0.00    +0.000 A 
ATOM      6  C   UNL     1       0.769   3.001  20.092  0.00  0.00    +0.000 A 
ATOM      7  C   UNL     1       1.385   2.744  18.864  0.00  0.00    +0.000 A 
ATOM      8  C   UNL     1       2.586   3.386  18.518  0.00  0.00    +0.000 A 
ATOM      9  S   UNL     1       3.179   3.174  16.845  0.00  0.00    +0.000 S 
ATOM     10  C   UNL     1       4.801   3.893  16.934  0.00  0.00    +0.000 A 
ATOM     11  C   UNL     1       5.548   4.055  15.767  0.00  0.00    +0.000 A 
ATOM     12  C   UNL     1       6.858   4.538  15.829  0.00  0.00    +0.000 A 
ATOM     13  C   UNL     1       7.468   4.739  17.065  0.00  0.00    +0.000 A 
ATOM     14  C   UNL     1       6.714   4.624  18.228  0.00  0.00    +0.000 A 
ATOM     15  C   UNL     1       5.339   4.369  18.140  0.00  0.00    +0.000 A 
ENDBRANCH   1   2
BRANCH   1  16
ATOM     16  C   UNL     1       2.742   6.494  18.170  0.00  0.00    +0.000 C 
BRANCH  16  18
ATOM     17  N   UNL     1       1.703   8.693  17.847  0.00  0.00    +0.000 N 
ATOM     18  C   UNL     1       2.121   7.740  18.777  0.00  0.00    +0.000 C 
ATOM     19  O   UNL     1       2.029   7.846  20.001  0.00  0.00    +0.000 OA
ATOM     20  H   UNL     1       1.660   8.410  16.879  0.00  0.00    +0.000 HD
BRANCH  17  25
ATOM     21  C   UNL     1      -0.677  11.465  18.640  0.00  0.00    +0.000 A 
ATOM     22  C   UNL     1       0.199  12.547  18.781  0.00  0.00    +0.000 A 
ATOM     23  C   UNL     1       1.562  12.356  18.611  0.00  0.00    +0.000 A 
ATOM     24  C   UNL     1       2.064  11.094  18.300  0.00  0.00    +0.000 A 
ATOM     25  C   UNL     1       1.215   9.990  18.167  0.00  0.00    +0.000 A 
ATOM     26  C   UNL     1      -0.164  10.186  18.333  0.00  0.00    +0.000 A 
BRANCH  21  28
ATOM     27  C   UNL     1      -3.098  10.876  17.933  0.00  0.00    +0.000 C 
ATOM     28  C   UNL     1      -2.148  11.647  18.826  0.00  0.00    +0.000 C 
ATOM     29  O   UNL     1      -2.562  12.395  19.703  0.00  0.00    +0.000 OA
ENDBRANCH  21  28
ENDBRANCH  17  25
ENDBRANCH  16  18
ENDBRANCH   1  16
TORSDOF 5
ENDMDL
MODEL 8
REMARK VINA RESULT:      -8.2      1.311      2.082
REMARK  Name = 
REMARK  6 active torsions:
REMARK  status: ('A' for Active; 'I' for Inactive)
REMARK    1  A    between atoms: C_1  and  C_2
REMARK    2  A    between atoms: C_2  and  C_4
REMARK    3  A    between atoms: C_8  and  N_9
REMARK    4  A    between atoms: C_10  and  C_12
REMARK    5  A    between atoms: C_12  and  C_13
REMARK    6  A    between atoms: C_13  and  N_14
REMARK                            x       y       z     vdW  Elec       q    Type
REMARK                         _______ _______ _______ _____ _____    ______ ____
ROOT
ATOM      1  C   UNL     1       2.954   6.640  17.772  0.00  0.00    +0.000 C 
ENDROOT
BRANCH   1   2
ATOM      2  N   UNL     1       3.779   5.780  18.712  0.00  0.00    +0.000 N 
ATOM      3  C   UNL     1       2.882   4.781  19.242  0.00  0.00    +0.000 A 
ATOM      4  C   UNL     1       2.020   5.143  20.298  0.00  0.00    +0.000 A 
ATOM      5  C   UNL     1       1.141   4.215  20.861  0.00  0.00    +0.000 A 
ATOM      6  C   UNL     1       1.134   2.901  20.407  0.00  0.00    +0.000 A 
ATOM      7  C   UNL     1       1.974   2.525  19.356  0.00  0.00    +0.000 A 
ATOM      8  C   UNL     1       2.825   3.464  18.748  0.00  0.00    +0.000 A 
ATOM      9  S   UNL     1       3.691   2.952  17.270  0.00  0.00    +0.000 S 
ATOM     10  C   UNL     1       4.820   4.301  17.018  0.00  0.00    +0.000 A 
ATOM     11  C   UNL     1       5.590   4.347  15.856  0.00  0.00    +0.000 A 
ATOM     12  C   UNL     1       6.544   5.352  15.681  0.00  0.00    +0.000 A 
ATOM     13  C   UNL     1       6.822   6.237  16.721  0.00  0.00    +0.000 A 
ATOM     14  C   UNL     1       6.026   6.225  17.862  0.00  0.00    +0.000 A 
ATOM     15  C   UNL     1       4.920   5.366  17.925  0.00  0.00    +0.000 A 
ENDBRANCH   1   2
BRANCH   1  16
ATOM     16  C   UNL     1       3.115   8.159  17.989  0.00  0.00    +0.000 C 
BRANCH  16  18
ATOM     17  N   UNL     1       1.051   9.449  17.678  0.00  0.00    +0.000 N 
ATOM     18  C   UNL     1       1.829   8.715  18.575  0.00  0.00    +0.000 C 
ATOM     19  O   UNL     1       1.554   8.507  19.758  0.00  0.00    +0.000 OA
ATOM     20  H   UNL     1       1.288   9.388  16.700  0.00  0.00    +0.000 HD
BRANCH  17  25
ATOM     21  C   UNL     1      -1.181  11.995  19.265  0.00  0.00    +0.000 A 
ATOM     22  C   UNL     1      -2.427  11.634  18.739  0.00  0.00    +0.000 A 
ATOM     23  C   UNL     1      -2.521  10.556  17.872  0.00  0.00    +0.000 A 
ATOM     24  C   UNL     1      -1.385   9.830  17.521  0.00  0.00    +0.000 A 
ATOM     25  C   UNL     1      -0.123  10.176  18.018  0.00  0.00    +0.000 A 
ATOM     26  C   UNL     1      -0.029  11.263  18.900  0.00  0.00    +0.000 A 
BRANCH  21  28
ATOM     27  C   UNL     1       0.329  13.636  20.582  0.00  0.00    +0.000 C 
ATOM     28  C   UNL     1      -1.055  13.157  20.195  0.00  0.00    +0.000 C 
ATOM     29  O   UNL     1      -2.063  13.713  20.613  0.00  0.00    +0.000 OA
ENDBRANCH  21  28
ENDBRANCH  17  25
ENDBRANCH  16  18
ENDBRANCH   1  16
TORSDOF 5
ENDMDL
MODEL 9
REMARK VINA RESULT:      -8.2      1.660      2.099
REMARK  Name = 
REMARK  6 active torsions:
REMARK  status: ('A' for Active; 'I' for Inactive)
REMARK    1  A    between atoms: C_1  and  C_2
REMARK    2  A    between atoms: C_2  and  C_4
REMARK    3  A    between atoms: C_8  and  N_9
REMARK    4  A    between atoms: C_10  and  C_12
REMARK    5  A    between atoms: C_12  and  C_13
REMARK    6  A    between atoms: C_13  and  N_14
REMARK                            x       y       z     vdW  Elec       q    Type
REMARK                         _______ _______ _______ _____ _____    ______ ____
ROOT
ATOM      1  C   UNL     1       2.735   6.236  17.951  0.00  0.00    +0.000 C 
ENDROOT
BRANCH   1   2
ATOM      2  N   UNL     1       3.743   5.506  18.821  0.00  0.00    +0.000 N 
ATOM      3  C   UNL     1       3.008   4.483  19.524  0.00  0.00    +0.000 A 
ATOM      4  C   UNL     1       2.263   4.852  20.663  0.00  0.00    +0.000 A 
ATOM      5  C   UNL     1       1.544   3.903  21.393  0.00  0.00    +0.000 A 
ATOM      6  C   UNL     1       1.587   2.564  21.021  0.00  0.00    +0.000 A 
ATOM      7  C   UNL     1       2.311   2.179  19.891  0.00  0.00    +0.000 A 
ATOM      8  C   UNL     1       2.996   3.134  19.120  0.00  0.00    +0.000 A 
ATOM      9  S   UNL     1       3.703   2.587  17.571  0.00  0.00    +0.000 S 
ATOM     10  C   UNL     1       4.674   3.995  17.092  0.00  0.00    +0.000 A 
ATOM     11  C   UNL     1       5.281   4.018  15.836  0.00  0.00    +0.000 A 
ATOM     12  C   UNL     1       6.119   5.077  15.476  0.00  0.00    +0.000 A 
ATOM     13  C   UNL     1       6.455   6.049  16.415  0.00  0.00    +0.000 A 
ATOM     14  C   UNL     1       5.817   6.057  17.651  0.00  0.00    +0.000 A 
ATOM     15  C   UNL     1       4.803   5.126  17.913  0.00  0.00    +0.000 A 
ENDBRANCH   1   2
BRANCH   1  16
ATOM     16  C   UNL     1       3.179   7.645  17.503  0.00  0.00    +0.000 C 
BRANCH  16  18
ATOM     17  N   UNL     1       1.952   8.297  19.526  0.00  0.00    +0.000 N 
ATOM     18  C   UNL     1       2.355   8.683  18.246  0.00  0.00    +0.000 C 
ATOM     19  O   UNL     1       2.091   9.757  17.706  0.00  0.00    +0.000 OA
ATOM     20  H   UNL     1       2.388   7.479  19.924  0.00  0.00    +0.000 HD
BRANCH  17  25
ATOM     21  C   UNL     1      -0.643  10.764  20.603  0.00  0.00    +0.000 A 
ATOM     22  C   UNL     1      -0.681  10.537  21.984  0.00  0.00    +0.000 A 
ATOM     23  C   UNL     1       0.149   9.579  22.546  0.00  0.00    +0.000 A 
ATOM     24  C   UNL     1       1.019   8.842  21.748  0.00  0.00    +0.000 A 
ATOM     25  C   UNL     1       1.070   9.035  20.363  0.00  0.00    +0.000 A 
ATOM     26  C   UNL     1       0.234  10.008  19.795  0.00  0.00    +0.000 A 
BRANCH  21  28
ATOM     27  C   UNL     1      -1.530  11.927  18.467  0.00  0.00    +0.000 C 
ATOM     28  C   UNL     1      -1.533  11.786  19.974  0.00  0.00    +0.000 C 
ATOM     29  O   UNL     1      -2.259  12.476  20.680  0.00  0.00    +0.000 OA
ENDBRANCH  21  28
ENDBRANCH  17  25
ENDBRANCH  16  18
ENDBRANCH   1  16
TORSDOF 5
ENDMDL
