MODEL 1
REMARK VINA RESULT:      -9.0      0.000      0.000
REMARK  Name = 
REMARK  3 active torsions:
REMARK  status: ('A' for Active; 'I' for Inactive)
REMARK    1  A    between atoms: C_7  and  C_8
REMARK    2  A    between atoms: C_10  and  C_11
REMARK    3  A    between atoms: C_11  and  N_12
REMARK                            x       y       z     vdW  Elec       q    Type
REMARK                         _______ _______ _______ _____ _____    ______ ____
ROOT
ATOM      1  N   UNL     1       0.227  11.134  19.016  0.00  0.00    +0.000 N 
ATOM      2  C   UNL     1       0.948  12.342  18.913  0.00  0.00    +0.000 A 
ATOM      3  C   UNL     1       2.241  12.274  18.357  0.00  0.00    +0.000 A 
ATOM      4  C   UNL     1       3.008  13.418  18.159  0.00  0.00    +0.000 A 
ATOM      5  C   UNL     1       2.495  14.655  18.527  0.00  0.00    +0.000 A 
ATOM      6  C   UNL     1       1.215  14.744  19.077  0.00  0.00    +0.000 A 
ATOM      7  C   UNL     1       0.420  13.598  19.260  0.00  0.00    +0.000 A 
ATOM      8  C   UNL     1      -0.894  13.784  19.895  0.00  0.00    +0.000 C 
ATOM      9  C   UNL     1      -1.994  13.037  19.721  0.00  0.00    +0.000 C 
ATOM     10  C   UNL     1      -2.137  11.873  18.834  0.00  0.00    +0.000 A 
ATOM     11  C   UNL     1      -3.410  11.649  18.278  0.00  0.00    +0.000 A 
ATOM     12  C   UNL     1      -3.643  10.575  17.419  0.00  0.00    +0.000 A 
ATOM     13  C   UNL     1      -2.614   9.688  17.131  0.00  0.00    +0.000 A 
ATOM     14  C   UNL     1      -1.359   9.871  17.714  0.00  0.00    +0.000 A 
ATOM     15  C   UNL     1      -1.096  10.961  18.566  0.00  0.00    +0.000 A 
ENDROOT
BRANCH   1  16
ATOM     16  C   UNL     1       0.699  10.232  20.093  0.00  0.00    +0.000 C 
BRANCH  16  19
ATOM     17  C   UNL     1       2.476   7.248  18.820  0.00  0.00    +0.000 A 
ATOM     18  C   UNL     1       1.917   8.519  18.520  0.00  0.00    +0.000 A 
ATOM     19  C   UNL     1       1.342   8.947  19.686  0.00  0.00    +0.000 A 
ATOM     20  O   UNL     1       1.497   7.982  20.628  0.00  0.00    +0.000 OA
ATOM     21  N   UNL     1       2.192   6.908  20.082  0.00  0.00    +0.000 NA
BRANCH  17  28
ATOM     22 BR   UNL     1       1.658   4.046  18.397  0.00  0.00    +0.000 Br
ATOM     23  C   UNL     1       3.079   5.065  17.657  0.00  0.00    +0.000 A 
ATOM     24  C   UNL     1       4.009   4.347  16.880  0.00  0.00    +0.000 A 
ATOM     25  C   UNL     1       5.118   4.983  16.323  0.00  0.00    +0.000 A 
ATOM     26  C   UNL     1       5.292   6.347  16.504  0.00  0.00    +0.000 A 
ATOM     27  C   UNL     1       4.372   7.067  17.266  0.00  0.00    +0.000 A 
ATOM     28  C   UNL     1       3.269   6.440  17.882  0.00  0.00    +0.000 A 
ENDBRANCH  17  28
ENDBRANCH  16  19
ENDBRANCH   1  16
TORSDOF 3
ENDMDL
MODEL 2
REMARK VINA RESULT:      -8.9      2.215      3.894
REMARK  Name = 
REMARK  3 active torsions:
REMARK  status: ('A' for Active; 'I' for Inactive)
REMARK    1  A    between atoms: C_7  and  C_8
REMARK    2  A    between atoms: C_10  and  C_11
REMARK    3  A    between atoms: C_11  and  N_12
REMARK                            x       y       z     vdW  Elec       q    Type
REMARK                         _______ _______ _______ _____ _____    ______ ____
ROOT
ATOM      1  N   UNL     1      -0.308  10.245  19.279  0.00  0.00    +0.000 N 
ATOM      2  C   UNL     1      -1.390  10.527  18.419  0.00  0.00    +0.000 A 
ATOM      3  C   UNL     1      -1.643   9.609  17.381  0.00  0.00    +0.000 A 
ATOM      4  C   UNL     1      -2.722   9.769  16.516  0.00  0.00    +0.000 A 
ATOM      5  C   UNL     1      -3.564  10.862  16.671  0.00  0.00    +0.000 A 
ATOM      6  C   UNL     1      -3.331  11.782  17.695  0.00  0.00    +0.000 A 
ATOM      7  C   UNL     1      -2.258  11.620  18.590  0.00  0.00    +0.000 A 
ATOM      8  C   UNL     1      -2.061  12.668  19.603  0.00  0.00    +0.000 C 
ATOM      9  C   UNL     1      -1.513  12.531  20.820  0.00  0.00    +0.000 C 
ATOM     10  C   UNL     1      -1.006  11.289  21.422  0.00  0.00    +0.000 A 
ATOM     11  C   UNL     1      -1.103  11.174  22.821  0.00  0.00    +0.000 A 
ATOM     12  C   UNL     1      -0.656  10.031  23.482  0.00  0.00    +0.000 A 
ATOM     13  C   UNL     1      -0.072   8.999  22.758  0.00  0.00    +0.000 A 
ATOM     14  C   UNL     1       0.074   9.122  21.376  0.00  0.00    +0.000 A 
ATOM     15  C   UNL     1      -0.391  10.257  20.685  0.00  0.00    +0.000 A 
ENDROOT
BRANCH   1  16
ATOM     16  C   UNL     1       1.026  10.476  18.677  0.00  0.00    +0.000 C 
BRANCH  16  19
ATOM     17  C   UNL     1       2.711   7.299  17.815  0.00  0.00    +0.000 A 
ATOM     18  C   UNL     1       1.886   7.997  18.736  0.00  0.00    +0.000 A 
ATOM     19  C   UNL     1       1.814   9.279  18.261  0.00  0.00    +0.000 A 
ATOM     20  O   UNL     1       2.582   9.373  17.146  0.00  0.00    +0.000 OA
ATOM     21  N   UNL     1       3.160   8.138  16.875  0.00  0.00    +0.000 NA
BRANCH  17  28
ATOM     22 BR   UNL     1       5.880   6.311  17.519  0.00  0.00    +0.000 Br
ATOM     23  C   UNL     1       4.282   5.299  17.702  0.00  0.00    +0.000 A 
ATOM     24  C   UNL     1       4.426   3.902  17.598  0.00  0.00    +0.000 A 
ATOM     25  C   UNL     1       3.316   3.061  17.672  0.00  0.00    +0.000 A 
ATOM     26  C   UNL     1       2.057   3.601  17.888  0.00  0.00    +0.000 A 
ATOM     27  C   UNL     1       1.906   4.984  17.999  0.00  0.00    +0.000 A 
ATOM     28  C   UNL     1       3.005   5.860  17.878  0.00  0.00    +0.000 A 
ENDBRANCH  17  28
ENDBRANCH  16  19
ENDBRANCH   1  16
TORSDOF 3
ENDMDL
MODEL 3
REMARK VINA RESULT:      -8.9      1.722      3.388
REMARK  Name = 
REMARK  3 active torsions:
REMARK  status: ('A' for Active; 'I' for Inactive)
REMARK    1  A    between atoms: C_7  and  C_8
REMARK    2  A    between atoms: C_10  and  C_11
REMARK    3  A    between atoms: C_11  and  N_12
REMARK                            x       y       z     vdW  Elec       q    Type
REMARK                         _______ _______ _______ _____ _____    ______ ____
ROOT
ATOM      1  N   UNL     1      -0.227  10.104  19.232  0.00  0.00    +0.000 N 
ATOM      2  C   UNL     1      -1.197  10.430  18.261  0.00  0.00    +0.000 A 
ATOM      3  C   UNL     1      -1.491   9.453  17.291  0.00  0.00    +0.000 A 
ATOM      4  C   UNL     1      -2.473   9.657  16.327  0.00  0.00    +0.000 A 
ATOM      5  C   UNL     1      -3.175  10.855  16.312  0.00  0.00    +0.000 A 
ATOM      6  C   UNL     1      -2.901  11.836  17.267  0.00  0.00    +0.000 A 
ATOM      7  C   UNL     1      -1.926  11.632  18.262  0.00  0.00    +0.000 A 
ATOM      8  C   UNL     1      -1.671  12.743  19.191  0.00  0.00    +0.000 C 
ATOM      9  C   UNL     1      -1.236  12.659  20.458  0.00  0.00    +0.000 C 
ATOM     10  C   UNL     1      -0.939  11.430  21.207  0.00  0.00    +0.000 A 
ATOM     11  C   UNL     1      -1.153  11.465  22.598  0.00  0.00    +0.000 A 
ATOM     12  C   UNL     1      -0.907  10.346  23.393  0.00  0.00    +0.000 A 
ATOM     13  C   UNL     1      -0.410   9.185  22.815  0.00  0.00    +0.000 A 
ATOM     14  C   UNL     1      -0.148   9.153  21.444  0.00  0.00    +0.000 A 
ATOM     15  C   UNL     1      -0.410  10.263  20.619  0.00  0.00    +0.000 A 
ENDROOT
BRANCH   1  16
ATOM     16  C   UNL     1       1.166  10.110  18.728  0.00  0.00    +0.000 C 
BRANCH  16  19
ATOM     17  C   UNL     1       3.090   7.011  18.114  0.00  0.00    +0.000 A 
ATOM     18  C   UNL     1       2.552   8.207  17.567  0.00  0.00    +0.000 A 
ATOM     19  C   UNL     1       1.858   8.795  18.591  0.00  0.00    +0.000 A 
ATOM     20  O   UNL     1       1.927   7.990  19.682  0.00  0.00    +0.000 OA
ATOM     21  N   UNL     1       2.683   6.862  19.380  0.00  0.00    +0.000 NA
BRANCH  17  28
ATOM     22 BR   UNL     1       2.129   3.842  17.742  0.00  0.00    +0.000 Br
ATOM     23  C   UNL     1       3.734   4.715  17.224  0.00  0.00    +0.000 A 
ATOM     24  C   UNL     1       4.736   3.886  16.683  0.00  0.00    +0.000 A 
ATOM     25  C   UNL     1       5.974   4.410  16.309  0.00  0.00    +0.000 A 
ATOM     26  C   UNL     1       6.212   5.770  16.435  0.00  0.00    +0.000 A 
ATOM     27  C   UNL     1       5.222   6.600  16.963  0.00  0.00    +0.000 A 
ATOM     28  C   UNL     1       3.981   6.089  17.396  0.00  0.00    +0.000 A 
ENDBRANCH  17  28
ENDBRANCH  16  19
ENDBRANCH   1  16
TORSDOF 3
ENDMDL
MODEL 4
REMARK VINA RESULT:      -8.8      1.476      1.799
REMARK  Name = 
REMARK  3 active torsions:
REMARK  status: ('A' for Active; 'I' for Inactive)
REMARK    1  A    between atoms: C_7  and  C_8
REMARK    2  A    between atoms: C_10  and  C_11
REMARK    3  A    between atoms: C_11  and  N_12
REMARK                            x       y       z     vdW  Elec       q    Type
REMARK                         _______ _______ _______ _____ _____    ______ ____
ROOT
ATOM      1  N   UNL     1       0.208  11.285  18.763  0.00  0.00    +0.000 N 
ATOM      2  C   UNL     1       0.801  12.563  18.838  0.00  0.00    +0.000 A 
ATOM      3  C   UNL     1       2.029  12.743  18.172  0.00  0.00    +0.000 A 
ATOM      4  C   UNL     1       2.664  13.980  18.139  0.00  0.00    +0.000 A 
ATOM      5  C   UNL     1       2.082  15.063  18.786  0.00  0.00    +0.000 A 
ATOM      6  C   UNL     1       0.864  14.905  19.450  0.00  0.00    +0.000 A 
ATOM      7  C   UNL     1       0.200  13.665  19.471  0.00  0.00    +0.000 A 
ATOM      8  C   UNL     1      -1.051  13.584  20.240  0.00  0.00    +0.000 C 
ATOM      9  C   UNL     1      -2.091  12.766  20.017  0.00  0.00    +0.000 C 
ATOM     10  C   UNL     1      -2.220  11.781  18.933  0.00  0.00    +0.000 A 
ATOM     11  C   UNL     1      -3.519  11.528  18.454  0.00  0.00    +0.000 A 
ATOM     12  C   UNL     1      -3.741  10.615  17.423  0.00  0.00    +0.000 A 
ATOM     13  C   UNL     1      -2.672   9.916  16.879  0.00  0.00    +0.000 A 
ATOM     14  C   UNL     1      -1.385  10.123  17.378  0.00  0.00    +0.000 A 
ATOM     15  C   UNL     1      -1.134  11.056  18.402  0.00  0.00    +0.000 A 
ENDROOT
BRANCH   1  16
ATOM     16  C   UNL     1       0.871  10.254  19.595  0.00  0.00    +0.000 C 
BRANCH  16  19
ATOM     17  C   UNL     1       2.574   7.350  18.065  0.00  0.00    +0.000 A 
ATOM     18  C   UNL     1       1.964   7.896  19.225  0.00  0.00    +0.000 A 
ATOM     19  C   UNL     1       1.634   9.182  18.891  0.00  0.00    +0.000 A 
ATOM     20  O   UNL     1       2.056   9.424  17.623  0.00  0.00    +0.000 OA
ATOM     21  N   UNL     1       2.662   8.282  17.110  0.00  0.00    +0.000 NA
BRANCH  17  28
ATOM     22 BR   UNL     1       5.747   6.771  17.229  0.00  0.00    +0.000 Br
ATOM     23  C   UNL     1       4.308   5.567  17.522  0.00  0.00    +0.000 A 
ATOM     24  C   UNL     1       4.578   4.211  17.250  0.00  0.00    +0.000 A 
ATOM     25  C   UNL     1       3.583   3.242  17.386  0.00  0.00    +0.000 A 
ATOM     26  C   UNL     1       2.322   3.609  17.831  0.00  0.00    +0.000 A 
ATOM     27  C   UNL     1       2.048   4.949  18.110  0.00  0.00    +0.000 A 
ATOM     28  C   UNL     1       3.021   5.955  17.933  0.00  0.00    +0.000 A 
ENDBRANCH  17  28
ENDBRANCH  16  19
ENDBRANCH   1  16
TORSDOF 3
ENDMDL
MODEL 5
REMARK VINA RESULT:      -8.7      2.353      8.103
REMARK  Name = 
REMARK  3 active torsions:
REMARK  status: ('A' for Active; 'I' for Inactive)
REMARK    1  A    between atoms: C_7  and  C_8
REMARK    2  A    between atoms: C_10  and  C_11
REMARK    3  A    between atoms: C_11  and  N_12
REMARK                            x       y       z     vdW  Elec       q    Type
REMARK                         _______ _______ _______ _____ _____    ______ ____
ROOT
ATOM      1  N   UNL     1       3.349   5.672  18.387  0.00  0.00    +0.000 N 
ATOM      2  C   UNL     1       4.601   5.662  17.739  0.00  0.00    +0.000 A 
ATOM      3  C   UNL     1       5.399   6.816  17.863  0.00  0.00    +0.000 A 
ATOM      4  C   UNL     1       6.674   6.882  17.309  0.00  0.00    +0.000 A 
ATOM      5  C   UNL     1       7.170   5.791  16.608  0.00  0.00    +0.000 A 
ATOM      6  C   UNL     1       6.396   4.637  16.476  0.00  0.00    +0.000 A 
ATOM      7  C   UNL     1       5.115   4.548  17.051  0.00  0.00    +0.000 A 
ATOM      8  C   UNL     1       4.353   3.313  16.813  0.00  0.00    +0.000 C 
ATOM      9  C   UNL     1       3.421   2.767  17.609  0.00  0.00    +0.000 C 
ATOM     10  C   UNL     1       2.969   3.274  18.912  0.00  0.00    +0.000 A 
ATOM     11  C   UNL     1       2.547   2.319  19.855  0.00  0.00    +0.000 A 
ATOM     12  C   UNL     1       2.108   2.702  21.122  0.00  0.00    +0.000 A 
ATOM     13  C   UNL     1       2.050   4.050  21.453  0.00  0.00    +0.000 A 
ATOM     14  C   UNL     1       2.419   5.009  20.509  0.00  0.00    +0.000 A 
ATOM     15  C   UNL     1       2.887   4.644  19.233  0.00  0.00    +0.000 A 
ENDROOT
BRANCH   1  16
ATOM     16  C   UNL     1       2.325   6.514  17.725  0.00  0.00    +0.000 C 
BRANCH  16  19
ATOM     17  C   UNL     1       1.269   9.817  19.013  0.00  0.00    +0.000 A 
ATOM     18  C   UNL     1       1.637   9.043  17.881  0.00  0.00    +0.000 A 
ATOM     19  C   UNL     1       1.972   7.811  18.375  0.00  0.00    +0.000 A 
ATOM     20  O   UNL     1       1.861   7.841  19.728  0.00  0.00    +0.000 OA
ATOM     21  N   UNL     1       1.439   9.103  20.132  0.00  0.00    +0.000 NA
BRANCH  17  28
ATOM     22 BR   UNL     1      -1.889  10.297  18.065  0.00  0.00    +0.000 Br
ATOM     23  C   UNL     1      -0.530  11.546  18.510  0.00  0.00    +0.000 A 
ATOM     24  C   UNL     1      -0.857  12.903  18.319  0.00  0.00    +0.000 A 
ATOM     25  C   UNL     1       0.078  13.907  18.570  0.00  0.00    +0.000 A 
ATOM     26  C   UNL     1       1.335  13.572  19.049  0.00  0.00    +0.000 A 
ATOM     27  C   UNL     1       1.666  12.231  19.249  0.00  0.00    +0.000 A 
ATOM     28  C   UNL     1       0.756  11.193  18.955  0.00  0.00    +0.000 A 
ENDBRANCH  17  28
ENDBRANCH  16  19
ENDBRANCH   1  16
TORSDOF 3
ENDMDL
MODEL 6
REMARK VINA RESULT:      -8.5      3.269      8.106
REMARK  Name = 
REMARK  3 active torsions:
REMARK  status: ('A' for Active; 'I' for Inactive)
REMARK    1  A    between atoms: C_7  and  C_8
REMARK    2  A    between atoms: C_10  and  C_11
REMARK    3  A    between atoms: C_11  and  N_12
REMARK                            x       y       z     vdW  Elec       q    Type
REMARK                         _______ _______ _______ _____ _____    ______ ____
ROOT
ATOM      1  N   UNL     1       3.842   6.048  18.365  0.00  0.00    +0.000 N 
ATOM      2  C   UNL     1       5.114   5.561  17.997  0.00  0.00    +0.000 A 
ATOM      3  C   UNL     1       6.235   6.215  18.543  0.00  0.00    +0.000 A 
ATOM      4  C   UNL     1       7.530   5.775  18.287  0.00  0.00    +0.000 A 
ATOM      5  C   UNL     1       7.725   4.672  17.465  0.00  0.00    +0.000 A 
ATOM      6  C   UNL     1       6.627   4.009  16.916  0.00  0.00    +0.000 A 
ATOM      7  C   UNL     1       5.311   4.430  17.186  0.00  0.00    +0.000 A 
ATOM      8  C   UNL     1       4.221   3.701  16.520  0.00  0.00    +0.000 C 
ATOM      9  C   UNL     1       2.966   3.533  16.963  0.00  0.00    +0.000 C 
ATOM     10  C   UNL     1       2.407   4.025  18.231  0.00  0.00    +0.000 A 
ATOM     11  C   UNL     1       1.393   3.249  18.822  0.00  0.00    +0.000 A 
ATOM     12  C   UNL     1       0.806   3.629  20.029  0.00  0.00    +0.000 A 
ATOM     13  C   UNL     1       1.199   4.810  20.645  0.00  0.00    +0.000 A 
ATOM     14  C   UNL     1       2.170   5.613  20.044  0.00  0.00    +0.000 A 
ATOM     15  C   UNL     1       2.792   5.237  18.838  0.00  0.00    +0.000 A 
ENDROOT
BRANCH   1  16
ATOM     16  C   UNL     1       3.470   7.331  17.725  0.00  0.00    +0.000 C 
BRANCH  16  19
ATOM     17  C   UNL     1       0.886   9.258  19.539  0.00  0.00    +0.000 A 
ATOM     18  C   UNL     1       1.933   8.302  19.619  0.00  0.00    +0.000 A 
ATOM     19  C   UNL     1       2.345   8.104  18.329  0.00  0.00    +0.000 A 
ATOM     20  O   UNL     1       1.570   8.855  17.505  0.00  0.00    +0.000 OA
ATOM     21  N   UNL     1       0.642   9.565  18.260  0.00  0.00    +0.000 NA
BRANCH  17  28
ATOM     22 BR   UNL     1       0.382  12.551  19.605  0.00  0.00    +0.000 Br
ATOM     23  C   UNL     1      -0.028  11.213  20.889  0.00  0.00    +0.000 A 
ATOM     24  C   UNL     1      -0.537  11.677  22.118  0.00  0.00    +0.000 A 
ATOM     25  C   UNL     1      -0.833  10.788  23.152  0.00  0.00    +0.000 A 
ATOM     26  C   UNL     1      -0.659   9.426  22.959  0.00  0.00    +0.000 A 
ATOM     27  C   UNL     1      -0.162   8.957  21.742  0.00  0.00    +0.000 A 
ATOM     28  C   UNL     1       0.192   9.837  20.699  0.00  0.00    +0.000 A 
ENDBRANCH  17  28
ENDBRANCH  16  19
ENDBRANCH   1  16
TORSDOF 3
ENDMDL
MODEL 7
REMARK VINA RESULT:      -8.4      1.598      2.110
REMARK  Name = 
REMARK  3 active torsions:
REMARK  status: ('A' for Active; 'I' for Inactive)
REMARK    1  A    between atoms: C_7  and  C_8
REMARK    2  A    between atoms: C_10  and  C_11
REMARK    3  A    between atoms: C_11  and  N_12
REMARK                            x       y       z     vdW  Elec       q    Type
REMARK                         _______ _______ _______ _____ _____    ______ ____
ROOT
ATOM      1  N   UNL     1      -0.006  11.223  19.236  0.00  0.00    +0.000 N 
ATOM      2  C   UNL     1       0.707  12.433  19.109  0.00  0.00    +0.000 A 
ATOM      3  C   UNL     1       1.990  12.365  18.531  0.00  0.00    +0.000 A 
ATOM      4  C   UNL     1       2.749  13.511  18.310  0.00  0.00    +0.000 A 
ATOM      5  C   UNL     1       2.237  14.749  18.676  0.00  0.00    +0.000 A 
ATOM      6  C   UNL     1       0.967  14.837  19.248  0.00  0.00    +0.000 A 
ATOM      7  C   UNL     1       0.180  13.689  19.456  0.00  0.00    +0.000 A 
ATOM      8  C   UNL     1      -1.123  13.875  20.112  0.00  0.00    +0.000 C 
ATOM      9  C   UNL     1      -2.223  13.122  19.965  0.00  0.00    +0.000 C 
ATOM     10  C   UNL     1      -2.377  11.950  19.090  0.00  0.00    +0.000 A 
ATOM     11  C   UNL     1      -3.659  11.717  18.559  0.00  0.00    +0.000 A 
ATOM     12  C   UNL     1      -3.902  10.634  17.714  0.00  0.00    +0.000 A 
ATOM     13  C   UNL     1      -2.874   9.749  17.414  0.00  0.00    +0.000 A 
ATOM     14  C   UNL     1      -1.611   9.942  17.974  0.00  0.00    +0.000 A 
ATOM     15  C   UNL     1      -1.337  11.041  18.811  0.00  0.00    +0.000 A 
ENDROOT
BRANCH   1  16
ATOM     16  C   UNL     1       0.489  10.332  20.311  0.00  0.00    +0.000 C 
BRANCH  16  19
ATOM     17  C   UNL     1       2.204   7.136  19.588  0.00  0.00    +0.000 A 
ATOM     18  C   UNL     1       1.625   7.980  20.572  0.00  0.00    +0.000 A 
ATOM     19  C   UNL     1       1.252   9.115  19.904  0.00  0.00    +0.000 A 
ATOM     20  O   UNL     1       1.620   8.995  18.603  0.00  0.00    +0.000 OA
ATOM     21  N   UNL     1       2.234   7.763  18.406  0.00  0.00    +0.000 NA
BRANCH  17  28
ATOM     22 BR   UNL     1       4.778   6.003  17.799  0.00  0.00    +0.000 Br
ATOM     23  C   UNL     1       3.708   5.138  19.109  0.00  0.00    +0.000 A 
ATOM     24  C   UNL     1       3.961   3.766  19.298  0.00  0.00    +0.000 A 
ATOM     25  C   UNL     1       3.207   3.017  20.202  0.00  0.00    +0.000 A 
ATOM     26  C   UNL     1       2.218   3.637  20.952  0.00  0.00    +0.000 A 
ATOM     27  C   UNL     1       1.966   4.998  20.776  0.00  0.00    +0.000 A 
ATOM     28  C   UNL     1       2.680   5.766  19.833  0.00  0.00    +0.000 A 
ENDBRANCH  17  28
ENDBRANCH  16  19
ENDBRANCH   1  16
TORSDOF 3
ENDMDL
MODEL 8
REMARK VINA RESULT:      -8.3      3.773      6.587
REMARK  Name = 
REMARK  3 active torsions:
REMARK  status: ('A' for Active; 'I' for Inactive)
REMARK    1  A    between atoms: C_7  and  C_8
REMARK    2  A    between atoms: C_10  and  C_11
REMARK    3  A    between atoms: C_11  and  N_12
REMARK                            x       y       z     vdW  Elec       q    Type
REMARK                         _______ _______ _______ _____ _____    ______ ____
ROOT
ATOM      1  N   UNL     1       2.894   6.003  18.400  0.00  0.00    +0.000 N 
ATOM      2  C   UNL     1       2.367   7.279  18.687  0.00  0.00    +0.000 A 
ATOM      3  C   UNL     1       2.341   8.216  17.635  0.00  0.00    +0.000 A 
ATOM      4  C   UNL     1       1.789   9.482  17.802  0.00  0.00    +0.000 A 
ATOM      5  C   UNL     1       1.259   9.838  19.036  0.00  0.00    +0.000 A 
ATOM      6  C   UNL     1       1.273   8.922  20.090  0.00  0.00    +0.000 A 
ATOM      7  C   UNL     1       1.807   7.631  19.928  0.00  0.00    +0.000 A 
ATOM      8  C   UNL     1       1.826   6.756  21.110  0.00  0.00    +0.000 C 
ATOM      9  C   UNL     1       1.774   5.416  21.130  0.00  0.00    +0.000 C 
ATOM     10  C   UNL     1       1.663   4.521  19.968  0.00  0.00    +0.000 A 
ATOM     11  C   UNL     1       0.976   3.309  20.162  0.00  0.00    +0.000 A 
ATOM     12  C   UNL     1       0.813   2.398  19.118  0.00  0.00    +0.000 A 
ATOM     13  C   UNL     1       1.365   2.671  17.873  0.00  0.00    +0.000 A 
ATOM     14  C   UNL     1       2.091   3.848  17.681  0.00  0.00    +0.000 A 
ATOM     15  C   UNL     1       2.249   4.791  18.715  0.00  0.00    +0.000 A 
ENDROOT
BRANCH   1  16
ATOM     16  C   UNL     1       4.369   5.968  18.263  0.00  0.00    +0.000 C 
BRANCH  16  19
ATOM     17  C   UNL     1       5.615   5.190  14.869  0.00  0.00    +0.000 A 
ATOM     18  C   UNL     1       5.279   4.693  16.156  0.00  0.00    +0.000 A 
ATOM     19  C   UNL     1       4.932   5.795  16.891  0.00  0.00    +0.000 A 
ATOM     20  O   UNL     1       5.089   6.900  16.119  0.00  0.00    +0.000 OA
ATOM     21  N   UNL     1       5.535   6.525  14.856  0.00  0.00    +0.000 NA
BRANCH  17  28
ATOM     22 BR   UNL     1       8.547   5.719  13.374  0.00  0.00    +0.000 Br
ATOM     23  C   UNL     1       7.146   4.508  12.952  0.00  0.00    +0.000 A 
ATOM     24  C   UNL     1       7.307   3.776  11.759  0.00  0.00    +0.000 A 
ATOM     25  C   UNL     1       6.321   2.889  11.325  0.00  0.00    +0.000 A 
ATOM     26  C   UNL     1       5.183   2.696  12.093  0.00  0.00    +0.000 A 
ATOM     27  C   UNL     1       5.018   3.412  13.279  0.00  0.00    +0.000 A 
ATOM     28  C   UNL     1       5.976   4.351  13.716  0.00  0.00    +0.000 A 
ENDBRANCH  17  28
ENDBRANCH  16  19
ENDBRANCH   1  16
TORSDOF 3
ENDMDL
MODEL 9
REMARK VINA RESULT:      -8.3      2.069      3.751
REMARK  Name = 
REMARK  3 active torsions:
REMARK  status: ('A' for Active; 'I' for Inactive)
REMARK    1  A    between atoms: C_7  and  C_8
REMARK    2  A    between atoms: C_10  and  C_11
REMARK    3  A    between atoms: C_11  and  N_12
REMARK                            x       y       z     vdW  Elec       q    Type
REMARK                         _______ _______ _______ _____ _____    ______ ____
ROOT
ATOM      1  N   UNL     1      -0.326  10.243  19.244  0.00  0.00    +0.000 N 
ATOM      2  C   UNL     1      -1.412  10.513  18.386  0.00  0.00    +0.000 A 
ATOM      3  C   UNL     1      -1.659   9.591  17.350  0.00  0.00    +0.000 A 
ATOM      4  C   UNL     1      -2.741   9.738  16.487  0.00  0.00    +0.000 A 
ATOM      5  C   UNL     1      -3.594  10.822  16.642  0.00  0.00    +0.000 A 
ATOM      6  C   UNL     1      -3.368  11.746  17.664  0.00  0.00    +0.000 A 
ATOM      7  C   UNL     1      -2.291  11.597  18.558  0.00  0.00    +0.000 A 
ATOM      8  C   UNL     1      -2.104  12.648  19.569  0.00  0.00    +0.000 C 
ATOM      9  C   UNL     1      -1.552  12.518  20.784  0.00  0.00    +0.000 C 
ATOM     10  C   UNL     1      -1.030  11.282  21.387  0.00  0.00    +0.000 A 
ATOM     11  C   UNL     1      -1.123  11.168  22.786  0.00  0.00    +0.000 A 
ATOM     12  C   UNL     1      -0.662  10.031  23.448  0.00  0.00    +0.000 A 
ATOM     13  C   UNL     1      -0.069   9.005  22.724  0.00  0.00    +0.000 A 
ATOM     14  C   UNL     1       0.073   9.127  21.341  0.00  0.00    +0.000 A 
ATOM     15  C   UNL     1      -0.405  10.256  20.650  0.00  0.00    +0.000 A 
ENDROOT
BRANCH   1  16
ATOM     16  C   UNL     1       1.005  10.488  18.639  0.00  0.00    +0.000 C 
BRANCH  16  19
ATOM     17  C   UNL     1       2.819   7.331  17.988  0.00  0.00    +0.000 A 
ATOM     18  C   UNL     1       1.989   8.066  18.876  0.00  0.00    +0.000 A 
ATOM     19  C   UNL     1       1.839   9.297  18.298  0.00  0.00    +0.000 A 
ATOM     20  O   UNL     1       2.566   9.332  17.152  0.00  0.00    +0.000 OA
ATOM     21  N   UNL     1       3.196   8.107  16.965  0.00  0.00    +0.000 NA
BRANCH  17  28
ATOM     22 BR   UNL     1       1.669   5.708  20.662  0.00  0.00    +0.000 Br
ATOM     23  C   UNL     1       2.830   5.133  19.273  0.00  0.00    +0.000 A 
ATOM     24  C   UNL     1       3.387   3.849  19.431  0.00  0.00    +0.000 A 
ATOM     25  C   UNL     1       4.288   3.340  18.496  0.00  0.00    +0.000 A 
ATOM     26  C   UNL     1       4.614   4.089  17.376  0.00  0.00    +0.000 A 
ATOM     27  C   UNL     1       4.061   5.359  17.208  0.00  0.00    +0.000 A 
ATOM     28  C   UNL     1       3.187   5.918  18.162  0.00  0.00    +0.000 A 
ENDBRANCH  17  28
ENDBRANCH  16  19
ENDBRANCH   1  16
TORSDOF 3
ENDMDL
