MODEL 1
REMARK VINA RESULT:      -8.6      0.000      0.000
REMARK  Name = 
REMARK  4 active torsions:
REMARK  status: ('A' for Active; 'I' for Inactive)
REMARK    1  A    between atoms: C_1  and  C_2
REMARK    2  A    between atoms: C_5  and  C_6
REMARK    3  A    between atoms: N_8  and  C_9
REMARK    4  A    between atoms: C_19  and  C_20
REMARK                            x       y       z     vdW  Elec       q    Type
REMARK                         _______ _______ _______ _____ _____    ______ ____
ROOT
ATOM      1  C   UNL     1       2.246  12.398  18.211  0.00  0.00    +0.000 C 
ATOM      2  C   UNL     1       0.791  12.155  18.614  0.00  0.00    +0.000 C 
ATOM      3  C   UNL     1      -0.105  13.302  18.124  0.00  0.00    +0.000 C 
ATOM      4  C   UNL     1      -1.378  13.384  18.962  0.00  0.00    +0.000 C 
ATOM      5  C   UNL     1      -1.040  13.742  20.423  0.00  0.00    +0.000 C 
ATOM      6  C   UNL     1       0.314  13.162  20.860  0.00  0.00    +0.000 C 
ATOM      7  N   UNL     1       0.681  11.984  20.073  0.00  0.00    +0.000 N 
ATOM      8  C   UNL     1       0.730  10.737  20.682  0.00  0.00    +0.000 A 
ATOM      9  C   UNL     1       1.222   9.637  20.010  0.00  0.00    +0.000 A 
ATOM     10  C   UNL     1       1.310   8.428  20.673  0.00  0.00    +0.000 A 
ATOM     11  N   UNL     1       0.873   8.291  21.936  0.00  0.00    +0.000 NA
ATOM     12  C   UNL     1       0.384   9.385  22.517  0.00  0.00    +0.000 A 
ATOM     13  N   UNL     1      -0.042   9.256  23.825  0.00  0.00    +0.000 N 
ATOM     14  N   UNL     1       0.324  10.600  21.957  0.00  0.00    +0.000 NA
ATOM     15  H   UNL     1       0.418   8.459  24.244  0.00  0.00    +0.000 HD
ATOM     16  H   UNL     1       0.049  10.144  24.299  0.00  0.00    +0.000 HD
ENDROOT
BRANCH  10  17
ATOM     17  C   UNL     1       1.911   7.234  20.038  0.00  0.00    +0.000 A 
ATOM     18  C   UNL     1       2.583   7.326  18.800  0.00  0.00    +0.000 A 
ATOM     19  C   UNL     1       3.167   6.216  18.174  0.00  0.00    +0.000 A 
ATOM     20  C   UNL     1       3.094   4.970  18.812  0.00  0.00    +0.000 A 
ATOM     21  C   UNL     1       3.560   3.654  18.554  0.00  0.00    +0.000 A 
ATOM     22  N   UNL     1       4.283   3.304  17.482  0.00  0.00    +0.000 N 
ATOM     23  N   UNL     1       3.201   2.797  19.503  0.00  0.00    +0.000 NA
ATOM     24  N   UNL     1       2.528   3.560  20.385  0.00  0.00    +0.000 N 
ATOM     25  C   UNL     1       2.431   4.877  20.028  0.00  0.00    +0.000 A 
ATOM     26  C   UNL     1       1.833   5.974  20.664  0.00  0.00    +0.000 A 
ATOM     27  H   UNL     1       4.323   3.888  16.658  0.00  0.00    +0.000 HD
ATOM     28  H   UNL     1       4.408   2.313  17.312  0.00  0.00    +0.000 HD
ATOM     29  H   UNL     1       2.161   3.119  21.217  0.00  0.00    +0.000 HD
ENDBRANCH  10  17
BRANCH   5  30
ATOM     30  C   UNL     1      -1.028  15.258  20.648  0.00  0.00    +0.000 C 
ATOM     31  O   UNL     1      -1.127  15.774  21.757  0.00  0.00    +0.000 OA
ATOM     32  N   UNL     1      -0.868  16.005  19.496  0.00  0.00    +0.000 N 
ATOM     33  H   UNL     1      -0.850  15.533  18.602  0.00  0.00    +0.000 HD
BRANCH  32  34
ATOM     34  C   UNL     1      -0.783  17.464  19.509  0.00  0.00    +0.000 C 
ATOM     35  C   UNL     1       0.657  17.921  19.766  0.00  0.00    +0.000 C 
ATOM     36  C   UNL     1       1.578  17.672  18.573  0.00  0.00    +0.000 C 
ATOM     37  C   UNL     1       1.037  18.286  17.287  0.00  0.00    +0.000 C 
ATOM     38  C   UNL     1      -0.416  17.912  17.010  0.00  0.00    +0.000 C 
ATOM     39  C   UNL     1      -1.329  18.098  18.222  0.00  0.00    +0.000 C 
ENDBRANCH  32  34
ENDBRANCH   5  30
TORSDOF 3
ENDMDL
MODEL 2
REMARK VINA RESULT:      -8.6      3.600      5.341
REMARK  Name = 
REMARK  4 active torsions:
REMARK  status: ('A' for Active; 'I' for Inactive)
REMARK    1  A    between atoms: C_1  and  C_2
REMARK    2  A    between atoms: C_5  and  C_6
REMARK    3  A    between atoms: N_8  and  C_9
REMARK    4  A    between atoms: C_19  and  C_20
REMARK                            x       y       z     vdW  Elec       q    Type
REMARK                         _______ _______ _______ _____ _____    ______ ____
ROOT
ATOM      1  C   UNL     1      -1.182  10.738  23.266  0.00  0.00    +0.000 C 
ATOM      2  C   UNL     1      -0.845  11.953  22.401  0.00  0.00    +0.000 C 
ATOM      3  C   UNL     1      -1.030  13.253  23.198  0.00  0.00    +0.000 C 
ATOM      4  C   UNL     1      -1.259  14.432  22.256  0.00  0.00    +0.000 C 
ATOM      5  C   UNL     1      -2.578  14.252  21.478  0.00  0.00    +0.000 C 
ATOM      6  C   UNL     1      -2.882  12.774  21.192  0.00  0.00    +0.000 C 
ATOM      7  N   UNL     1      -1.665  11.961  21.178  0.00  0.00    +0.000 N 
ATOM      8  C   UNL     1      -1.234  11.388  19.989  0.00  0.00    +0.000 A 
ATOM      9  C   UNL     1      -0.184  10.492  19.971  0.00  0.00    +0.000 A 
ATOM     10  C   UNL     1       0.173   9.899  18.776  0.00  0.00    +0.000 A 
ATOM     11  N   UNL     1      -0.442  10.220  17.626  0.00  0.00    +0.000 NA
ATOM     12  C   UNL     1      -1.427  11.113  17.708  0.00  0.00    +0.000 A 
ATOM     13  N   UNL     1      -2.080  11.427  16.532  0.00  0.00    +0.000 N 
ATOM     14  N   UNL     1      -1.866  11.681  18.838  0.00  0.00    +0.000 NA
ATOM     15  H   UNL     1      -1.954  10.670  15.873  0.00  0.00    +0.000 HD
ATOM     16  H   UNL     1      -3.029  11.707  16.737  0.00  0.00    +0.000 HD
ENDROOT
BRANCH  10  17
ATOM     17  C   UNL     1       1.229   8.864  18.706  0.00  0.00    +0.000 A 
ATOM     18  C   UNL     1       2.153   8.835  17.640  0.00  0.00    +0.000 A 
ATOM     19  C   UNL     1       3.168   7.872  17.546  0.00  0.00    +0.000 A 
ATOM     20  C   UNL     1       3.276   6.911  18.560  0.00  0.00    +0.000 A 
ATOM     21  C   UNL     1       4.141   5.825  18.859  0.00  0.00    +0.000 A 
ATOM     22  N   UNL     1       5.190   5.465  18.110  0.00  0.00    +0.000 N 
ATOM     23  N   UNL     1       3.795   5.198  19.978  0.00  0.00    +0.000 NA
ATOM     24  N   UNL     1       2.726   5.891  20.415  0.00  0.00    +0.000 N 
ATOM     25  C   UNL     1       2.366   6.936  19.608  0.00  0.00    +0.000 A 
ATOM     26  C   UNL     1       1.340   7.885  19.713  0.00  0.00    +0.000 A 
ATOM     27  H   UNL     1       5.285   5.770  17.151  0.00  0.00    +0.000 HD
ATOM     28  H   UNL     1       5.626   4.575  18.321  0.00  0.00    +0.000 HD
ATOM     29  H   UNL     1       2.288   5.601  21.278  0.00  0.00    +0.000 HD
ENDBRANCH  10  17
BRANCH   5  30
ATOM     30  C   UNL     1      -3.766  14.870  22.223  0.00  0.00    +0.000 C 
ATOM     31  O   UNL     1      -3.657  15.824  22.988  0.00  0.00    +0.000 OA
ATOM     32  N   UNL     1      -4.985  14.280  21.943  0.00  0.00    +0.000 N 
ATOM     33  H   UNL     1      -5.010  13.460  21.352  0.00  0.00    +0.000 HD
BRANCH  32  34
ATOM     34  C   UNL     1      -6.241  14.757  22.518  0.00  0.00    +0.000 C 
ATOM     35  C   UNL     1      -7.428  14.345  21.642  0.00  0.00    +0.000 C 
ATOM     36  C   UNL     1      -7.725  12.848  21.715  0.00  0.00    +0.000 C 
ATOM     37  C   UNL     1      -7.916  12.366  23.148  0.00  0.00    +0.000 C 
ATOM     38  C   UNL     1      -6.788  12.799  24.081  0.00  0.00    +0.000 C 
ATOM     39  C   UNL     1      -6.446  14.285  23.964  0.00  0.00    +0.000 C 
ENDBRANCH  32  34
ENDBRANCH   5  30
TORSDOF 3
ENDMDL
MODEL 3
REMARK VINA RESULT:      -8.6      0.665      1.304
REMARK  Name = 
REMARK  4 active torsions:
REMARK  status: ('A' for Active; 'I' for Inactive)
REMARK    1  A    between atoms: C_1  and  C_2
REMARK    2  A    between atoms: C_5  and  C_6
REMARK    3  A    between atoms: N_8  and  C_9
REMARK    4  A    between atoms: C_19  and  C_20
REMARK                            x       y       z     vdW  Elec       q    Type
REMARK                         _______ _______ _______ _____ _____    ______ ____
ROOT
ATOM      1  C   UNL     1       2.527  12.371  18.276  0.00  0.00    +0.000 C 
ATOM      2  C   UNL     1       1.052  12.211  18.646  0.00  0.00    +0.000 C 
ATOM      3  C   UNL     1       0.235  13.409  18.140  0.00  0.00    +0.000 C 
ATOM      4  C   UNL     1      -1.050  13.563  18.951  0.00  0.00    +0.000 C 
ATOM      5  C   UNL     1      -0.724  13.897  20.420  0.00  0.00    +0.000 C 
ATOM      6  C   UNL     1       0.584  13.239  20.885  0.00  0.00    +0.000 C 
ATOM      7  N   UNL     1       0.900  12.043  20.101  0.00  0.00    +0.000 N 
ATOM      8  C   UNL     1       0.863  10.794  20.706  0.00  0.00    +0.000 A 
ATOM      9  C   UNL     1       1.305   9.669  20.041  0.00  0.00    +0.000 A 
ATOM     10  C   UNL     1       1.309   8.455  20.701  0.00  0.00    +0.000 A 
ATOM     11  N   UNL     1       0.837   8.341  21.954  0.00  0.00    +0.000 NA
ATOM     12  C   UNL     1       0.398   9.460  22.528  0.00  0.00    +0.000 A 
ATOM     13  N   UNL     1      -0.063   9.352  23.826  0.00  0.00    +0.000 N 
ATOM     14  N   UNL     1       0.422  10.677  21.972  0.00  0.00    +0.000 NA
ATOM     15  H   UNL     1       0.341   8.529  24.252  0.00  0.00    +0.000 HD
ATOM     16  H   UNL     1       0.068  10.232  24.305  0.00  0.00    +0.000 HD
ENDROOT
BRANCH  10  17
ATOM     17  C   UNL     1       1.854   7.230  20.075  0.00  0.00    +0.000 A 
ATOM     18  C   UNL     1       1.581   5.953  20.611  0.00  0.00    +0.000 A 
ATOM     19  C   UNL     1       2.078   4.773  20.040  0.00  0.00    +0.000 A 
ATOM     20  C   UNL     1       2.863   4.867  18.882  0.00  0.00    +0.000 A 
ATOM     21  C   UNL     1       3.508   3.959  18.001  0.00  0.00    +0.000 A 
ATOM     22  N   UNL     1       3.473   2.627  18.130  0.00  0.00    +0.000 N 
ATOM     23  N   UNL     1       4.156   4.580  17.023  0.00  0.00    +0.000 NA
ATOM     24  N   UNL     1       3.909   5.884  17.253  0.00  0.00    +0.000 N 
ATOM     25  C   UNL     1       3.134   6.122  18.355  0.00  0.00    +0.000 A 
ATOM     26  C   UNL     1       2.654   7.313  18.918  0.00  0.00    +0.000 A 
ATOM     27  H   UNL     1       3.210   2.185  19.001  0.00  0.00    +0.000 HD
ATOM     28  H   UNL     1       4.111   2.090  17.553  0.00  0.00    +0.000 HD
ATOM     29  H   UNL     1       4.297   6.565  16.615  0.00  0.00    +0.000 HD
ENDBRANCH  10  17
BRANCH   5  30
ATOM     30  C   UNL     1      -0.629  15.409  20.651  0.00  0.00    +0.000 C 
ATOM     31  O   UNL     1      -0.767  15.931  21.753  0.00  0.00    +0.000 OA
ATOM     32  N   UNL     1      -0.346  16.144  19.514  0.00  0.00    +0.000 N 
ATOM     33  H   UNL     1      -0.301  15.672  18.622  0.00  0.00    +0.000 HD
BRANCH  32  34
ATOM     34  C   UNL     1      -0.169  17.595  19.538  0.00  0.00    +0.000 C 
ATOM     35  C   UNL     1       1.299  17.965  19.308  0.00  0.00    +0.000 C 
ATOM     36  C   UNL     1       1.751  17.726  17.869  0.00  0.00    +0.000 C 
ATOM     37  C   UNL     1       0.853  18.427  16.858  0.00  0.00    +0.000 C 
ATOM     38  C   UNL     1      -0.631  18.140  17.075  0.00  0.00    +0.000 C 
ATOM     39  C   UNL     1      -1.072  18.316  18.528  0.00  0.00    +0.000 C 
ENDBRANCH  32  34
ENDBRANCH   5  30
TORSDOF 3
ENDMDL
MODEL 4
REMARK VINA RESULT:      -8.4      3.180      5.039
REMARK  Name = 
REMARK  4 active torsions:
REMARK  status: ('A' for Active; 'I' for Inactive)
REMARK    1  A    between atoms: C_1  and  C_2
REMARK    2  A    between atoms: C_5  and  C_6
REMARK    3  A    between atoms: N_8  and  C_9
REMARK    4  A    between atoms: C_19  and  C_20
REMARK                            x       y       z     vdW  Elec       q    Type
REMARK                         _______ _______ _______ _____ _____    ______ ____
ROOT
ATOM      1  C   UNL     1       2.627  10.700  18.178  0.00  0.00    +0.000 C 
ATOM      2  C   UNL     1       1.376   9.863  18.450  0.00  0.00    +0.000 C 
ATOM      3  C   UNL     1       0.136  10.762  18.559  0.00  0.00    +0.000 C 
ATOM      4  C   UNL     1      -0.960  10.067  19.363  0.00  0.00    +0.000 C 
ATOM      5  C   UNL     1      -0.503   9.844  20.818  0.00  0.00    +0.000 C 
ATOM      6  C   UNL     1       1.009   9.591  20.915  0.00  0.00    +0.000 C 
ATOM      7  N   UNL     1       1.552   9.052  19.667  0.00  0.00    +0.000 N 
ATOM      8  C   UNL     1       2.034   7.750  19.631  0.00  0.00    +0.000 A 
ATOM      9  C   UNL     1       2.692   7.267  18.518  0.00  0.00    +0.000 A 
ATOM     10  C   UNL     1       3.210   5.986  18.548  0.00  0.00    +0.000 A 
ATOM     11  N   UNL     1       3.035   5.187  19.613  0.00  0.00    +0.000 NA
ATOM     12  C   UNL     1       2.366   5.705  20.641  0.00  0.00    +0.000 A 
ATOM     13  N   UNL     1       2.207   4.896  21.749  0.00  0.00    +0.000 N 
ATOM     14  N   UNL     1       1.890   6.955  20.706  0.00  0.00    +0.000 NA
ATOM     15  H   UNL     1       2.927   4.185  21.746  0.00  0.00    +0.000 HD
ATOM     16  H   UNL     1       2.128   5.469  22.578  0.00  0.00    +0.000 HD
ENDROOT
BRANCH  10  17
ATOM     17  C   UNL     1       4.004   5.442  17.423  0.00  0.00    +0.000 A 
ATOM     18  C   UNL     1       3.568   4.308  16.704  0.00  0.00    +0.000 A 
ATOM     19  C   UNL     1       4.293   3.771  15.631  0.00  0.00    +0.000 A 
ATOM     20  C   UNL     1       5.489   4.395  15.249  0.00  0.00    +0.000 A 
ATOM     21  C   UNL     1       6.471   4.206  14.241  0.00  0.00    +0.000 A 
ATOM     22  N   UNL     1       6.424   3.245  13.311  0.00  0.00    +0.000 N 
ATOM     23  N   UNL     1       7.452   5.098  14.319  0.00  0.00    +0.000 NA
ATOM     24  N   UNL     1       7.093   5.877  15.357  0.00  0.00    +0.000 N 
ATOM     25  C   UNL     1       5.920   5.508  15.957  0.00  0.00    +0.000 A 
ATOM     26  C   UNL     1       5.213   6.054  17.038  0.00  0.00    +0.000 A 
ATOM     27  H   UNL     1       5.832   2.432  13.418  0.00  0.00    +0.000 HD
ATOM     28  H   UNL     1       7.260   3.095  12.757  0.00  0.00    +0.000 HD
ATOM     29  H   UNL     1       7.693   6.652  15.604  0.00  0.00    +0.000 HD
ENDBRANCH  10  17
BRANCH   5  30
ATOM     30  C   UNL     1      -0.867  11.031  21.717  0.00  0.00    +0.000 C 
ATOM     31  O   UNL     1      -0.427  11.173  22.853  0.00  0.00    +0.000 OA
ATOM     32  N   UNL     1      -1.717  11.951  21.131  0.00  0.00    +0.000 N 
ATOM     33  H   UNL     1      -2.097  11.756  20.215  0.00  0.00    +0.000 HD
BRANCH  32  34
ATOM     34  C   UNL     1      -2.141  13.174  21.809  0.00  0.00    +0.000 C 
ATOM     35  C   UNL     1      -2.882  14.101  20.841  0.00  0.00    +0.000 C 
ATOM     36  C   UNL     1      -4.268  13.581  20.467  0.00  0.00    +0.000 C 
ATOM     37  C   UNL     1      -5.124  13.286  21.693  0.00  0.00    +0.000 C 
ATOM     38  C   UNL     1      -4.413  12.411  22.722  0.00  0.00    +0.000 C 
ATOM     39  C   UNL     1      -3.000  12.893  23.050  0.00  0.00    +0.000 C 
ENDBRANCH  32  34
ENDBRANCH   5  30
TORSDOF 3
ENDMDL
MODEL 5
REMARK VINA RESULT:      -8.3      3.614      5.449
REMARK  Name = 
REMARK  4 active torsions:
REMARK  status: ('A' for Active; 'I' for Inactive)
REMARK    1  A    between atoms: C_1  and  C_2
REMARK    2  A    between atoms: C_5  and  C_6
REMARK    3  A    between atoms: N_8  and  C_9
REMARK    4  A    between atoms: C_19  and  C_20
REMARK                            x       y       z     vdW  Elec       q    Type
REMARK                         _______ _______ _______ _____ _____    ______ ____
ROOT
ATOM      1  C   UNL     1      -1.246  10.827  23.287  0.00  0.00    +0.000 C 
ATOM      2  C   UNL     1      -0.871  12.002  22.383  0.00  0.00    +0.000 C 
ATOM      3  C   UNL     1      -1.064  13.336  23.120  0.00  0.00    +0.000 C 
ATOM      4  C   UNL     1      -1.254  14.477  22.124  0.00  0.00    +0.000 C 
ATOM      5  C   UNL     1      -2.552  14.278  21.316  0.00  0.00    +0.000 C 
ATOM      6  C   UNL     1      -2.864  12.793  21.083  0.00  0.00    +0.000 C 
ATOM      7  N   UNL     1      -1.657  11.967  21.137  0.00  0.00    +0.000 N 
ATOM      8  C   UNL     1      -1.199  11.341  19.986  0.00  0.00    +0.000 A 
ATOM      9  C   UNL     1      -0.159  10.435  20.035  0.00  0.00    +0.000 A 
ATOM     10  C   UNL     1       0.225   9.789  18.876  0.00  0.00    +0.000 A 
ATOM     11  N   UNL     1      -0.354  10.069  17.696  0.00  0.00    +0.000 NA
ATOM     12  C   UNL     1      -1.331  10.974  17.714  0.00  0.00    +0.000 A 
ATOM     13  N   UNL     1      -1.947  11.245  16.508  0.00  0.00    +0.000 N 
ATOM     14  N   UNL     1      -1.795  11.593  18.806  0.00  0.00    +0.000 NA
ATOM     15  H   UNL     1      -1.811  10.461  15.884  0.00  0.00    +0.000 HD
ATOM     16  H   UNL     1      -2.898  11.543  16.674  0.00  0.00    +0.000 HD
ENDROOT
BRANCH  10  17
ATOM     17  C   UNL     1       1.271   8.742  18.879  0.00  0.00    +0.000 A 
ATOM     18  C   UNL     1       1.419   7.861  19.972  0.00  0.00    +0.000 A 
ATOM     19  C   UNL     1       2.396   6.856  20.005  0.00  0.00    +0.000 A 
ATOM     20  C   UNL     1       3.247   6.711  18.901  0.00  0.00    +0.000 A 
ATOM     21  C   UNL     1       4.303   5.840  18.524  0.00  0.00    +0.000 A 
ATOM     22  N   UNL     1       4.748   4.823  19.273  0.00  0.00    +0.000 N 
ATOM     23  N   UNL     1       4.806   6.143  17.333  0.00  0.00    +0.000 NA
ATOM     24  N   UNL     1       4.061   7.190  16.929  0.00  0.00    +0.000 N 
ATOM     25  C   UNL     1       3.104   7.578  17.826  0.00  0.00    +0.000 A 
ATOM     26  C   UNL     1       2.140   8.594  17.780  0.00  0.00    +0.000 A 
ATOM     27  H   UNL     1       4.546   4.766  20.262  0.00  0.00    +0.000 HD
ATOM     28  H   UNL     1       5.615   4.383  18.986  0.00  0.00    +0.000 HD
ATOM     29  H   UNL     1       4.255   7.594  16.023  0.00  0.00    +0.000 HD
ENDBRANCH  10  17
BRANCH   5  30
ATOM     30  C   UNL     1      -3.754  14.938  22.001  0.00  0.00    +0.000 C 
ATOM     31  O   UNL     1      -3.690  16.022  22.573  0.00  0.00    +0.000 OA
ATOM     32  N   UNL     1      -4.933  14.223  21.900  0.00  0.00    +0.000 N 
ATOM     33  H   UNL     1      -4.917  13.308  21.470  0.00  0.00    +0.000 HD
BRANCH  32  34
ATOM     34  C   UNL     1      -6.198  14.709  22.446  0.00  0.00    +0.000 C 
ATOM     35  C   UNL     1      -7.369  14.299  21.548  0.00  0.00    +0.000 C 
ATOM     36  C   UNL     1      -7.675  12.804  21.619  0.00  0.00    +0.000 C 
ATOM     37  C   UNL     1      -7.898  12.328  23.050  0.00  0.00    +0.000 C 
ATOM     38  C   UNL     1      -6.789  12.759  24.004  0.00  0.00    +0.000 C 
ATOM     39  C   UNL     1      -6.436  14.242  23.889  0.00  0.00    +0.000 C 
ENDBRANCH  32  34
ENDBRANCH   5  30
TORSDOF 3
ENDMDL
MODEL 6
REMARK VINA RESULT:      -8.2      2.621      4.380
REMARK  Name = 
REMARK  4 active torsions:
REMARK  status: ('A' for Active; 'I' for Inactive)
REMARK    1  A    between atoms: C_1  and  C_2
REMARK    2  A    between atoms: C_5  and  C_6
REMARK    3  A    between atoms: N_8  and  C_9
REMARK    4  A    between atoms: C_19  and  C_20
REMARK                            x       y       z     vdW  Elec       q    Type
REMARK                         _______ _______ _______ _____ _____    ______ ____
ROOT
ATOM      1  C   UNL     1       2.545  10.702  18.021  0.00  0.00    +0.000 C 
ATOM      2  C   UNL     1       1.312   9.838  18.288  0.00  0.00    +0.000 C 
ATOM      3  C   UNL     1       0.048  10.707  18.364  0.00  0.00    +0.000 C 
ATOM      4  C   UNL     1      -1.043   9.998  19.163  0.00  0.00    +0.000 C 
ATOM      5  C   UNL     1      -0.602   9.810  20.629  0.00  0.00    +0.000 C 
ATOM      6  C   UNL     1       0.914   9.597  20.751  0.00  0.00    +0.000 C 
ATOM      7  N   UNL     1       1.489   9.051  19.521  0.00  0.00    +0.000 N 
ATOM      8  C   UNL     1       2.004   7.762  19.514  0.00  0.00    +0.000 A 
ATOM      9  C   UNL     1       2.691   7.277  18.419  0.00  0.00    +0.000 A 
ATOM     10  C   UNL     1       3.240   6.011  18.478  0.00  0.00    +0.000 A 
ATOM     11  N   UNL     1       3.069   5.224  19.553  0.00  0.00    +0.000 NA
ATOM     12  C   UNL     1       2.372   5.742  20.563  0.00  0.00    +0.000 A 
ATOM     13  N   UNL     1       2.216   4.947  21.682  0.00  0.00    +0.000 N 
ATOM     14  N   UNL     1       1.864   6.980  20.600  0.00  0.00    +0.000 NA
ATOM     15  H   UNL     1       2.953   4.256  21.701  0.00  0.00    +0.000 HD
ATOM     16  H   UNL     1       2.110   5.532  22.499  0.00  0.00    +0.000 HD
ENDROOT
BRANCH  10  17
ATOM     17  C   UNL     1       4.063   5.468  17.374  0.00  0.00    +0.000 A 
ATOM     18  C   UNL     1       3.672   4.307  16.673  0.00  0.00    +0.000 A 
ATOM     19  C   UNL     1       4.426   3.771  15.620  0.00  0.00    +0.000 A 
ATOM     20  C   UNL     1       5.607   4.423  15.240  0.00  0.00    +0.000 A 
ATOM     21  C   UNL     1       6.607   4.244  14.248  0.00  0.00    +0.000 A 
ATOM     22  N   UNL     1       6.601   3.263  13.337  0.00  0.00    +0.000 N 
ATOM     23  N   UNL     1       7.559   5.166  14.319  0.00  0.00    +0.000 NA
ATOM     24  N   UNL     1       7.164   5.955  15.337  0.00  0.00    +0.000 N 
ATOM     25  C   UNL     1       5.995   5.563  15.930  0.00  0.00    +0.000 A 
ATOM     26  C   UNL     1       5.259   6.109  16.991  0.00  0.00    +0.000 A 
ATOM     27  H   UNL     1       6.032   2.435  13.454  0.00  0.00    +0.000 HD
ATOM     28  H   UNL     1       7.448   3.128  12.797  0.00  0.00    +0.000 HD
ATOM     29  H   UNL     1       7.737   6.753  15.575  0.00  0.00    +0.000 HD
ENDBRANCH  10  17
BRANCH   5  30
ATOM     30  C   UNL     1      -1.009  11.002  21.502  0.00  0.00    +0.000 C 
ATOM     31  O   UNL     1      -1.309  10.895  22.687  0.00  0.00    +0.000 OA
ATOM     32  N   UNL     1      -0.986  12.221  20.851  0.00  0.00    +0.000 N 
ATOM     33  H   UNL     1      -0.789  12.246  19.859  0.00  0.00    +0.000 HD
BRANCH  32  34
ATOM     34  C   UNL     1      -1.295  13.480  21.525  0.00  0.00    +0.000 C 
ATOM     35  C   UNL     1      -0.082  13.986  22.312  0.00  0.00    +0.000 C 
ATOM     36  C   UNL     1       1.035  14.506  21.409  0.00  0.00    +0.000 C 
ATOM     37  C   UNL     1       0.541  15.568  20.434  0.00  0.00    +0.000 C 
ATOM     38  C   UNL     1      -0.704  15.141  19.663  0.00  0.00    +0.000 C 
ATOM     39  C   UNL     1      -1.799  14.560  20.558  0.00  0.00    +0.000 C 
ENDBRANCH  32  34
ENDBRANCH   5  30
TORSDOF 3
ENDMDL
MODEL 7
REMARK VINA RESULT:      -8.2      4.793      8.508
REMARK  Name = 
REMARK  4 active torsions:
REMARK  status: ('A' for Active; 'I' for Inactive)
REMARK    1  A    between atoms: C_1  and  C_2
REMARK    2  A    between atoms: C_5  and  C_6
REMARK    3  A    between atoms: N_8  and  C_9
REMARK    4  A    between atoms: C_19  and  C_20
REMARK                            x       y       z     vdW  Elec       q    Type
REMARK                         _______ _______ _______ _____ _____    ______ ____
ROOT
ATOM      1  C   UNL     1       2.095  11.386  18.264  0.00  0.00    +0.000 C 
ATOM      2  C   UNL     1       1.558  12.251  19.405  0.00  0.00    +0.000 C 
ATOM      3  C   UNL     1       0.556  11.460  20.259  0.00  0.00    +0.000 C 
ATOM      4  C   UNL     1      -0.383  12.408  21.001  0.00  0.00    +0.000 C 
ATOM      5  C   UNL     1      -1.250  13.198  20.001  0.00  0.00    +0.000 C 
ATOM      6  C   UNL     1      -0.505  13.482  18.689  0.00  0.00    +0.000 C 
ATOM      7  N   UNL     1       0.947  13.482  18.876  0.00  0.00    +0.000 N 
ATOM      8  C   UNL     1       1.660  14.665  18.733  0.00  0.00    +0.000 A 
ATOM      9  C   UNL     1       3.040  14.670  18.749  0.00  0.00    +0.000 A 
ATOM     10  C   UNL     1       3.710  15.859  18.541  0.00  0.00    +0.000 A 
ATOM     11  N   UNL     1       3.046  17.017  18.383  0.00  0.00    +0.000 NA
ATOM     12  C   UNL     1       1.717  16.947  18.408  0.00  0.00    +0.000 A 
ATOM     13  N   UNL     1       1.029  18.130  18.219  0.00  0.00    +0.000 N 
ATOM     14  N   UNL     1       1.002  15.823  18.543  0.00  0.00    +0.000 NA
ATOM     15  H   UNL     1       1.628  18.786  17.735  0.00  0.00    +0.000 HD
ATOM     16  H   UNL     1       0.128  17.935  17.806  0.00  0.00    +0.000 HD
ENDROOT
BRANCH  10  17
ATOM     17  C   UNL     1       5.186  15.916  18.456  0.00  0.00    +0.000 A 
ATOM     18  C   UNL     1       5.896  17.074  18.841  0.00  0.00    +0.000 A 
ATOM     19  C   UNL     1       7.294  17.158  18.777  0.00  0.00    +0.000 A 
ATOM     20  C   UNL     1       8.014  16.043  18.328  0.00  0.00    +0.000 A 
ATOM     21  C   UNL     1       9.382  15.705  18.150  0.00  0.00    +0.000 A 
ATOM     22  N   UNL     1      10.405  16.522  18.431  0.00  0.00    +0.000 N 
ATOM     23  N   UNL     1       9.540  14.477  17.670  0.00  0.00    +0.000 NA
ATOM     24  N   UNL     1       8.281  14.011  17.563  0.00  0.00    +0.000 N 
ATOM     25  C   UNL     1       7.318  14.904  17.947  0.00  0.00    +0.000 A 
ATOM     26  C   UNL     1       5.920  14.805  17.995  0.00  0.00    +0.000 A 
ATOM     27  H   UNL     1      10.273  17.518  18.540  0.00  0.00    +0.000 HD
ATOM     28  H   UNL     1      11.322  16.245  18.100  0.00  0.00    +0.000 HD
ATOM     29  H   UNL     1       8.146  13.069  17.225  0.00  0.00    +0.000 HD
ENDBRANCH  10  17
BRANCH   5  30
ATOM     30  C   UNL     1      -2.559  12.466  19.682  0.00  0.00    +0.000 C 
ATOM     31  O   UNL     1      -3.571  12.569  20.368  0.00  0.00    +0.000 OA
ATOM     32  N   UNL     1      -2.517  11.696  18.535  0.00  0.00    +0.000 N 
ATOM     33  H   UNL     1      -1.641  11.598  18.040  0.00  0.00    +0.000 HD
BRANCH  32  34
ATOM     34  C   UNL     1      -3.678  10.960  18.038  0.00  0.00    +0.000 C 
ATOM     35  C   UNL     1      -4.267  11.649  16.803  0.00  0.00    +0.000 C 
ATOM     36  C   UNL     1      -3.385  11.502  15.565  0.00  0.00    +0.000 C 
ATOM     37  C   UNL     1      -3.051  10.046  15.264  0.00  0.00    +0.000 C 
ATOM     38  C   UNL     1      -2.513   9.292  16.476  0.00  0.00    +0.000 C 
ATOM     39  C   UNL     1      -3.359   9.490  17.734  0.00  0.00    +0.000 C 
ENDBRANCH  32  34
ENDBRANCH   5  30
TORSDOF 3
ENDMDL
MODEL 8
REMARK VINA RESULT:      -8.0      1.375      2.132
REMARK  Name = 
REMARK  4 active torsions:
REMARK  status: ('A' for Active; 'I' for Inactive)
REMARK    1  A    between atoms: C_1  and  C_2
REMARK    2  A    between atoms: C_5  and  C_6
REMARK    3  A    between atoms: N_8  and  C_9
REMARK    4  A    between atoms: C_19  and  C_20
REMARK                            x       y       z     vdW  Elec       q    Type
REMARK                         _______ _______ _______ _____ _____    ______ ____
ROOT
ATOM      1  C   UNL     1       2.394  12.592  18.327  0.00  0.00    +0.000 C 
ATOM      2  C   UNL     1       0.924  12.361  18.676  0.00  0.00    +0.000 C 
ATOM      3  C   UNL     1       0.063  13.541  18.201  0.00  0.00    +0.000 C 
ATOM      4  C   UNL     1      -1.234  13.615  19.003  0.00  0.00    +0.000 C 
ATOM      5  C   UNL     1      -0.935  13.914  20.486  0.00  0.00    +0.000 C 
ATOM      6  C   UNL     1       0.394  13.293  20.942  0.00  0.00    +0.000 C 
ATOM      7  N   UNL     1       0.765  12.138  20.124  0.00  0.00    +0.000 N 
ATOM      8  C   UNL     1       0.774  10.869  20.687  0.00  0.00    +0.000 A 
ATOM      9  C   UNL     1       1.268   9.786  19.990  0.00  0.00    +0.000 A 
ATOM     10  C   UNL     1       1.315   8.552  20.610  0.00  0.00    +0.000 A 
ATOM     11  N   UNL     1       0.837   8.377  21.853  0.00  0.00    +0.000 NA
ATOM     12  C   UNL     1       0.348   9.458  22.459  0.00  0.00    +0.000 A 
ATOM     13  N   UNL     1      -0.120   9.289  23.748  0.00  0.00    +0.000 N 
ATOM     14  N   UNL     1       0.326  10.693  21.943  0.00  0.00    +0.000 NA
ATOM     15  H   UNL     1       0.312   8.468  24.151  0.00  0.00    +0.000 HD
ATOM     16  H   UNL     1      -0.029  10.156  24.257  0.00  0.00    +0.000 HD
ENDROOT
BRANCH  10  17
ATOM     17  C   UNL     1       1.915   7.372  19.950  0.00  0.00    +0.000 A 
ATOM     18  C   UNL     1       2.495   7.469  18.667  0.00  0.00    +0.000 A 
ATOM     19  C   UNL     1       3.076   6.372  18.016  0.00  0.00    +0.000 A 
ATOM     20  C   UNL     1       3.094   5.134  18.673  0.00  0.00    +0.000 A 
ATOM     21  C   UNL     1       3.591   3.832  18.400  0.00  0.00    +0.000 A 
ATOM     22  N   UNL     1       4.250   3.493  17.285  0.00  0.00    +0.000 N 
ATOM     23  N   UNL     1       3.331   2.977  19.382  0.00  0.00    +0.000 NA
ATOM     24  N   UNL     1       2.692   3.728  20.299  0.00  0.00    +0.000 N 
ATOM     25  C   UNL     1       2.521   5.036  19.934  0.00  0.00    +0.000 A 
ATOM     26  C   UNL     1       1.928   6.119  20.595  0.00  0.00    +0.000 A 
ATOM     27  H   UNL     1       4.211   4.065  16.452  0.00  0.00    +0.000 HD
ATOM     28  H   UNL     1       4.400   2.504  17.119  0.00  0.00    +0.000 HD
ATOM     29  H   UNL     1       2.401   3.287  21.160  0.00  0.00    +0.000 HD
ENDBRANCH  10  17
BRANCH   5  30
ATOM     30  C   UNL     1      -0.905  15.420  20.768  0.00  0.00    +0.000 C 
ATOM     31  O   UNL     1      -0.032  15.960  21.440  0.00  0.00    +0.000 OA
ATOM     32  N   UNL     1      -1.932  16.132  20.176  0.00  0.00    +0.000 N 
ATOM     33  H   UNL     1      -2.657  15.631  19.683  0.00  0.00    +0.000 HD
BRANCH  32  34
ATOM     34  C   UNL     1      -2.048  17.585  20.288  0.00  0.00    +0.000 C 
ATOM     35  C   UNL     1      -2.839  18.157  19.107  0.00  0.00    +0.000 C 
ATOM     36  C   UNL     1      -4.329  17.825  19.177  0.00  0.00    +0.000 C 
ATOM     37  C   UNL     1      -4.952  18.248  20.502  0.00  0.00    +0.000 C 
ATOM     38  C   UNL     1      -4.171  17.754  21.716  0.00  0.00    +0.000 C 
ATOM     39  C   UNL     1      -2.670  18.027  21.620  0.00  0.00    +0.000 C 
ENDBRANCH  32  34
ENDBRANCH   5  30
TORSDOF 3
ENDMDL
MODEL 9
REMARK VINA RESULT:      -7.9      3.184      4.739
REMARK  Name = 
REMARK  4 active torsions:
REMARK  status: ('A' for Active; 'I' for Inactive)
REMARK    1  A    between atoms: C_1  and  C_2
REMARK    2  A    between atoms: C_5  and  C_6
REMARK    3  A    between atoms: N_8  and  C_9
REMARK    4  A    between atoms: C_19  and  C_20
REMARK                            x       y       z     vdW  Elec       q    Type
REMARK                         _______ _______ _______ _____ _____    ______ ____
ROOT
ATOM      1  C   UNL     1       2.478  11.455  18.400  0.00  0.00    +0.000 C 
ATOM      2  C   UNL     1       1.227  10.587  18.543  0.00  0.00    +0.000 C 
ATOM      3  C   UNL     1      -0.030  11.462  18.655  0.00  0.00    +0.000 C 
ATOM      4  C   UNL     1      -1.155  10.698  19.348  0.00  0.00    +0.000 C 
ATOM      5  C   UNL     1      -0.768  10.371  20.804  0.00  0.00    +0.000 C 
ATOM      6  C   UNL     1       0.740  10.127  20.959  0.00  0.00    +0.000 C 
ATOM      7  N   UNL     1       1.352   9.688  19.704  0.00  0.00    +0.000 N 
ATOM      8  C   UNL     1       1.854   8.398  19.596  0.00  0.00    +0.000 A 
ATOM      9  C   UNL     1       2.574   8.006  18.486  0.00  0.00    +0.000 A 
ATOM     10  C   UNL     1       3.108   6.733  18.446  0.00  0.00    +0.000 A 
ATOM     11  N   UNL     1       2.891   5.854  19.438  0.00  0.00    +0.000 NA
ATOM     12  C   UNL     1       2.163   6.286  20.467  0.00  0.00    +0.000 A 
ATOM     13  N   UNL     1       1.960   5.394  21.502  0.00  0.00    +0.000 N 
ATOM     14  N   UNL     1       1.667   7.523  20.600  0.00  0.00    +0.000 NA
ATOM     15  H   UNL     1       2.689   4.694  21.482  0.00  0.00    +0.000 HD
ATOM     16  H   UNL     1       1.831   5.903  22.365  0.00  0.00    +0.000 HD
ENDROOT
BRANCH  10  17
ATOM     17  C   UNL     1       3.964   6.283  17.326  0.00  0.00    +0.000 A 
ATOM     18  C   UNL     1       4.439   7.194  16.358  0.00  0.00    +0.000 A 
ATOM     19  C   UNL     1       5.255   6.801  15.288  0.00  0.00    +0.000 A 
ATOM     20  C   UNL     1       5.627   5.454  15.187  0.00  0.00    +0.000 A 
ATOM     21  C   UNL     1       6.433   4.672  14.318  0.00  0.00    +0.000 A 
ATOM     22  N   UNL     1       7.105   5.159  13.268  0.00  0.00    +0.000 N 
ATOM     23  N   UNL     1       6.451   3.390  14.664  0.00  0.00    +0.000 NA
ATOM     24  N   UNL     1       5.682   3.346  15.768  0.00  0.00    +0.000 N 
ATOM     25  C   UNL     1       5.158   4.556  16.137  0.00  0.00    +0.000 A 
ATOM     26  C   UNL     1       4.334   4.928  17.207  0.00  0.00    +0.000 A 
ATOM     27  H   UNL     1       6.879   6.059  12.866  0.00  0.00    +0.000 HD
ATOM     28  H   UNL     1       7.501   4.488  12.619  0.00  0.00    +0.000 HD
ATOM     29  H   UNL     1       5.556   2.456  16.229  0.00  0.00    +0.000 HD
ENDBRANCH  10  17
BRANCH   5  30
ATOM     30  C   UNL     1      -1.194  11.483  21.769  0.00  0.00    +0.000 C 
ATOM     31  O   UNL     1      -0.617  11.712  22.827  0.00  0.00    +0.000 OA
ATOM     32  N   UNL     1      -2.273  12.232  21.337  0.00  0.00    +0.000 N 
ATOM     33  H   UNL     1      -2.749  11.964  20.486  0.00  0.00    +0.000 HD
BRANCH  32  34
ATOM     34  C   UNL     1      -2.798  13.367  22.093  0.00  0.00    +0.000 C 
ATOM     35  C   UNL     1      -3.292  14.467  21.148  0.00  0.00    +0.000 C 
ATOM     36  C   UNL     1      -4.582  14.088  20.424  0.00  0.00    +0.000 C 
ATOM     37  C   UNL     1      -5.685  13.669  21.389  0.00  0.00    +0.000 C 
ATOM     38  C   UNL     1      -5.231  12.615  22.395  0.00  0.00    +0.000 C 
ATOM     39  C   UNL     1      -3.906  12.960  23.075  0.00  0.00    +0.000 C 
ENDBRANCH  32  34
ENDBRANCH   5  30
TORSDOF 3
ENDMDL
