MODEL 1
REMARK VINA RESULT:      -8.3      0.000      0.000
REMARK  Name = 
REMARK  7 active torsions:
REMARK  status: ('A' for Active; 'I' for Inactive)
REMARK    1  A    between atoms: C_2  and  C_26
REMARK    2  A    between atoms: N_3  and  C_4
REMARK    3  A    between atoms: C_8  and  C_9
REMARK    4  A    between atoms: C_9  and  N_10
REMARK    5  A    between atoms: N_14  and  C_15
REMARK    6  A    between atoms: C_15  and  C_16
REMARK    7  A    between atoms: C_19  and  O_20
REMARK                            x       y       z     vdW  Elec       q    Type
REMARK                         _______ _______ _______ _____ _____    ______ ____
ROOT
ATOM      1  C   UNL     1       0.229  11.053  20.816  0.00  0.00    +0.000 A 
ATOM      2  C   UNL     1      -0.605  10.881  21.927  0.00  0.00    +0.000 A 
ATOM      3  C   UNL     1      -0.638   9.675  22.626  0.00  0.00    +0.000 A 
ATOM      4  C   UNL     1       0.170   8.619  22.222  0.00  0.00    +0.000 A 
ATOM      5  C   UNL     1       0.999   8.745  21.096  0.00  0.00    +0.000 A 
ATOM      6  C   UNL     1       0.988   9.956  20.371  0.00  0.00    +0.000 A 
ENDROOT
BRANCH   1   9
ATOM      7  O   UNL     1       2.166  13.156  21.360  0.00  0.00    +0.000 OA
ATOM      8  C   UNL     1       1.311  13.279  20.485  0.00  0.00    +0.000 C 
ATOM      9  N   UNL     1       0.369  12.307  20.154  0.00  0.00    +0.000 N 
ATOM     10  H   UNL     1      -0.154  12.411  19.297  0.00  0.00    +0.000 HD
BRANCH   8  11
ATOM     11  C   UNL     1       1.337  14.563  19.710  0.00  0.00    +0.000 A 
ATOM     12  C   UNL     1       2.495  15.160  19.198  0.00  0.00    +0.000 A 
ATOM     13  C   UNL     1       2.406  16.338  18.438  0.00  0.00    +0.000 A 
ATOM     14  C   UNL     1       1.165  16.920  18.179  0.00  0.00    +0.000 A 
ATOM     15  C   UNL     1       0.020  16.332  18.693  0.00  0.00    +0.000 A 
ATOM     16  F   UNL     1      -1.175  16.887  18.450  0.00  0.00    +0.000 F 
ATOM     17  C   UNL     1       0.095  15.171  19.452  0.00  0.00    +0.000 A 
ENDBRANCH   8  11
ENDBRANCH   1   9
BRANCH   5  18
ATOM     18  C   UNL     1       2.009   7.649  20.820  0.00  0.00    +0.000 C 
BRANCH  18  19
ATOM     19  N   UNL     1       1.566   6.446  20.069  0.00  0.00    +0.000 NA
ATOM     20  C   UNL     1       1.734   5.234  20.894  0.00  0.00    +0.000 C 
ATOM     21  C   UNL     1       1.150   3.928  20.343  0.00  0.00    +0.000 C 
ATOM     22  C   UNL     1       1.756   3.248  19.111  0.00  0.00    +0.000 C 
ATOM     23  N   UNL     1       2.749   3.938  18.300  0.00  0.00    +0.000 NA
ATOM     24  C   UNL     1       2.267   5.248  17.858  0.00  0.00    +0.000 C 
ATOM     25  C   UNL     1       2.400   6.425  18.839  0.00  0.00    +0.000 C 
BRANCH  23  26
ATOM     26  C   UNL     1       4.121   3.930  18.819  0.00  0.00    +0.000 C 
BRANCH  26  27
ATOM     27  C   UNL     1       5.161   4.236  17.758  0.00  0.00    +0.000 A 
ATOM     28  C   UNL     1       6.195   5.149  18.023  0.00  0.00    +0.000 A 
ATOM     29  C   UNL     1       7.081   5.531  17.014  0.00  0.00    +0.000 A 
ATOM     30  C   UNL     1       6.940   4.990  15.741  0.00  0.00    +0.000 A 
ATOM     31  C   UNL     1       5.960   4.043  15.472  0.00  0.00    +0.000 A 
ATOM     32  C   UNL     1       5.070   3.665  16.479  0.00  0.00    +0.000 A 
BRANCH  30  33
ATOM     33  O   UNL     1       7.740   5.385  14.710  0.00  0.00    +0.000 OA
ATOM     34  H   UNL     1       8.586   4.914  14.777  0.00  0.00    +0.000 HD
ENDBRANCH  30  33
ENDBRANCH  26  27
ENDBRANCH  23  26
ENDBRANCH  18  19
ENDBRANCH   5  18
TORSDOF 7
ENDMDL
MODEL 2
REMARK VINA RESULT:      -8.2      0.893      1.499
REMARK  Name = 
REMARK  7 active torsions:
REMARK  status: ('A' for Active; 'I' for Inactive)
REMARK    1  A    between atoms: C_2  and  C_26
REMARK    2  A    between atoms: N_3  and  C_4
REMARK    3  A    between atoms: C_8  and  C_9
REMARK    4  A    between atoms: C_9  and  N_10
REMARK    5  A    between atoms: N_14  and  C_15
REMARK    6  A    between atoms: C_15  and  C_16
REMARK    7  A    between atoms: C_19  and  O_20
REMARK                            x       y       z     vdW  Elec       q    Type
REMARK                         _______ _______ _______ _____ _____    ______ ____
ROOT
ATOM      1  C   UNL     1       0.196  10.808  20.474  0.00  0.00    +0.000 A 
ATOM      2  C   UNL     1      -0.498  10.514  21.652  0.00  0.00    +0.000 A 
ATOM      3  C   UNL     1      -0.364   9.276  22.280  0.00  0.00    +0.000 A 
ATOM      4  C   UNL     1       0.474   8.311  21.735  0.00  0.00    +0.000 A 
ATOM      5  C   UNL     1       1.165   8.560  20.538  0.00  0.00    +0.000 A 
ATOM      6  C   UNL     1       0.984   9.800  19.889  0.00  0.00    +0.000 A 
ENDROOT
BRANCH   1   9
ATOM      7  O   UNL     1       1.794  13.139  21.172  0.00  0.00    +0.000 OA
ATOM      8  C   UNL     1       0.951  13.181  20.278  0.00  0.00    +0.000 C 
ATOM      9  N   UNL     1       0.168  12.101  19.874  0.00  0.00    +0.000 N 
ATOM     10  H   UNL     1      -0.345  12.171  19.007  0.00  0.00    +0.000 HD
BRANCH   8  11
ATOM     11  C   UNL     1       0.808  14.492  19.564  0.00  0.00    +0.000 A 
ATOM     12  C   UNL     1      -0.389  15.211  19.451  0.00  0.00    +0.000 A 
ATOM     13  C   UNL     1      -0.405  16.458  18.806  0.00  0.00    +0.000 A 
ATOM     14  C   UNL     1       0.768  16.997  18.278  0.00  0.00    +0.000 A 
ATOM     15  C   UNL     1       1.950  16.281  18.383  0.00  0.00    +0.000 A 
ATOM     16  F   UNL     1       3.080  16.792  17.876  0.00  0.00    +0.000 F 
ATOM     17  C   UNL     1       1.979  15.043  19.012  0.00  0.00    +0.000 A 
ENDBRANCH   8  11
ENDBRANCH   1   9
BRANCH   5  18
ATOM     18  C   UNL     1       2.219   7.565  20.097  0.00  0.00    +0.000 C 
BRANCH  18  19
ATOM     19  N   UNL     1       1.785   6.208  19.674  0.00  0.00    +0.000 NA
ATOM     20  C   UNL     1       2.118   5.215  20.714  0.00  0.00    +0.000 C 
ATOM     21  C   UNL     1       1.571   3.796  20.525  0.00  0.00    +0.000 C 
ATOM     22  C   UNL     1       2.093   2.890  19.405  0.00  0.00    +0.000 C 
ATOM     23  N   UNL     1       2.948   3.429  18.356  0.00  0.00    +0.000 NA
ATOM     24  C   UNL     1       2.336   4.587  17.704  0.00  0.00    +0.000 C 
ATOM     25  C   UNL     1       2.488   5.955  18.390  0.00  0.00    +0.000 C 
BRANCH  23  26
ATOM     26  C   UNL     1       4.364   3.595  18.705  0.00  0.00    +0.000 C 
BRANCH  26  27
ATOM     27  C   UNL     1       5.196   4.157  17.567  0.00  0.00    +0.000 A 
ATOM     28  C   UNL     1       5.095   3.607  16.279  0.00  0.00    +0.000 A 
ATOM     29  C   UNL     1       5.944   4.034  15.256  0.00  0.00    +0.000 A 
ATOM     30  C   UNL     1       6.888   5.019  15.520  0.00  0.00    +0.000 A 
ATOM     31  C   UNL     1       6.967   5.616  16.772  0.00  0.00    +0.000 A 
ATOM     32  C   UNL     1       6.121   5.186  17.796  0.00  0.00    +0.000 A 
BRANCH  30  33
ATOM     33  O   UNL     1       7.782   5.418  14.571  0.00  0.00    +0.000 OA
ATOM     34  H   UNL     1       8.047   6.332  14.760  0.00  0.00    +0.000 HD
ENDBRANCH  30  33
ENDBRANCH  26  27
ENDBRANCH  23  26
ENDBRANCH  18  19
ENDBRANCH   5  18
TORSDOF 7
ENDMDL
MODEL 3
REMARK VINA RESULT:      -8.2      1.115      1.381
REMARK  Name = 
REMARK  7 active torsions:
REMARK  status: ('A' for Active; 'I' for Inactive)
REMARK    1  A    between atoms: C_2  and  C_26
REMARK    2  A    between atoms: N_3  and  C_4
REMARK    3  A    between atoms: C_8  and  C_9
REMARK    4  A    between atoms: C_9  and  N_10
REMARK    5  A    between atoms: N_14  and  C_15
REMARK    6  A    between atoms: C_15  and  C_16
REMARK    7  A    between atoms: C_19  and  O_20
REMARK                            x       y       z     vdW  Elec       q    Type
REMARK                         _______ _______ _______ _____ _____    ______ ____
ROOT
ATOM      1  C   UNL     1       0.539  10.885  20.383  0.00  0.00    +0.000 A 
ATOM      2  C   UNL     1      -0.356  10.780  21.453  0.00  0.00    +0.000 A 
ATOM      3  C   UNL     1      -0.484   9.593  22.174  0.00  0.00    +0.000 A 
ATOM      4  C   UNL     1       0.288   8.489  21.832  0.00  0.00    +0.000 A 
ATOM      5  C   UNL     1       1.176   8.549  20.746  0.00  0.00    +0.000 A 
ATOM      6  C   UNL     1       1.262   9.742  19.998  0.00  0.00    +0.000 A 
ENDROOT
BRANCH   1   9
ATOM      7  O   UNL     1       2.142  13.144  21.278  0.00  0.00    +0.000 OA
ATOM      8  C   UNL     1       1.539  13.167  20.206  0.00  0.00    +0.000 C 
ATOM      9  N   UNL     1       0.775  12.115  19.703  0.00  0.00    +0.000 N 
ATOM     10  H   UNL     1       0.489  12.143  18.735  0.00  0.00    +0.000 HD
BRANCH   8  11
ATOM     11  C   UNL     1       1.693  14.413  19.386  0.00  0.00    +0.000 A 
ATOM     12  C   UNL     1       0.846  15.526  19.464  0.00  0.00    +0.000 A 
ATOM     13  C   UNL     1       1.107  16.668  18.690  0.00  0.00    +0.000 A 
ATOM     14  C   UNL     1       2.215  16.710  17.843  0.00  0.00    +0.000 A 
ATOM     15  C   UNL     1       3.049  15.606  17.762  0.00  0.00    +0.000 A 
ATOM     16  F   UNL     1       4.113  15.638  16.949  0.00  0.00    +0.000 F 
ATOM     17  C   UNL     1       2.797  14.467  18.516  0.00  0.00    +0.000 A 
ENDBRANCH   8  11
ENDBRANCH   1   9
BRANCH   5  18
ATOM     18  C   UNL     1       2.141   7.397  20.543  0.00  0.00    +0.000 C 
BRANCH  18  19
ATOM     19  N   UNL     1       1.651   6.169  19.866  0.00  0.00    +0.000 NA
ATOM     20  C   UNL     1       1.793   5.000  20.755  0.00  0.00    +0.000 C 
ATOM     21  C   UNL     1       1.162   3.684  20.285  0.00  0.00    +0.000 C 
ATOM     22  C   UNL     1       1.729   2.919  19.085  0.00  0.00    +0.000 C 
ATOM     23  N   UNL     1       2.730   3.532  18.224  0.00  0.00    +0.000 NA
ATOM     24  C   UNL     1       2.282   4.829  17.716  0.00  0.00    +0.000 C 
ATOM     25  C   UNL     1       2.466   6.054  18.629  0.00  0.00    +0.000 C 
BRANCH  23  26
ATOM     26  C   UNL     1       4.110   3.509  18.725  0.00  0.00    +0.000 C 
BRANCH  26  27
ATOM     27  C   UNL     1       5.131   3.911  17.678  0.00  0.00    +0.000 A 
ATOM     28  C   UNL     1       6.171   4.795  18.006  0.00  0.00    +0.000 A 
ATOM     29  C   UNL     1       7.040   5.267  17.020  0.00  0.00    +0.000 A 
ATOM     30  C   UNL     1       6.874   4.846  15.706  0.00  0.00    +0.000 A 
ATOM     31  C   UNL     1       5.887   3.927  15.370  0.00  0.00    +0.000 A 
ATOM     32  C   UNL     1       5.015   3.459  16.354  0.00  0.00    +0.000 A 
BRANCH  30  33
ATOM     33  O   UNL     1       7.656   5.332  14.701  0.00  0.00    +0.000 OA
ATOM     34  H   UNL     1       8.223   6.032  15.062  0.00  0.00    +0.000 HD
ENDBRANCH  30  33
ENDBRANCH  26  27
ENDBRANCH  23  26
ENDBRANCH  18  19
ENDBRANCH   5  18
TORSDOF 7
ENDMDL
MODEL 4
REMARK VINA RESULT:      -8.1      2.919      3.685
REMARK  Name = 
REMARK  7 active torsions:
REMARK  status: ('A' for Active; 'I' for Inactive)
REMARK    1  A    between atoms: C_2  and  C_26
REMARK    2  A    between atoms: N_3  and  C_4
REMARK    3  A    between atoms: C_8  and  C_9
REMARK    4  A    between atoms: C_9  and  N_10
REMARK    5  A    between atoms: N_14  and  C_15
REMARK    6  A    between atoms: C_15  and  C_16
REMARK    7  A    between atoms: C_19  and  O_20
REMARK                            x       y       z     vdW  Elec       q    Type
REMARK                         _______ _______ _______ _____ _____    ______ ____
ROOT
ATOM      1  C   UNL     1       0.294  10.734  20.357  0.00  0.00    +0.000 A 
ATOM      2  C   UNL     1       0.333  10.861  18.964  0.00  0.00    +0.000 A 
ATOM      3  C   UNL     1       0.942   9.892  18.167  0.00  0.00    +0.000 A 
ATOM      4  C   UNL     1       1.522   8.775  18.756  0.00  0.00    +0.000 A 
ATOM      5  C   UNL     1       1.527   8.627  20.152  0.00  0.00    +0.000 A 
ATOM      6  C   UNL     1       0.947   9.637  20.949  0.00  0.00    +0.000 A 
ENDROOT
BRANCH   1   9
ATOM      7  O   UNL     1      -1.004  10.193  22.905  0.00  0.00    +0.000 OA
ATOM      8  C   UNL     1      -1.037  11.309  22.390  0.00  0.00    +0.000 C 
ATOM      9  N   UNL     1      -0.419  11.646  21.187  0.00  0.00    +0.000 N 
ATOM     10  H   UNL     1      -0.326  12.622  20.946  0.00  0.00    +0.000 HD
BRANCH   8  11
ATOM     11  C   UNL     1      -1.767  12.371  23.156  0.00  0.00    +0.000 A 
ATOM     12  C   UNL     1      -1.263  13.650  23.422  0.00  0.00    +0.000 A 
ATOM     13  C   UNL     1      -2.050  14.592  24.104  0.00  0.00    +0.000 A 
ATOM     14  C   UNL     1      -3.342  14.268  24.517  0.00  0.00    +0.000 A 
ATOM     15  C   UNL     1      -3.838  13.000  24.260  0.00  0.00    +0.000 A 
ATOM     16  F   UNL     1      -5.078  12.681  24.655  0.00  0.00    +0.000 F 
ATOM     17  C   UNL     1      -3.067  12.056  23.592  0.00  0.00    +0.000 A 
ENDBRANCH   8  11
ENDBRANCH   1   9
BRANCH   5  18
ATOM     18  C   UNL     1       1.981   7.303  20.733  0.00  0.00    +0.000 C 
BRANCH  18  19
ATOM     19  N   UNL     1       1.587   6.049  20.039  0.00  0.00    +0.000 NA
ATOM     20  C   UNL     1       1.829   4.882  20.910  0.00  0.00    +0.000 C 
ATOM     21  C   UNL     1       1.303   3.527  20.425  0.00  0.00    +0.000 C 
ATOM     22  C   UNL     1       1.922   2.827  19.211  0.00  0.00    +0.000 C 
ATOM     23  N   UNL     1       2.866   3.531  18.353  0.00  0.00    +0.000 NA
ATOM     24  C   UNL     1       2.312   4.795  17.867  0.00  0.00    +0.000 C 
ATOM     25  C   UNL     1       2.401   6.018  18.797  0.00  0.00    +0.000 C 
BRANCH  23  26
ATOM     26  C   UNL     1       4.246   3.612  18.848  0.00  0.00    +0.000 C 
BRANCH  26  27
ATOM     27  C   UNL     1       5.243   3.993  17.770  0.00  0.00    +0.000 A 
ATOM     28  C   UNL     1       6.407   4.704  18.101  0.00  0.00    +0.000 A 
ATOM     29  C   UNL     1       7.267   5.166  17.103  0.00  0.00    +0.000 A 
ATOM     30  C   UNL     1       6.966   4.906  15.771  0.00  0.00    +0.000 A 
ATOM     31  C   UNL     1       5.850   4.155  15.423  0.00  0.00    +0.000 A 
ATOM     32  C   UNL     1       4.988   3.698  16.421  0.00  0.00    +0.000 A 
BRANCH  30  33
ATOM     33  O   UNL     1       7.740   5.395  14.761  0.00  0.00    +0.000 OA
ATOM     34  H   UNL     1       7.176   5.553  13.987  0.00  0.00    +0.000 HD
ENDBRANCH  30  33
ENDBRANCH  26  27
ENDBRANCH  23  26
ENDBRANCH  18  19
ENDBRANCH   5  18
TORSDOF 7
ENDMDL
MODEL 5
REMARK VINA RESULT:      -8.1      6.375      7.992
REMARK  Name = 
REMARK  7 active torsions:
REMARK  status: ('A' for Active; 'I' for Inactive)
REMARK    1  A    between atoms: C_2  and  C_26
REMARK    2  A    between atoms: N_3  and  C_4
REMARK    3  A    between atoms: C_8  and  C_9
REMARK    4  A    between atoms: C_9  and  N_10
REMARK    5  A    between atoms: N_14  and  C_15
REMARK    6  A    between atoms: C_15  and  C_16
REMARK    7  A    between atoms: C_19  and  O_20
REMARK                            x       y       z     vdW  Elec       q    Type
REMARK                         _______ _______ _______ _____ _____    ______ ____
ROOT
ATOM      1  C   UNL     1       9.683  11.282  20.524  0.00  0.00    +0.000 A 
ATOM      2  C   UNL     1      10.734  11.784  19.749  0.00  0.00    +0.000 A 
ATOM      3  C   UNL     1      10.885  11.415  18.412  0.00  0.00    +0.000 A 
ATOM      4  C   UNL     1       9.980  10.537  17.829  0.00  0.00    +0.000 A 
ATOM      5  C   UNL     1       8.928   9.992  18.584  0.00  0.00    +0.000 A 
ATOM      6  C   UNL     1       8.814  10.338  19.948  0.00  0.00    +0.000 A 
ENDROOT
BRANCH   1   9
ATOM      7  O   UNL     1       8.206  13.642  21.374  0.00  0.00    +0.000 OA
ATOM      8  C   UNL     1       8.736  12.887  22.187  0.00  0.00    +0.000 C 
ATOM      9  N   UNL     1       9.436  11.728  21.855  0.00  0.00    +0.000 N 
ATOM     10  H   UNL     1       9.658  11.069  22.586  0.00  0.00    +0.000 HD
BRANCH   8  11
ATOM     11  C   UNL     1       8.563  13.244  23.633  0.00  0.00    +0.000 A 
ATOM     12  C   UNL     1       8.774  14.520  24.169  0.00  0.00    +0.000 A 
ATOM     13  C   UNL     1       8.532  14.764  25.531  0.00  0.00    +0.000 A 
ATOM     14  C   UNL     1       8.073  13.742  26.361  0.00  0.00    +0.000 A 
ATOM     15  C   UNL     1       7.871  12.477  25.832  0.00  0.00    +0.000 A 
ATOM     16  F   UNL     1       7.431  11.491  26.625  0.00  0.00    +0.000 F 
ATOM     17  C   UNL     1       8.113  12.221  24.488  0.00  0.00    +0.000 A 
ENDBRANCH   8  11
ENDBRANCH   1   9
BRANCH   5  18
ATOM     18  C   UNL     1       7.853   9.209  17.858  0.00  0.00    +0.000 C 
BRANCH  18  19
ATOM     19  N   UNL     1       8.058   7.754  17.636  0.00  0.00    +0.000 NA
ATOM     20  C   UNL     1       7.000   7.213  16.761  0.00  0.00    +0.000 C 
ATOM     21  C   UNL     1       7.166   5.768  16.276  0.00  0.00    +0.000 C 
ATOM     22  C   UNL     1       7.051   4.590  17.249  0.00  0.00    +0.000 C 
ATOM     23  N   UNL     1       7.011   4.819  18.686  0.00  0.00    +0.000 NA
ATOM     24  C   UNL     1       8.151   5.619  19.136  0.00  0.00    +0.000 C 
ATOM     25  C   UNL     1       8.050   7.147  18.992  0.00  0.00    +0.000 C 
BRANCH  23  26
ATOM     26  C   UNL     1       5.714   5.231  19.236  0.00  0.00    +0.000 C 
BRANCH  26  27
ATOM     27  C   UNL     1       4.581   4.298  18.850  0.00  0.00    +0.000 A 
ATOM     28  C   UNL     1       3.567   4.737  17.983  0.00  0.00    +0.000 A 
ATOM     29  C   UNL     1       2.458   3.931  17.721  0.00  0.00    +0.000 A 
ATOM     30  C   UNL     1       2.368   2.679  18.319  0.00  0.00    +0.000 A 
ATOM     31  C   UNL     1       3.387   2.202  19.135  0.00  0.00    +0.000 A 
ATOM     32  C   UNL     1       4.494   3.010  19.401  0.00  0.00    +0.000 A 
BRANCH  30  33
ATOM     33  O   UNL     1       1.273   1.887  18.146  0.00  0.00    +0.000 OA
ATOM     34  H   UNL     1       1.401   1.066  18.648  0.00  0.00    +0.000 HD
ENDBRANCH  30  33
ENDBRANCH  26  27
ENDBRANCH  23  26
ENDBRANCH  18  19
ENDBRANCH   5  18
TORSDOF 7
ENDMDL
MODEL 6
REMARK VINA RESULT:      -8.0      3.607     10.076
REMARK  Name = 
REMARK  7 active torsions:
REMARK  status: ('A' for Active; 'I' for Inactive)
REMARK    1  A    between atoms: C_2  and  C_26
REMARK    2  A    between atoms: N_3  and  C_4
REMARK    3  A    between atoms: C_8  and  C_9
REMARK    4  A    between atoms: C_9  and  N_10
REMARK    5  A    between atoms: N_14  and  C_15
REMARK    6  A    between atoms: C_15  and  C_16
REMARK    7  A    between atoms: C_19  and  O_20
REMARK                            x       y       z     vdW  Elec       q    Type
REMARK                         _______ _______ _______ _____ _____    ______ ____
ROOT
ATOM      1  C   UNL     1       3.503   4.452  17.419  0.00  0.00    +0.000 A 
ATOM      2  C   UNL     1       2.757   3.371  17.902  0.00  0.00    +0.000 A 
ATOM      3  C   UNL     1       2.016   3.473  19.079  0.00  0.00    +0.000 A 
ATOM      4  C   UNL     1       2.009   4.665  19.792  0.00  0.00    +0.000 A 
ATOM      5  C   UNL     1       2.768   5.763  19.353  0.00  0.00    +0.000 A 
ATOM      6  C   UNL     1       3.549   5.631  18.185  0.00  0.00    +0.000 A 
ENDROOT
BRANCH   1   9
ATOM      7  O   UNL     1       6.371   4.387  16.928  0.00  0.00    +0.000 OA
ATOM      8  C   UNL     1       5.559   4.409  16.004  0.00  0.00    +0.000 C 
ATOM      9  N   UNL     1       4.175   4.416  16.163  0.00  0.00    +0.000 N 
ATOM     10  H   UNL     1       3.593   4.228  15.360  0.00  0.00    +0.000 HD
BRANCH   8  11
ATOM     11  C   UNL     1       6.133   4.383  14.618  0.00  0.00    +0.000 A 
ATOM     12  C   UNL     1       7.263   5.103  14.211  0.00  0.00    +0.000 A 
ATOM     13  C   UNL     1       7.753   4.969  12.902  0.00  0.00    +0.000 A 
ATOM     14  C   UNL     1       7.125   4.113  11.996  0.00  0.00    +0.000 A 
ATOM     15  C   UNL     1       6.002   3.407  12.398  0.00  0.00    +0.000 A 
ATOM     16  F   UNL     1       5.393   2.585  11.533  0.00  0.00    +0.000 F 
ATOM     17  C   UNL     1       5.503   3.536  13.688  0.00  0.00    +0.000 A 
ENDBRANCH   8  11
ENDBRANCH   1   9
BRANCH   5  18
ATOM     18  C   UNL     1       2.566   7.097  20.043  0.00  0.00    +0.000 C 
BRANCH  18  19
ATOM     19  N   UNL     1       1.398   7.929  19.655  0.00  0.00    +0.000 NA
ATOM     20  C   UNL     1       1.759   8.838  18.550  0.00  0.00    +0.000 C 
ATOM     21  C   UNL     1       0.621   9.633  17.899  0.00  0.00    +0.000 C 
ATOM     22  C   UNL     1      -0.101  10.749  18.663  0.00  0.00    +0.000 C 
ATOM     23  N   UNL     1       0.116  10.926  20.092  0.00  0.00    +0.000 NA
ATOM     24  C   UNL     1      -0.131   9.688  20.832  0.00  0.00    +0.000 C 
ATOM     25  C   UNL     1       1.007   8.654  20.891  0.00  0.00    +0.000 C 
BRANCH  23  26
ATOM     26  C   UNL     1       1.342  11.638  20.472  0.00  0.00    +0.000 C 
BRANCH  26  27
ATOM     27  C   UNL     1       1.512  12.960  19.747  0.00  0.00    +0.000 A 
ATOM     28  C   UNL     1       2.537  13.122  18.801  0.00  0.00    +0.000 A 
ATOM     29  C   UNL     1       2.778  14.369  18.222  0.00  0.00    +0.000 A 
ATOM     30  C   UNL     1       1.986  15.453  18.581  0.00  0.00    +0.000 A 
ATOM     31  C   UNL     1       0.930  15.302  19.472  0.00  0.00    +0.000 A 
ATOM     32  C   UNL     1       0.692  14.056  20.055  0.00  0.00    +0.000 A 
BRANCH  30  33
ATOM     33  O   UNL     1       2.229  16.702  18.092  0.00  0.00    +0.000 OA
ATOM     34  H   UNL     1       1.453  17.258  18.266  0.00  0.00    +0.000 HD
ENDBRANCH  30  33
ENDBRANCH  26  27
ENDBRANCH  23  26
ENDBRANCH  18  19
ENDBRANCH   5  18
TORSDOF 7
ENDMDL
MODEL 7
REMARK VINA RESULT:      -8.0      2.629      3.407
REMARK  Name = 
REMARK  7 active torsions:
REMARK  status: ('A' for Active; 'I' for Inactive)
REMARK    1  A    between atoms: C_2  and  C_26
REMARK    2  A    between atoms: N_3  and  C_4
REMARK    3  A    between atoms: C_8  and  C_9
REMARK    4  A    between atoms: C_9  and  N_10
REMARK    5  A    between atoms: N_14  and  C_15
REMARK    6  A    between atoms: C_15  and  C_16
REMARK    7  A    between atoms: C_19  and  O_20
REMARK                            x       y       z     vdW  Elec       q    Type
REMARK                         _______ _______ _______ _____ _____    ______ ____
ROOT
ATOM      1  C   UNL     1       0.372  10.198  19.970  0.00  0.00    +0.000 A 
ATOM      2  C   UNL     1       0.666  10.509  18.638  0.00  0.00    +0.000 A 
ATOM      3  C   UNL     1       1.511   9.702  17.877  0.00  0.00    +0.000 A 
ATOM      4  C   UNL     1       2.075   8.564  18.442  0.00  0.00    +0.000 A 
ATOM      5  C   UNL     1       1.825   8.236  19.784  0.00  0.00    +0.000 A 
ATOM      6  C   UNL     1       1.005   9.087  20.556  0.00  0.00    +0.000 A 
ENDROOT
BRANCH   1   9
ATOM      7  O   UNL     1       0.833  12.600  21.549  0.00  0.00    +0.000 OA
ATOM      8  C   UNL     1      -0.276  12.072  21.489  0.00  0.00    +0.000 C 
ATOM      9  N   UNL     1      -0.575  10.938  20.736  0.00  0.00    +0.000 N 
ATOM     10  H   UNL     1      -1.545  10.698  20.584  0.00  0.00    +0.000 HD
BRANCH   8  11
ATOM     11  C   UNL     1      -1.373  12.745  22.259  0.00  0.00    +0.000 A 
ATOM     12  C   UNL     1      -1.173  13.556  23.384  0.00  0.00    +0.000 A 
ATOM     13  C   UNL     1      -2.265  14.185  24.004  0.00  0.00    +0.000 A 
ATOM     14  C   UNL     1      -3.556  14.016  23.503  0.00  0.00    +0.000 A 
ATOM     15  C   UNL     1      -3.753  13.207  22.395  0.00  0.00    +0.000 A 
ATOM     16  F   UNL     1      -4.991  13.039  21.911  0.00  0.00    +0.000 F 
ATOM     17  C   UNL     1      -2.683  12.573  21.777  0.00  0.00    +0.000 A 
ENDBRANCH   8  11
ENDBRANCH   1   9
BRANCH   5  18
ATOM     18  C   UNL     1       2.289   6.885  20.292  0.00  0.00    +0.000 C 
BRANCH  18  19
ATOM     19  N   UNL     1       1.733   5.659  19.662  0.00  0.00    +0.000 NA
ATOM     20  C   UNL     1       1.918   4.496  20.552  0.00  0.00    +0.000 C 
ATOM     21  C   UNL     1       1.234   3.187  20.140  0.00  0.00    +0.000 C 
ATOM     22  C   UNL     1       1.705   2.401  18.913  0.00  0.00    +0.000 C 
ATOM     23  N   UNL     1       2.655   2.988  17.978  0.00  0.00    +0.000 NA
ATOM     24  C   UNL     1       2.195   4.288  17.489  0.00  0.00    +0.000 C 
ATOM     25  C   UNL     1       2.460   5.518  18.374  0.00  0.00    +0.000 C 
BRANCH  23  26
ATOM     26  C   UNL     1       4.065   2.946  18.385  0.00  0.00    +0.000 C 
BRANCH  26  27
ATOM     27  C   UNL     1       4.985   3.669  17.419  0.00  0.00    +0.000 A 
ATOM     28  C   UNL     1       4.907   3.411  16.041  0.00  0.00    +0.000 A 
ATOM     29  C   UNL     1       5.830   3.977  15.159  0.00  0.00    +0.000 A 
ATOM     30  C   UNL     1       6.826   4.811  15.656  0.00  0.00    +0.000 A 
ATOM     31  C   UNL     1       6.885   5.125  17.009  0.00  0.00    +0.000 A 
ATOM     32  C   UNL     1       5.966   4.555  17.891  0.00  0.00    +0.000 A 
BRANCH  30  33
ATOM     33  O   UNL     1       7.787   5.330  14.842  0.00  0.00    +0.000 OA
ATOM     34  H   UNL     1       8.628   5.348  15.328  0.00  0.00    +0.000 HD
ENDBRANCH  30  33
ENDBRANCH  26  27
ENDBRANCH  23  26
ENDBRANCH  18  19
ENDBRANCH   5  18
TORSDOF 7
ENDMDL
MODEL 8
REMARK VINA RESULT:      -7.9      3.336      9.818
REMARK  Name = 
REMARK  7 active torsions:
REMARK  status: ('A' for Active; 'I' for Inactive)
REMARK    1  A    between atoms: C_2  and  C_26
REMARK    2  A    between atoms: N_3  and  C_4
REMARK    3  A    between atoms: C_8  and  C_9
REMARK    4  A    between atoms: C_9  and  N_10
REMARK    5  A    between atoms: N_14  and  C_15
REMARK    6  A    between atoms: C_15  and  C_16
REMARK    7  A    between atoms: C_19  and  O_20
REMARK                            x       y       z     vdW  Elec       q    Type
REMARK                         _______ _______ _______ _____ _____    ______ ____
ROOT
ATOM      1  C   UNL     1       2.959   4.991  18.299  0.00  0.00    +0.000 A 
ATOM      2  C   UNL     1       2.143   3.934  18.717  0.00  0.00    +0.000 A 
ATOM      3  C   UNL     1       1.315   4.057  19.832  0.00  0.00    +0.000 A 
ATOM      4  C   UNL     1       1.291   5.248  20.548  0.00  0.00    +0.000 A 
ATOM      5  C   UNL     1       2.116   6.321  20.175  0.00  0.00    +0.000 A 
ATOM      6  C   UNL     1       2.982   6.167  19.072  0.00  0.00    +0.000 A 
ENDROOT
BRANCH   1   9
ATOM      7  O   UNL     1       5.762   4.268  18.003  0.00  0.00    +0.000 OA
ATOM      8  C   UNL     1       5.078   4.601  17.037  0.00  0.00    +0.000 C 
ATOM      9  N   UNL     1       3.726   4.936  17.100  0.00  0.00    +0.000 N 
ATOM     10  H   UNL     1       3.201   4.996  16.240  0.00  0.00    +0.000 HD
BRANCH   8  11
ATOM     11  C   UNL     1       5.766   4.595  15.705  0.00  0.00    +0.000 A 
ATOM     12  C   UNL     1       7.055   5.092  15.473  0.00  0.00    +0.000 A 
ATOM     13  C   UNL     1       7.632   4.991  14.196  0.00  0.00    +0.000 A 
ATOM     14  C   UNL     1       6.932   4.390  13.149  0.00  0.00    +0.000 A 
ATOM     15  C   UNL     1       5.654   3.906  13.379  0.00  0.00    +0.000 A 
ATOM     16  F   UNL     1       4.975   3.329  12.377  0.00  0.00    +0.000 F 
ATOM     17  C   UNL     1       5.069   4.006  14.635  0.00  0.00    +0.000 A 
ENDBRANCH   8  11
ENDBRANCH   1   9
BRANCH   5  18
ATOM     18  C   UNL     1       1.903   7.660  20.853  0.00  0.00    +0.000 C 
BRANCH  18  19
ATOM     19  N   UNL     1       0.884   8.586  20.295  0.00  0.00    +0.000 NA
ATOM     20  C   UNL     1       1.370   9.187  19.037  0.00  0.00    +0.000 C 
ATOM     21  C   UNL     1       0.368  10.021  18.230  0.00  0.00    +0.000 C 
ATOM     22  C   UNL     1      -0.139  11.370  18.750  0.00  0.00    +0.000 C 
ATOM     23  N   UNL     1       0.136  11.784  20.120  0.00  0.00    +0.000 NA
ATOM     24  C   UNL     1      -0.300  10.775  21.085  0.00  0.00    +0.000 C 
ATOM     25  C   UNL     1       0.648   9.595  21.360  0.00  0.00    +0.000 C 
BRANCH  23  26
ATOM     26  C   UNL     1       1.472  12.338  20.367  0.00  0.00    +0.000 C 
BRANCH  26  27
ATOM     27  C   UNL     1       1.746  13.606  19.581  0.00  0.00    +0.000 A 
ATOM     28  C   UNL     1       2.778  13.640  18.629  0.00  0.00    +0.000 A 
ATOM     29  C   UNL     1       3.117  14.835  17.992  0.00  0.00    +0.000 A 
ATOM     30  C   UNL     1       2.417  15.995  18.299  0.00  0.00    +0.000 A 
ATOM     31  C   UNL     1       1.355  15.972  19.196  0.00  0.00    +0.000 A 
ATOM     32  C   UNL     1       1.019  14.779  19.837  0.00  0.00    +0.000 A 
BRANCH  30  33
ATOM     33  O   UNL     1       2.758  17.196  17.752  0.00  0.00    +0.000 OA
ATOM     34  H   UNL     1       3.439  17.607  18.308  0.00  0.00    +0.000 HD
ENDBRANCH  30  33
ENDBRANCH  26  27
ENDBRANCH  23  26
ENDBRANCH  18  19
ENDBRANCH   5  18
TORSDOF 7
ENDMDL
MODEL 9
REMARK VINA RESULT:      -7.9      2.784      3.606
REMARK  Name = 
REMARK  7 active torsions:
REMARK  status: ('A' for Active; 'I' for Inactive)
REMARK    1  A    between atoms: C_2  and  C_26
REMARK    2  A    between atoms: N_3  and  C_4
REMARK    3  A    between atoms: C_8  and  C_9
REMARK    4  A    between atoms: C_9  and  N_10
REMARK    5  A    between atoms: N_14  and  C_15
REMARK    6  A    between atoms: C_15  and  C_16
REMARK    7  A    between atoms: C_19  and  O_20
REMARK                            x       y       z     vdW  Elec       q    Type
REMARK                         _______ _______ _______ _____ _____    ______ ____
ROOT
ATOM      1  C   UNL     1      -0.656  10.962  20.423  0.00  0.00    +0.000 A 
ATOM      2  C   UNL     1      -1.149  11.039  19.116  0.00  0.00    +0.000 A 
ATOM      3  C   UNL     1      -0.604  10.265  18.092  0.00  0.00    +0.000 A 
ATOM      4  C   UNL     1       0.447   9.397  18.364  0.00  0.00    +0.000 A 
ATOM      5  C   UNL     1       0.987   9.314  19.658  0.00  0.00    +0.000 A 
ATOM      6  C   UNL     1       0.455  10.137  20.674  0.00  0.00    +0.000 A 
ENDROOT
BRANCH   1   9
ATOM      7  O   UNL     1       0.013  13.594  21.470  0.00  0.00    +0.000 OA
ATOM      8  C   UNL     1      -0.875  12.908  21.972  0.00  0.00    +0.000 C 
ATOM      9  N   UNL     1      -1.265  11.653  21.510  0.00  0.00    +0.000 N 
ATOM     10  H   UNL     1      -2.129  11.257  21.851  0.00  0.00    +0.000 HD
BRANCH   8  11
ATOM     11  C   UNL     1      -1.599  13.512  23.139  0.00  0.00    +0.000 A 
ATOM     12  C   UNL     1      -1.141  14.611  23.877  0.00  0.00    +0.000 A 
ATOM     13  C   UNL     1      -1.921  15.136  24.920  0.00  0.00    +0.000 A 
ATOM     14  C   UNL     1      -3.161  14.575  25.227  0.00  0.00    +0.000 A 
ATOM     15  C   UNL     1      -3.610  13.483  24.501  0.00  0.00    +0.000 A 
ATOM     16  F   UNL     1      -4.798  12.939  24.791  0.00  0.00    +0.000 F 
ATOM     17  C   UNL     1      -2.845  12.950  23.471  0.00  0.00    +0.000 A 
ENDBRANCH   8  11
ENDBRANCH   1   9
BRANCH   5  18
ATOM     18  C   UNL     1       1.984   8.211  19.951  0.00  0.00    +0.000 C 
BRANCH  18  19
ATOM     19  N   UNL     1       1.626   6.814  19.593  0.00  0.00    +0.000 NA
ATOM     20  C   UNL     1       1.882   5.911  20.731  0.00  0.00    +0.000 C 
ATOM     21  C   UNL     1       1.391   4.464  20.599  0.00  0.00    +0.000 C 
ATOM     22  C   UNL     1       2.041   3.497  19.604  0.00  0.00    +0.000 C 
ATOM     23  N   UNL     1       2.979   3.985  18.603  0.00  0.00    +0.000 NA
ATOM     24  C   UNL     1       2.404   5.073  17.811  0.00  0.00    +0.000 C 
ATOM     25  C   UNL     1       2.456   6.491  18.404  0.00  0.00    +0.000 C 
BRANCH  23  26
ATOM     26  C   UNL     1       4.351   4.221  19.070  0.00  0.00    +0.000 C 
BRANCH  26  27
ATOM     27  C   UNL     1       5.326   4.491  17.940  0.00  0.00    +0.000 A 
ATOM     28  C   UNL     1       6.233   5.560  18.028  0.00  0.00    +0.000 A 
ATOM     29  C   UNL     1       7.047   5.892  16.943  0.00  0.00    +0.000 A 
ATOM     30  C   UNL     1       6.962   5.146  15.773  0.00  0.00    +0.000 A 
ATOM     31  C   UNL     1       6.113   4.050  15.685  0.00  0.00    +0.000 A 
ATOM     32  C   UNL     1       5.295   3.721  16.767  0.00  0.00    +0.000 A 
BRANCH  30  33
ATOM     33  O   UNL     1       7.688   5.476  14.668  0.00  0.00    +0.000 OA
ATOM     34  H   UNL     1       8.186   6.288  14.855  0.00  0.00    +0.000 HD
ENDBRANCH  30  33
ENDBRANCH  26  27
ENDBRANCH  23  26
ENDBRANCH  18  19
ENDBRANCH   5  18
TORSDOF 7
ENDMDL
