MODEL 1
REMARK VINA RESULT:      -8.2      0.000      0.000
REMARK  Name = 
REMARK  5 active torsions:
REMARK  status: ('A' for Active; 'I' for Inactive)
REMARK    1  A    between atoms: C_2  and  C_3
REMARK    2  A    between atoms: C_2  and  C_10
REMARK    3  A    between atoms: N_13  and  C_14
REMARK    4  A    between atoms: C_14  and  C_15
REMARK    5  A    between atoms: C_15  and  C_16
REMARK                            x       y       z     vdW  Elec       q    Type
REMARK                         _______ _______ _______ _____ _____    ______ ____
ROOT
ATOM      1  C   UNL     1       4.203   3.260  17.541  0.00  0.00    +0.000 C 
ATOM      2  C   UNL     1       2.744   3.516  17.135  0.00  0.00    +0.000 C 
ATOM      3  C   UNL     1       1.992   4.524  17.999  0.00  0.00    +0.000 C 
ATOM      4  N   UNL     1       2.204   4.244  19.421  0.00  0.00    +0.000 NA
ATOM      5  C   UNL     1       3.622   4.484  19.731  0.00  0.00    +0.000 C 
ATOM      6  C   UNL     1       4.486   3.437  19.039  0.00  0.00    +0.000 C 
ENDROOT
BRANCH   1   8
ATOM      7  O   UNL     1       5.239   3.844  15.430  0.00  0.00    +0.000 OA
ATOM      8  C   UNL     1       5.151   4.052  16.638  0.00  0.00    +0.000 C 
BRANCH   8   9
ATOM      9  C   UNL     1       6.044   5.081  17.275  0.00  0.00    +0.000 A 
ATOM     10  C   UNL     1       7.107   4.730  18.129  0.00  0.00    +0.000 A 
ATOM     11  C   UNL     1       7.975   5.708  18.613  0.00  0.00    +0.000 A 
ATOM     12  C   UNL     1       7.783   7.034  18.258  0.00  0.00    +0.000 A 
ATOM     13  F   UNL     1       8.637   7.965  18.703  0.00  0.00    +0.000 F 
ATOM     14  C   UNL     1       6.722   7.408  17.441  0.00  0.00    +0.000 A 
ATOM     15  C   UNL     1       5.848   6.431  16.952  0.00  0.00    +0.000 A 
ENDBRANCH   8   9
ENDBRANCH   1   8
BRANCH   4  16
ATOM     16  C   UNL     1       1.344   5.056  20.300  0.00  0.00    +0.000 C 
BRANCH  16  17
ATOM     17  C   UNL     1       1.991   6.398  20.689  0.00  0.00    +0.000 C 
BRANCH  17  18
ATOM     18  C   UNL     1       1.395   7.634  19.999  0.00  0.00    +0.000 C 
ATOM     19  C   UNL     1       2.227   8.089  18.780  0.00  0.00    +0.000 C 
ATOM     20  C   UNL     1       1.510   9.201  18.000  0.00  0.00    +0.000 C 
ATOM     21  C   UNL     1       1.055  10.284  18.927  0.00  0.00    +0.000 A 
ATOM     22  C   UNL     1       0.707  11.620  18.566  0.00  0.00    +0.000 A 
ATOM     23  C   UNL     1       0.329  12.368  19.661  0.00  0.00    +0.000 A 
ATOM     24  S   UNL     1       0.397  11.467  21.114  0.00  0.00    +0.000 S 
ATOM     25  C   UNL     1       0.906  10.072  20.286  0.00  0.00    +0.000 A 
ATOM     26  C   UNL     1       1.144   8.808  20.965  0.00  0.00    +0.000 C 
ATOM     27  O   UNL     1       1.082   8.644  22.182  0.00  0.00    +0.000 OA
ENDBRANCH  17  18
ENDBRANCH  16  17
ENDBRANCH   4  16
TORSDOF 5
ENDMDL
MODEL 2
REMARK VINA RESULT:      -8.1      4.840      7.221
REMARK  Name = 
REMARK  5 active torsions:
REMARK  status: ('A' for Active; 'I' for Inactive)
REMARK    1  A    between atoms: C_2  and  C_3
REMARK    2  A    between atoms: C_2  and  C_10
REMARK    3  A    between atoms: N_13  and  C_14
REMARK    4  A    between atoms: C_14  and  C_15
REMARK    5  A    between atoms: C_15  and  C_16
REMARK                            x       y       z     vdW  Elec       q    Type
REMARK                         _______ _______ _______ _____ _____    ______ ____
ROOT
ATOM      1  C   UNL     1       5.067   5.473  16.113  0.00  0.00    +0.000 C 
ATOM      2  C   UNL     1       6.518   5.461  15.610  0.00  0.00    +0.000 C 
ATOM      3  C   UNL     1       7.535   6.120  16.537  0.00  0.00    +0.000 C 
ATOM      4  N   UNL     1       7.046   7.420  17.000  0.00  0.00    +0.000 NA
ATOM      5  C   UNL     1       5.871   7.190  17.855  0.00  0.00    +0.000 C 
ATOM      6  C   UNL     1       4.715   6.666  17.011  0.00  0.00    +0.000 C 
ENDROOT
BRANCH   1   8
ATOM      7  O   UNL     1       5.234   3.067  16.357  0.00  0.00    +0.000 OA
ATOM      8  C   UNL     1       4.707   4.116  16.722  0.00  0.00    +0.000 C 
BRANCH   8   9
ATOM      9  C   UNL     1       3.625   4.071  17.766  0.00  0.00    +0.000 A 
ATOM     10  C   UNL     1       3.886   4.295  19.131  0.00  0.00    +0.000 A 
ATOM     11  C   UNL     1       2.839   4.350  20.050  0.00  0.00    +0.000 A 
ATOM     12  C   UNL     1       1.533   4.173  19.616  0.00  0.00    +0.000 A 
ATOM     13  F   UNL     1       0.530   4.254  20.498  0.00  0.00    +0.000 F 
ATOM     14  C   UNL     1       1.255   3.919  18.277  0.00  0.00    +0.000 A 
ATOM     15  C   UNL     1       2.302   3.864  17.351  0.00  0.00    +0.000 A 
ENDBRANCH   8   9
ENDBRANCH   1   8
BRANCH   4  16
ATOM     16  C   UNL     1       8.067   8.190  17.733  0.00  0.00    +0.000 C 
BRANCH  16  17
ATOM     17  C   UNL     1       7.755   9.696  17.781  0.00  0.00    +0.000 C 
BRANCH  17  18
ATOM     18  C   UNL     1       8.946  10.599  18.134  0.00  0.00    +0.000 C 
ATOM     19  C   UNL     1       9.423  10.405  19.590  0.00  0.00    +0.000 C 
ATOM     20  C   UNL     1      10.725  11.173  19.857  0.00  0.00    +0.000 C 
ATOM     21  C   UNL     1      10.607  12.590  19.387  0.00  0.00    +0.000 A 
ATOM     22  C   UNL     1      11.425  13.688  19.786  0.00  0.00    +0.000 A 
ATOM     23  C   UNL     1      11.050  14.861  19.167  0.00  0.00    +0.000 A 
ATOM     24  S   UNL     1       9.719  14.641  18.114  0.00  0.00    +0.000 S 
ATOM     25  C   UNL     1       9.654  12.978  18.462  0.00  0.00    +0.000 A 
ATOM     26  C   UNL     1       8.690  12.088  17.831  0.00  0.00    +0.000 C 
ATOM     27  O   UNL     1       7.799  12.450  17.066  0.00  0.00    +0.000 OA
ENDBRANCH  17  18
ENDBRANCH  16  17
ENDBRANCH   4  16
TORSDOF 5
ENDMDL
MODEL 3
REMARK VINA RESULT:      -8.1      2.247      2.994
REMARK  Name = 
REMARK  5 active torsions:
REMARK  status: ('A' for Active; 'I' for Inactive)
REMARK    1  A    between atoms: C_2  and  C_3
REMARK    2  A    between atoms: C_2  and  C_10
REMARK    3  A    between atoms: N_13  and  C_14
REMARK    4  A    between atoms: C_14  and  C_15
REMARK    5  A    between atoms: C_15  and  C_16
REMARK                            x       y       z     vdW  Elec       q    Type
REMARK                         _______ _______ _______ _____ _____    ______ ____
ROOT
ATOM      1  C   UNL     1       3.142   4.450  18.305  0.00  0.00    +0.000 C 
ATOM      2  C   UNL     1       2.974   5.963  18.097  0.00  0.00    +0.000 C 
ATOM      3  C   UNL     1       2.684   6.767  19.360  0.00  0.00    +0.000 C 
ATOM      4  N   UNL     1       1.631   6.127  20.151  0.00  0.00    +0.000 NA
ATOM      5  C   UNL     1       2.147   4.842  20.648  0.00  0.00    +0.000 C 
ATOM      6  C   UNL     1       2.341   3.878  19.483  0.00  0.00    +0.000 C 
ENDROOT
BRANCH   1   8
ATOM      7  O   UNL     1       5.190   3.686  19.351  0.00  0.00    +0.000 OA
ATOM      8  C   UNL     1       4.626   4.080  18.332  0.00  0.00    +0.000 C 
BRANCH   8   9
ATOM      9  C   UNL     1       5.427   4.266  17.073  0.00  0.00    +0.000 A 
ATOM     10  C   UNL     1       4.890   4.015  15.796  0.00  0.00    +0.000 A 
ATOM     11  C   UNL     1       5.631   4.302  14.650  0.00  0.00    +0.000 A 
ATOM     12  C   UNL     1       6.909   4.828  14.772  0.00  0.00    +0.000 A 
ATOM     13  F   UNL     1       7.605   5.127  13.668  0.00  0.00    +0.000 F 
ATOM     14  C   UNL     1       7.471   5.054  16.023  0.00  0.00    +0.000 A 
ATOM     15  C   UNL     1       6.731   4.769  17.176  0.00  0.00    +0.000 A 
ENDBRANCH   8   9
ENDBRANCH   1   8
BRANCH   4  16
ATOM     16  C   UNL     1       1.168   6.960  21.274  0.00  0.00    +0.000 C 
BRANCH  16  17
ATOM     17  C   UNL     1       1.496   8.452  21.083  0.00  0.00    +0.000 C 
BRANCH  17  18
ATOM     18  C   UNL     1       0.282   9.364  20.856  0.00  0.00    +0.000 C 
ATOM     19  C   UNL     1       0.400  10.196  19.560  0.00  0.00    +0.000 C 
ATOM     20  C   UNL     1      -0.903  10.950  19.260  0.00  0.00    +0.000 C 
ATOM     21  C   UNL     1      -1.375  11.687  20.474  0.00  0.00    +0.000 A 
ATOM     22  C   UNL     1      -2.299  12.775  20.501  0.00  0.00    +0.000 A 
ATOM     23  C   UNL     1      -2.521  13.230  21.783  0.00  0.00    +0.000 A 
ATOM     24  S   UNL     1      -1.618  12.356  22.946  0.00  0.00    +0.000 S 
ATOM     25  C   UNL     1      -0.949  11.353  21.747  0.00  0.00    +0.000 A 
ATOM     26  C   UNL     1      -0.035  10.267  22.064  0.00  0.00    +0.000 C 
ATOM     27  O   UNL     1       0.398  10.021  23.188  0.00  0.00    +0.000 OA
ENDBRANCH  17  18
ENDBRANCH  16  17
ENDBRANCH   4  16
TORSDOF 5
ENDMDL
MODEL 4
REMARK VINA RESULT:      -8.0      1.441      2.002
REMARK  Name = 
REMARK  5 active torsions:
REMARK  status: ('A' for Active; 'I' for Inactive)
REMARK    1  A    between atoms: C_2  and  C_3
REMARK    2  A    between atoms: C_2  and  C_10
REMARK    3  A    between atoms: N_13  and  C_14
REMARK    4  A    between atoms: C_14  and  C_15
REMARK    5  A    between atoms: C_15  and  C_16
REMARK                            x       y       z     vdW  Elec       q    Type
REMARK                         _______ _______ _______ _____ _____    ______ ____
ROOT
ATOM      1  C   UNL     1       4.142   3.569  17.842  0.00  0.00    +0.000 C 
ATOM      2  C   UNL     1       2.816   4.157  17.335  0.00  0.00    +0.000 C 
ATOM      3  C   UNL     1       2.304   5.370  18.104  0.00  0.00    +0.000 C 
ATOM      4  N   UNL     1       2.369   5.133  19.547  0.00  0.00    +0.000 NA
ATOM      5  C   UNL     1       3.785   5.030  19.933  0.00  0.00    +0.000 C 
ATOM      6  C   UNL     1       4.389   3.760  19.345  0.00  0.00    +0.000 C 
ENDROOT
BRANCH   1   8
ATOM      7  O   UNL     1       5.581   3.507  15.892  0.00  0.00    +0.000 OA
ATOM      8  C   UNL     1       5.302   4.044  16.963  0.00  0.00    +0.000 C 
BRANCH   8   9
ATOM      9  C   UNL     1       6.159   5.172  17.467  0.00  0.00    +0.000 A 
ATOM     10  C   UNL     1       7.219   4.966  18.370  0.00  0.00    +0.000 A 
ATOM     11  C   UNL     1       8.056   6.023  18.729  0.00  0.00    +0.000 A 
ATOM     12  C   UNL     1       7.834   7.285  18.199  0.00  0.00    +0.000 A 
ATOM     13  F   UNL     1       8.656   8.289  18.526  0.00  0.00    +0.000 F 
ATOM     14  C   UNL     1       6.774   7.518  17.330  0.00  0.00    +0.000 A 
ATOM     15  C   UNL     1       5.932   6.461  16.966  0.00  0.00    +0.000 A 
ENDBRANCH   8   9
ENDBRANCH   1   8
BRANCH   4  16
ATOM     16  C   UNL     1       1.701   6.186  20.334  0.00  0.00    +0.000 C 
BRANCH  16  17
ATOM     17  C   UNL     1       2.068   7.603  19.860  0.00  0.00    +0.000 C 
BRANCH  17  18
ATOM     18  C   UNL     1       1.444   8.746  20.675  0.00  0.00    +0.000 C 
ATOM     19  C   UNL     1       0.694   8.238  21.927  0.00  0.00    +0.000 C 
ATOM     20  C   UNL     1       0.247   9.404  22.820  0.00  0.00    +0.000 C 
ATOM     21  C   UNL     1      -0.457  10.448  22.010  0.00  0.00    +0.000 A 
ATOM     22  C   UNL     1      -1.329  11.462  22.506  0.00  0.00    +0.000 A 
ATOM     23  C   UNL     1      -1.813  12.264  21.495  0.00  0.00    +0.000 A 
ATOM     24  S   UNL     1      -1.225  11.794  19.958  0.00  0.00    +0.000 S 
ATOM     25  C   UNL     1      -0.304  10.538  20.638  0.00  0.00    +0.000 A 
ATOM     26  C   UNL     1       0.547   9.674  19.834  0.00  0.00    +0.000 C 
ATOM     27  O   UNL     1       0.622   9.711  18.608  0.00  0.00    +0.000 OA
ENDBRANCH  17  18
ENDBRANCH  16  17
ENDBRANCH   4  16
TORSDOF 5
ENDMDL
MODEL 5
REMARK VINA RESULT:      -8.0      2.037      2.904
REMARK  Name = 
REMARK  5 active torsions:
REMARK  status: ('A' for Active; 'I' for Inactive)
REMARK    1  A    between atoms: C_2  and  C_3
REMARK    2  A    between atoms: C_2  and  C_10
REMARK    3  A    between atoms: N_13  and  C_14
REMARK    4  A    between atoms: C_14  and  C_15
REMARK    5  A    between atoms: C_15  and  C_16
REMARK                            x       y       z     vdW  Elec       q    Type
REMARK                         _______ _______ _______ _____ _____    ______ ____
ROOT
ATOM      1  C   UNL     1       2.034   3.185  18.666  0.00  0.00    +0.000 C 
ATOM      2  C   UNL     1       1.720   4.559  18.055  0.00  0.00    +0.000 C 
ATOM      3  C   UNL     1       2.047   5.757  18.941  0.00  0.00    +0.000 C 
ATOM      4  N   UNL     1       1.542   5.549  20.300  0.00  0.00    +0.000 NA
ATOM      5  C   UNL     1       2.292   4.435  20.903  0.00  0.00    +0.000 C 
ATOM      6  C   UNL     1       1.936   3.132  20.197  0.00  0.00    +0.000 C 
ENDROOT
BRANCH   1   8
ATOM      7  O   UNL     1       3.581   1.449  17.982  0.00  0.00    +0.000 OA
ATOM      8  C   UNL     1       3.359   2.651  18.116  0.00  0.00    +0.000 C 
BRANCH   8   9
ATOM      9  C   UNL     1       4.440   3.641  17.783  0.00  0.00    +0.000 A 
ATOM     10  C   UNL     1       5.297   4.178  18.763  0.00  0.00    +0.000 A 
ATOM     11  C   UNL     1       6.354   5.010  18.397  0.00  0.00    +0.000 A 
ATOM     12  C   UNL     1       6.554   5.319  17.060  0.00  0.00    +0.000 A 
ATOM     13  F   UNL     1       7.587   6.096  16.712  0.00  0.00    +0.000 F 
ATOM     14  C   UNL     1       5.702   4.826  16.078  0.00  0.00    +0.000 A 
ATOM     15  C   UNL     1       4.640   3.989  16.440  0.00  0.00    +0.000 A 
ENDBRANCH   8   9
ENDBRANCH   1   8
BRANCH   4  16
ATOM     16  C   UNL     1       1.649   6.752  21.144  0.00  0.00    +0.000 C 
BRANCH  16  17
ATOM     17  C   UNL     1       1.529   8.057  20.336  0.00  0.00    +0.000 C 
BRANCH  17  18
ATOM     18  C   UNL     1       0.900   9.237  21.092  0.00  0.00    +0.000 C 
ATOM     19  C   UNL     1       0.024   8.780  22.278  0.00  0.00    +0.000 C 
ATOM     20  C   UNL     1      -0.434   9.975  23.127  0.00  0.00    +0.000 C 
ATOM     21  C   UNL     1      -1.012  11.047  22.257  0.00  0.00    +0.000 A 
ATOM     22  C   UNL     1      -1.868  12.109  22.674  0.00  0.00    +0.000 A 
ATOM     23  C   UNL     1      -2.224  12.927  21.623  0.00  0.00    +0.000 A 
ATOM     24  S   UNL     1      -1.536  12.414  20.142  0.00  0.00    +0.000 S 
ATOM     25  C   UNL     1      -0.742  11.117  20.902  0.00  0.00    +0.000 A 
ATOM     26  C   UNL     1       0.126  10.203  20.175  0.00  0.00    +0.000 C 
ATOM     27  O   UNL     1       0.305  10.226  18.959  0.00  0.00    +0.000 OA
ENDBRANCH  17  18
ENDBRANCH  16  17
ENDBRANCH   4  16
TORSDOF 5
ENDMDL
MODEL 6
REMARK VINA RESULT:      -7.9      1.769      2.607
REMARK  Name = 
REMARK  5 active torsions:
REMARK  status: ('A' for Active; 'I' for Inactive)
REMARK    1  A    between atoms: C_2  and  C_3
REMARK    2  A    between atoms: C_2  and  C_10
REMARK    3  A    between atoms: N_13  and  C_14
REMARK    4  A    between atoms: C_14  and  C_15
REMARK    5  A    between atoms: C_15  and  C_16
REMARK                            x       y       z     vdW  Elec       q    Type
REMARK                         _______ _______ _______ _____ _____    ______ ____
ROOT
ATOM      1  C   UNL     1       2.067   3.814  18.588  0.00  0.00    +0.000 C 
ATOM      2  C   UNL     1       1.938   5.134  17.812  0.00  0.00    +0.000 C 
ATOM      3  C   UNL     1       2.328   6.387  18.589  0.00  0.00    +0.000 C 
ATOM      4  N   UNL     1       1.714   6.383  19.919  0.00  0.00    +0.000 NA
ATOM      5  C   UNL     1       2.302   5.278  20.692  0.00  0.00    +0.000 C 
ATOM      6  C   UNL     1       1.861   3.944  20.103  0.00  0.00    +0.000 C 
ENDROOT
BRANCH   1   8
ATOM      7  O   UNL     1       3.474   1.873  18.233  0.00  0.00    +0.000 OA
ATOM      8  C   UNL     1       3.362   3.096  18.201  0.00  0.00    +0.000 C 
BRANCH   8   9
ATOM      9  C   UNL     1       4.553   3.935  17.825  0.00  0.00    +0.000 A 
ATOM     10  C   UNL     1       4.839   4.282  16.492  0.00  0.00    +0.000 A 
ATOM     11  C   UNL     1       5.891   5.149  16.198  0.00  0.00    +0.000 A 
ATOM     12  C   UNL     1       6.666   5.662  17.227  0.00  0.00    +0.000 A 
ATOM     13  F   UNL     1       7.657   6.515  16.941  0.00  0.00    +0.000 F 
ATOM     14  C   UNL     1       6.421   5.308  18.549  0.00  0.00    +0.000 A 
ATOM     15  C   UNL     1       5.366   4.440  18.849  0.00  0.00    +0.000 A 
ENDBRANCH   8   9
ENDBRANCH   1   8
BRANCH   4  16
ATOM     16  C   UNL     1       1.889   7.658  20.637  0.00  0.00    +0.000 C 
BRANCH  16  17
ATOM     17  C   UNL     1       0.702   7.988  21.560  0.00  0.00    +0.000 C 
BRANCH  17  18
ATOM     18  C   UNL     1      -0.143   9.196  21.130  0.00  0.00    +0.000 C 
ATOM     19  C   UNL     1       0.297   9.771  19.766  0.00  0.00    +0.000 C 
ATOM     20  C   UNL     1      -0.679  10.848  19.274  0.00  0.00    +0.000 C 
ATOM     21  C   UNL     1      -0.946  11.850  20.354  0.00  0.00    +0.000 A 
ATOM     22  C   UNL     1      -1.472  13.165  20.182  0.00  0.00    +0.000 A 
ATOM     23  C   UNL     1      -1.596  13.831  21.382  0.00  0.00    +0.000 A 
ATOM     24  S   UNL     1      -1.077  12.880  22.707  0.00  0.00    +0.000 S 
ATOM     25  C   UNL     1      -0.710  11.570  21.689  0.00  0.00    +0.000 A 
ATOM     26  C   UNL     1      -0.209  10.303  22.200  0.00  0.00    +0.000 C 
ATOM     27  O   UNL     1       0.068  10.084  23.377  0.00  0.00    +0.000 OA
ENDBRANCH  17  18
ENDBRANCH  16  17
ENDBRANCH   4  16
TORSDOF 5
ENDMDL
MODEL 7
REMARK VINA RESULT:      -7.9      4.775      7.054
REMARK  Name = 
REMARK  5 active torsions:
REMARK  status: ('A' for Active; 'I' for Inactive)
REMARK    1  A    between atoms: C_2  and  C_3
REMARK    2  A    between atoms: C_2  and  C_10
REMARK    3  A    between atoms: N_13  and  C_14
REMARK    4  A    between atoms: C_14  and  C_15
REMARK    5  A    between atoms: C_15  and  C_16
REMARK                            x       y       z     vdW  Elec       q    Type
REMARK                         _______ _______ _______ _____ _____    ______ ____
ROOT
ATOM      1  C   UNL     1       6.174   4.934  16.682  0.00  0.00    +0.000 C 
ATOM      2  C   UNL     1       7.325   4.679  17.667  0.00  0.00    +0.000 C 
ATOM      3  C   UNL     1       7.690   5.857  18.564  0.00  0.00    +0.000 C 
ATOM      4  N   UNL     1       7.802   7.088  17.780  0.00  0.00    +0.000 NA
ATOM      5  C   UNL     1       6.468   7.426  17.261  0.00  0.00    +0.000 C 
ATOM      6  C   UNL     1       6.041   6.393  16.225  0.00  0.00    +0.000 C 
ENDROOT
BRANCH   1   8
ATOM      7  O   UNL     1       4.475   3.220  16.898  0.00  0.00    +0.000 OA
ATOM      8  C   UNL     1       4.872   4.337  17.222  0.00  0.00    +0.000 C 
BRANCH   8   9
ATOM      9  C   UNL     1       4.029   5.182  18.136  0.00  0.00    +0.000 A 
ATOM     10  C   UNL     1       3.409   6.370  17.706  0.00  0.00    +0.000 A 
ATOM     11  C   UNL     1       2.550   7.066  18.555  0.00  0.00    +0.000 A 
ATOM     12  C   UNL     1       2.314   6.589  19.836  0.00  0.00    +0.000 A 
ATOM     13  F   UNL     1       1.467   7.246  20.637  0.00  0.00    +0.000 F 
ATOM     14  C   UNL     1       2.940   5.434  20.293  0.00  0.00    +0.000 A 
ATOM     15  C   UNL     1       3.803   4.732  19.445  0.00  0.00    +0.000 A 
ENDBRANCH   8   9
ENDBRANCH   1   8
BRANCH   4  16
ATOM     16  C   UNL     1       8.348   8.216  18.556  0.00  0.00    +0.000 C 
BRANCH  16  17
ATOM     17  C   UNL     1       8.169   9.569  17.844  0.00  0.00    +0.000 C 
BRANCH  17  18
ATOM     18  C   UNL     1       9.168  10.661  18.255  0.00  0.00    +0.000 C 
ATOM     19  C   UNL     1       9.576  10.559  19.741  0.00  0.00    +0.000 C 
ATOM     20  C   UNL     1      10.713  11.535  20.075  0.00  0.00    +0.000 C 
ATOM     21  C   UNL     1      10.391  12.909  19.574  0.00  0.00    +0.000 A 
ATOM     22  C   UNL     1      10.988  14.131  20.005  0.00  0.00    +0.000 A 
ATOM     23  C   UNL     1      10.465  15.221  19.342  0.00  0.00    +0.000 A 
ATOM     24  S   UNL     1       9.259  14.774  18.212  0.00  0.00    +0.000 S 
ATOM     25  C   UNL     1       9.449  13.126  18.585  0.00  0.00    +0.000 A 
ATOM     26  C   UNL     1       8.689  12.084  17.911  0.00  0.00    +0.000 C 
ATOM     27  O   UNL     1       7.802  12.287  17.086  0.00  0.00    +0.000 OA
ENDBRANCH  17  18
ENDBRANCH  16  17
ENDBRANCH   4  16
TORSDOF 5
ENDMDL
MODEL 8
REMARK VINA RESULT:      -7.9      1.930      2.701
REMARK  Name = 
REMARK  5 active torsions:
REMARK  status: ('A' for Active; 'I' for Inactive)
REMARK    1  A    between atoms: C_2  and  C_3
REMARK    2  A    between atoms: C_2  and  C_10
REMARK    3  A    between atoms: N_13  and  C_14
REMARK    4  A    between atoms: C_14  and  C_15
REMARK    5  A    between atoms: C_15  and  C_16
REMARK                            x       y       z     vdW  Elec       q    Type
REMARK                         _______ _______ _______ _____ _____    ______ ____
ROOT
ATOM      1  C   UNL     1       2.157   3.523  18.873  0.00  0.00    +0.000 C 
ATOM      2  C   UNL     1       1.794   4.632  17.873  0.00  0.00    +0.000 C 
ATOM      3  C   UNL     1       2.171   6.046  18.302  0.00  0.00    +0.000 C 
ATOM      4  N   UNL     1       1.759   6.295  19.684  0.00  0.00    +0.000 NA
ATOM      5  C   UNL     1       2.555   5.424  20.564  0.00  0.00    +0.000 C 
ATOM      6  C   UNL     1       2.162   3.969  20.342  0.00  0.00    +0.000 C 
ENDROOT
BRANCH   1   8
ATOM      7  O   UNL     1       3.625   1.614  18.598  0.00  0.00    +0.000 OA
ATOM      8  C   UNL     1       3.446   2.820  18.439  0.00  0.00    +0.000 C 
BRANCH   8   9
ATOM      9  C   UNL     1       4.548   3.657  17.851  0.00  0.00    +0.000 A 
ATOM     10  C   UNL     1       5.445   4.390  18.650  0.00  0.00    +0.000 A 
ATOM     11  C   UNL     1       6.517   5.067  18.069  0.00  0.00    +0.000 A 
ATOM     12  C   UNL     1       6.692   5.025  16.694  0.00  0.00    +0.000 A 
ATOM     13  F   UNL     1       7.738   5.654  16.145  0.00  0.00    +0.000 F 
ATOM     14  C   UNL     1       5.800   4.333  15.882  0.00  0.00    +0.000 A 
ATOM     15  C   UNL     1       4.723   3.652  16.460  0.00  0.00    +0.000 A 
ENDBRANCH   8   9
ENDBRANCH   1   8
BRANCH   4  16
ATOM     16  C   UNL     1       1.914   7.705  20.086  0.00  0.00    +0.000 C 
BRANCH  16  17
ATOM     17  C   UNL     1       1.049   8.074  21.304  0.00  0.00    +0.000 C 
BRANCH  17  18
ATOM     18  C   UNL     1      -0.005   9.162  21.051  0.00  0.00    +0.000 C 
ATOM     19  C   UNL     1       0.183   9.861  19.687  0.00  0.00    +0.000 C 
ATOM     20  C   UNL     1      -0.988  10.803  19.377  0.00  0.00    +0.000 C 
ATOM     21  C   UNL     1      -1.265  11.700  20.543  0.00  0.00    +0.000 A 
ATOM     22  C   UNL     1      -1.990  12.929  20.516  0.00  0.00    +0.000 A 
ATOM     23  C   UNL     1      -2.063  13.511  21.764  0.00  0.00    +0.000 A 
ATOM     24  S   UNL     1      -1.260  12.585  22.958  0.00  0.00    +0.000 S 
ATOM     25  C   UNL     1      -0.833  11.394  21.822  0.00  0.00    +0.000 A 
ATOM     26  C   UNL     1      -0.100  10.194  22.191  0.00  0.00    +0.000 C 
ATOM     27  O   UNL     1       0.344   9.962  23.313  0.00  0.00    +0.000 OA
ENDBRANCH  17  18
ENDBRANCH  16  17
ENDBRANCH   4  16
TORSDOF 5
ENDMDL
MODEL 9
REMARK VINA RESULT:      -7.8      5.015      7.404
REMARK  Name = 
REMARK  5 active torsions:
REMARK  status: ('A' for Active; 'I' for Inactive)
REMARK    1  A    between atoms: C_2  and  C_3
REMARK    2  A    between atoms: C_2  and  C_10
REMARK    3  A    between atoms: N_13  and  C_14
REMARK    4  A    between atoms: C_14  and  C_15
REMARK    5  A    between atoms: C_15  and  C_16
REMARK                            x       y       z     vdW  Elec       q    Type
REMARK                         _______ _______ _______ _____ _____    ______ ____
ROOT
ATOM      1  C   UNL     1       5.150   5.517  17.199  0.00  0.00    +0.000 C 
ATOM      2  C   UNL     1       6.041   5.167  18.401  0.00  0.00    +0.000 C 
ATOM      3  C   UNL     1       6.864   6.322  18.961  0.00  0.00    +0.000 C 
ATOM      4  N   UNL     1       7.532   7.052  17.882  0.00  0.00    +0.000 NA
ATOM      5  C   UNL     1       6.500   7.706  17.061  0.00  0.00    +0.000 C 
ATOM      6  C   UNL     1       5.689   6.652  16.317  0.00  0.00    +0.000 C 
ENDROOT
BRANCH   1   8
ATOM      7  O   UNL     1       3.213   6.843  17.802  0.00  0.00    +0.000 OA
ATOM      8  C   UNL     1       3.704   5.726  17.654  0.00  0.00    +0.000 C 
BRANCH   8   9
ATOM      9  C   UNL     1       2.882   4.511  17.985  0.00  0.00    +0.000 A 
ATOM     10  C   UNL     1       3.148   3.246  17.426  0.00  0.00    +0.000 A 
ATOM     11  C   UNL     1       2.429   2.126  17.841  0.00  0.00    +0.000 A 
ATOM     12  C   UNL     1       1.440   2.261  18.803  0.00  0.00    +0.000 A 
ATOM     13  F   UNL     1       0.772   1.178  19.217  0.00  0.00    +0.000 F 
ATOM     14  C   UNL     1       1.139   3.505  19.347  0.00  0.00    +0.000 A 
ATOM     15  C   UNL     1       1.857   4.633  18.934  0.00  0.00    +0.000 A 
ENDBRANCH   8   9
ENDBRANCH   1   8
BRANCH   4  16
ATOM     16  C   UNL     1       8.499   8.049  18.375  0.00  0.00    +0.000 C 
BRANCH  16  17
ATOM     17  C   UNL     1       8.187   9.474  17.882  0.00  0.00    +0.000 C 
BRANCH  17  18
ATOM     18  C   UNL     1       9.173  10.556  18.347  0.00  0.00    +0.000 C 
ATOM     19  C   UNL     1       9.482  10.465  19.857  0.00  0.00    +0.000 C 
ATOM     20  C   UNL     1      10.609  11.429  20.255  0.00  0.00    +0.000 C 
ATOM     21  C   UNL     1      10.340  12.801  19.720  0.00  0.00    +0.000 A 
ATOM     22  C   UNL     1      10.925  14.020  20.176  0.00  0.00    +0.000 A 
ATOM     23  C   UNL     1      10.462  15.110  19.470  0.00  0.00    +0.000 A 
ATOM     24  S   UNL     1       9.327  14.667  18.268  0.00  0.00    +0.000 S 
ATOM     25  C   UNL     1       9.468  13.021  18.668  0.00  0.00    +0.000 A 
ATOM     26  C   UNL     1       8.739  11.982  17.957  0.00  0.00    +0.000 C 
ATOM     27  O   UNL     1       7.910  12.188  17.073  0.00  0.00    +0.000 OA
ENDBRANCH  17  18
ENDBRANCH  16  17
ENDBRANCH   4  16
TORSDOF 5
ENDMDL
