MODEL 1
REMARK VINA RESULT:      -8.6      0.000      0.000
REMARK  Name = 
REMARK  8 active torsions:
REMARK  status: ('A' for Active; 'I' for Inactive)
REMARK    1  A    between atoms: C_1  and  C_2
REMARK    2  A    between atoms: C_2  and  C_3
REMARK    3  A    between atoms: N_5  and  C_6
REMARK    4  A    between atoms: N_5  and  S_27
REMARK    5  A    between atoms: C_9  and  C_10
REMARK    6  A    between atoms: C_12  and  C_13
REMARK    7  A    between atoms: N_17  and  C_18
REMARK    8  A    between atoms: S_27  and  C_28
REMARK                            x       y       z     vdW  Elec       q    Type
REMARK                         _______ _______ _______ _____ _____    ______ ____
ROOT
ATOM      1  C   UNL     1       1.251   9.171  19.450  0.00  0.00    +0.000 A 
ATOM      2  C   UNL     1       1.846   9.511  18.235  0.00  0.00    +0.000 A 
ATOM      3  C   UNL     1       2.697   8.597  17.589  0.00  0.00    +0.000 A 
ATOM      4  C   UNL     1       2.985   7.350  18.159  0.00  0.00    +0.000 A 
ATOM      5  C   UNL     1       2.445   7.078  19.430  0.00  0.00    +0.000 A 
ATOM      6  C   UNL     1       1.541   7.948  20.043  0.00  0.00    +0.000 A 
ENDROOT
BRANCH   4   7
ATOM      7  C   UNL     1       3.833   6.366  17.451  0.00  0.00    +0.000 A 
ATOM      8  C   UNL     1       4.656   6.564  16.358  0.00  0.00    +0.000 A 
ATOM      9  C   UNL     1       5.402   5.373  16.189  0.00  0.00    +0.000 A 
ATOM     10  N   UNL     1       5.085   4.476  17.134  0.00  0.00    +0.000 NA
ATOM     11  N   UNL     1       4.024   5.017  17.793  0.00  0.00    +0.000 N 
BRANCH  11  12
ATOM     12  C   UNL     1       3.308   4.210  18.723  0.00  0.00    +0.000 A 
ATOM     13  C   UNL     1       3.989   3.668  19.824  0.00  0.00    +0.000 A 
ATOM     14  C   UNL     1       3.270   3.030  20.839  0.00  0.00    +0.000 A 
ATOM     15  C   UNL     1       1.884   2.904  20.738  0.00  0.00    +0.000 A 
ATOM     16 CL   UNL     1       0.994   2.177  22.017  0.00  0.00    +0.000 Cl
ATOM     17  C   UNL     1       1.212   3.375  19.611  0.00  0.00    +0.000 A 
ATOM     18  C   UNL     1       1.927   4.007  18.592  0.00  0.00    +0.000 A 
ENDBRANCH  11  12
BRANCH   9  19
ATOM     19  C   UNL     1       6.445   5.097  15.152  0.00  0.00    +0.000 C 
ATOM     20  F   UNL     1       7.463   4.353  15.671  0.00  0.00    +0.000 F 
ATOM     21  F   UNL     1       5.933   4.360  14.125  0.00  0.00    +0.000 F 
ENDBRANCH   9  19
ENDBRANCH   4   7
BRANCH   1  24
ATOM     22  C   UNL     1      -0.848  10.475  19.426  0.00  0.00    +0.000 C 
ATOM     23  O   UNL     1      -1.647  11.227  19.975  0.00  0.00    +0.000 OA
ATOM     24  N   UNL     1       0.336  10.057  20.092  0.00  0.00    +0.000 N 
BRANCH  24  25
ATOM     25  S   UNL     1       0.669  10.465  21.697  0.00  0.00    +0.000 S 
ATOM     26  C   UNL     1      -0.587   9.548  22.578  0.00  0.00    +0.000 C 
ATOM     27  O   UNL     1       1.970   9.936  22.057  0.00  0.00    +0.000 OA
ATOM     28  O   UNL     1       0.370  11.868  21.907  0.00  0.00    +0.000 OA
ENDBRANCH  24  25
BRANCH  22  30
ATOM     29  C   UNL     1      -2.552   9.976  17.642  0.00  0.00    +0.000 C 
ATOM     30  C   UNL     1      -1.069  10.031  17.987  0.00  0.00    +0.000 C 
ENDBRANCH  22  30
ENDBRANCH   1  24
TORSDOF 6
ENDMDL
MODEL 2
REMARK VINA RESULT:      -8.2      0.955      1.244
REMARK  Name = 
REMARK  8 active torsions:
REMARK  status: ('A' for Active; 'I' for Inactive)
REMARK    1  A    between atoms: C_1  and  C_2
REMARK    2  A    between atoms: C_2  and  C_3
REMARK    3  A    between atoms: N_5  and  C_6
REMARK    4  A    between atoms: N_5  and  S_27
REMARK    5  A    between atoms: C_9  and  C_10
REMARK    6  A    between atoms: C_12  and  C_13
REMARK    7  A    between atoms: N_17  and  C_18
REMARK    8  A    between atoms: S_27  and  C_28
REMARK                            x       y       z     vdW  Elec       q    Type
REMARK                         _______ _______ _______ _____ _____    ______ ____
ROOT
ATOM      1  C   UNL     1       0.831   9.834  19.187  0.00  0.00    +0.000 A 
ATOM      2  C   UNL     1       1.495  10.012  17.973  0.00  0.00    +0.000 A 
ATOM      3  C   UNL     1       2.384   9.027  17.508  0.00  0.00    +0.000 A 
ATOM      4  C   UNL     1       2.641   7.872  18.258  0.00  0.00    +0.000 A 
ATOM      5  C   UNL     1       2.029   7.770  19.522  0.00  0.00    +0.000 A 
ATOM      6  C   UNL     1       1.089   8.706  19.957  0.00  0.00    +0.000 A 
ENDROOT
BRANCH   4   7
ATOM      7  C   UNL     1       3.531   6.810  17.741  0.00  0.00    +0.000 A 
ATOM      8  C   UNL     1       4.434   6.872  16.695  0.00  0.00    +0.000 A 
ATOM      9  C   UNL     1       5.180   5.670  16.730  0.00  0.00    +0.000 A 
ATOM     10  N   UNL     1       4.788   4.896  17.751  0.00  0.00    +0.000 NA
ATOM     11  N   UNL     1       3.685   5.513  18.259  0.00  0.00    +0.000 N 
BRANCH  11  12
ATOM     12  C   UNL     1       2.897   4.825  19.226  0.00  0.00    +0.000 A 
ATOM     13  C   UNL     1       1.877   3.966  18.791  0.00  0.00    +0.000 A 
ATOM     14  C   UNL     1       1.218   3.148  19.713  0.00  0.00    +0.000 A 
ATOM     15  C   UNL     1       1.554   3.213  21.066  0.00  0.00    +0.000 A 
ATOM     16 CL   UNL     1       0.789   2.159  22.190  0.00  0.00    +0.000 Cl
ATOM     17  C   UNL     1       2.514   4.118  21.513  0.00  0.00    +0.000 A 
ATOM     18  C   UNL     1       3.170   4.942  20.596  0.00  0.00    +0.000 A 
ENDBRANCH  11  12
BRANCH   9  19
ATOM     19  C   UNL     1       6.294   5.270  15.814  0.00  0.00    +0.000 C 
ATOM     20  F   UNL     1       7.036   4.264  16.361  0.00  0.00    +0.000 F 
ATOM     21  F   UNL     1       5.811   4.778  14.638  0.00  0.00    +0.000 F 
ENDBRANCH   9  19
ENDBRANCH   4   7
BRANCH   1  24
ATOM     22  C   UNL     1      -1.432  10.823  19.099  0.00  0.00    +0.000 C 
ATOM     23  O   UNL     1      -2.262  11.632  19.498  0.00  0.00    +0.000 OA
ATOM     24  N   UNL     1      -0.121  10.790  19.649  0.00  0.00    +0.000 N 
BRANCH  24  25
ATOM     25  S   UNL     1       0.346  11.768  20.944  0.00  0.00    +0.000 S 
ATOM     26  C   UNL     1      -0.490  10.987  22.316  0.00  0.00    +0.000 C 
ATOM     27  O   UNL     1       1.777  11.641  21.136  0.00  0.00    +0.000 OA
ATOM     28  O   UNL     1      -0.255  13.079  20.795  0.00  0.00    +0.000 OA
ENDBRANCH  24  25
BRANCH  22  30
ATOM     29  C   UNL     1      -3.060  10.281  17.257  0.00  0.00    +0.000 C 
ATOM     30  C   UNL     1      -1.764   9.880  17.950  0.00  0.00    +0.000 C 
ENDBRANCH  22  30
ENDBRANCH   1  24
TORSDOF 6
ENDMDL
MODEL 3
REMARK VINA RESULT:      -8.1      3.519      4.619
REMARK  Name = 
REMARK  8 active torsions:
REMARK  status: ('A' for Active; 'I' for Inactive)
REMARK    1  A    between atoms: C_1  and  C_2
REMARK    2  A    between atoms: C_2  and  C_3
REMARK    3  A    between atoms: N_5  and  C_6
REMARK    4  A    between atoms: N_5  and  S_27
REMARK    5  A    between atoms: C_9  and  C_10
REMARK    6  A    between atoms: C_12  and  C_13
REMARK    7  A    between atoms: N_17  and  C_18
REMARK    8  A    between atoms: S_27  and  C_28
REMARK                            x       y       z     vdW  Elec       q    Type
REMARK                         _______ _______ _______ _____ _____    ______ ____
ROOT
ATOM      1  C   UNL     1       1.037   9.930  18.975  0.00  0.00    +0.000 A 
ATOM      2  C   UNL     1       1.552   9.097  17.981  0.00  0.00    +0.000 A 
ATOM      3  C   UNL     1       1.956   7.789  18.300  0.00  0.00    +0.000 A 
ATOM      4  C   UNL     1       1.879   7.309  19.613  0.00  0.00    +0.000 A 
ATOM      5  C   UNL     1       1.446   8.205  20.608  0.00  0.00    +0.000 A 
ATOM      6  C   UNL     1       0.973   9.480  20.288  0.00  0.00    +0.000 A 
ENDROOT
BRANCH   4   7
ATOM      7  C   UNL     1       2.250   5.914  19.938  0.00  0.00    +0.000 A 
ATOM      8  C   UNL     1       1.655   5.049  20.838  0.00  0.00    +0.000 A 
ATOM      9  C   UNL     1       2.243   3.778  20.632  0.00  0.00    +0.000 A 
ATOM     10  N   UNL     1       3.147   3.828  19.644  0.00  0.00    +0.000 NA
ATOM     11  N   UNL     1       3.265   5.150  19.339  0.00  0.00    +0.000 N 
BRANCH  11  12
ATOM     12  C   UNL     1       4.314   5.564  18.468  0.00  0.00    +0.000 A 
ATOM     13  C   UNL     1       5.614   5.698  18.979  0.00  0.00    +0.000 A 
ATOM     14  C   UNL     1       6.682   5.924  18.106  0.00  0.00    +0.000 A 
ATOM     15  C   UNL     1       6.449   6.047  16.737  0.00  0.00    +0.000 A 
ATOM     16 CL   UNL     1       7.772   6.259  15.658  0.00  0.00    +0.000 Cl
ATOM     17  C   UNL     1       5.151   5.989  16.233  0.00  0.00    +0.000 A 
ATOM     18  C   UNL     1       4.080   5.770  17.101  0.00  0.00    +0.000 A 
ENDBRANCH  11  12
BRANCH   9  19
ATOM     19  C   UNL     1       1.922   2.505  21.349  0.00  0.00    +0.000 C 
ATOM     20  F   UNL     1       3.000   2.059  22.056  0.00  0.00    +0.000 F 
ATOM     21  F   UNL     1       0.930   2.694  22.266  0.00  0.00    +0.000 F 
ENDBRANCH   9  19
ENDBRANCH   4   7
BRANCH   1  24
ATOM     22  C   UNL     1      -0.819  11.464  18.421  0.00  0.00    +0.000 C 
ATOM     23  O   UNL     1      -1.238  12.587  18.164  0.00  0.00    +0.000 OA
ATOM     24  N   UNL     1       0.563  11.238  18.663  0.00  0.00    +0.000 N 
BRANCH  24  25
ATOM     25  S   UNL     1       1.692  12.493  18.726  0.00  0.00    +0.000 S 
ATOM     26  C   UNL     1       1.940  12.677  20.486  0.00  0.00    +0.000 C 
ATOM     27  O   UNL     1       2.931  12.042  18.125  0.00  0.00    +0.000 OA
ATOM     28  O   UNL     1       1.068  13.721  18.274  0.00  0.00    +0.000 OA
ENDBRANCH  24  25
BRANCH  22  30
ATOM     29  C   UNL     1      -2.194   9.910  16.995  0.00  0.00    +0.000 C 
ATOM     30  C   UNL     1      -1.761  10.268  18.411  0.00  0.00    +0.000 C 
ENDBRANCH  22  30
ENDBRANCH   1  24
TORSDOF 6
ENDMDL
MODEL 4
REMARK VINA RESULT:      -8.1      3.493      4.680
REMARK  Name = 
REMARK  8 active torsions:
REMARK  status: ('A' for Active; 'I' for Inactive)
REMARK    1  A    between atoms: C_1  and  C_2
REMARK    2  A    between atoms: C_2  and  C_3
REMARK    3  A    between atoms: N_5  and  C_6
REMARK    4  A    between atoms: N_5  and  S_27
REMARK    5  A    between atoms: C_9  and  C_10
REMARK    6  A    between atoms: C_12  and  C_13
REMARK    7  A    between atoms: N_17  and  C_18
REMARK    8  A    between atoms: S_27  and  C_28
REMARK                            x       y       z     vdW  Elec       q    Type
REMARK                         _______ _______ _______ _____ _____    ______ ____
ROOT
ATOM      1  C   UNL     1       1.099  10.047  18.940  0.00  0.00    +0.000 A 
ATOM      2  C   UNL     1       1.542   9.198  17.926  0.00  0.00    +0.000 A 
ATOM      3  C   UNL     1       1.903   7.873  18.227  0.00  0.00    +0.000 A 
ATOM      4  C   UNL     1       1.855   7.392  19.542  0.00  0.00    +0.000 A 
ATOM      5  C   UNL     1       1.496   8.302  20.554  0.00  0.00    +0.000 A 
ATOM      6  C   UNL     1       1.065   9.596  20.253  0.00  0.00    +0.000 A 
ENDROOT
BRANCH   4   7
ATOM      7  C   UNL     1       2.179   5.981  19.849  0.00  0.00    +0.000 A 
ATOM      8  C   UNL     1       1.446   5.067  20.584  0.00  0.00    +0.000 A 
ATOM      9  C   UNL     1       2.075   3.811  20.415  0.00  0.00    +0.000 A 
ATOM     10  N   UNL     1       3.137   3.916  19.604  0.00  0.00    +0.000 NA
ATOM     11  N   UNL     1       3.291   5.253  19.396  0.00  0.00    +0.000 N 
BRANCH  11  12
ATOM     12  C   UNL     1       4.471   5.716  18.745  0.00  0.00    +0.000 A 
ATOM     13  C   UNL     1       4.351   6.494  17.584  0.00  0.00    +0.000 A 
ATOM     14  C   UNL     1       5.483   7.106  17.039  0.00  0.00    +0.000 A 
ATOM     15  C   UNL     1       6.732   6.914  17.631  0.00  0.00    +0.000 A 
ATOM     16 CL   UNL     1       8.113   7.721  16.998  0.00  0.00    +0.000 Cl
ATOM     17  C   UNL     1       6.867   6.082  18.740  0.00  0.00    +0.000 A 
ATOM     18  C   UNL     1       5.740   5.463  19.284  0.00  0.00    +0.000 A 
ENDBRANCH  11  12
BRANCH   9  19
ATOM     19  C   UNL     1       1.648   2.499  20.995  0.00  0.00    +0.000 C 
ATOM     20  F   UNL     1       1.698   1.512  20.055  0.00  0.00    +0.000 F 
ATOM     21  F   UNL     1       2.490   2.105  21.992  0.00  0.00    +0.000 F 
ENDBRANCH   9  19
ENDBRANCH   4   7
BRANCH   1  24
ATOM     22  C   UNL     1      -0.712  11.660  18.463  0.00  0.00    +0.000 C 
ATOM     23  O   UNL     1      -1.092  12.801  18.224  0.00  0.00    +0.000 OA
ATOM     24  N   UNL     1       0.669  11.376  18.648  0.00  0.00    +0.000 N 
BRANCH  24  25
ATOM     25  S   UNL     1       1.851  12.581  18.665  0.00  0.00    +0.000 S 
ATOM     26  C   UNL     1       2.121  12.808  20.416  0.00  0.00    +0.000 C 
ATOM     27  O   UNL     1       3.065  12.058  18.071  0.00  0.00    +0.000 OA
ATOM     28  O   UNL     1       1.278  13.821  18.178  0.00  0.00    +0.000 OA
ENDBRANCH  24  25
BRANCH  22  30
ATOM     29  C   UNL     1      -2.052  10.034  17.086  0.00  0.00    +0.000 C 
ATOM     30  C   UNL     1      -1.703  10.505  18.492  0.00  0.00    +0.000 C 
ENDBRANCH  22  30
ENDBRANCH   1  24
TORSDOF 6
ENDMDL
MODEL 5
REMARK VINA RESULT:      -8.0      1.217      1.900
REMARK  Name = 
REMARK  8 active torsions:
REMARK  status: ('A' for Active; 'I' for Inactive)
REMARK    1  A    between atoms: C_1  and  C_2
REMARK    2  A    between atoms: C_2  and  C_3
REMARK    3  A    between atoms: N_5  and  C_6
REMARK    4  A    between atoms: N_5  and  S_27
REMARK    5  A    between atoms: C_9  and  C_10
REMARK    6  A    between atoms: C_12  and  C_13
REMARK    7  A    between atoms: N_17  and  C_18
REMARK    8  A    between atoms: S_27  and  C_28
REMARK                            x       y       z     vdW  Elec       q    Type
REMARK                         _______ _______ _______ _____ _____    ______ ____
ROOT
ATOM      1  C   UNL     1       0.738   9.980  19.329  0.00  0.00    +0.000 A 
ATOM      2  C   UNL     1       1.034   8.864  20.112  0.00  0.00    +0.000 A 
ATOM      3  C   UNL     1       1.913   7.880  19.627  0.00  0.00    +0.000 A 
ATOM      4  C   UNL     1       2.481   7.982  18.351  0.00  0.00    +0.000 A 
ATOM      5  C   UNL     1       2.086   9.071  17.550  0.00  0.00    +0.000 A 
ATOM      6  C   UNL     1       1.273  10.090  18.052  0.00  0.00    +0.000 A 
ENDROOT
BRANCH   4   7
ATOM      7  C   UNL     1       3.451   6.976  17.864  0.00  0.00    +0.000 A 
ATOM      8  C   UNL     1       4.393   7.100  16.859  0.00  0.00    +0.000 A 
ATOM      9  C   UNL     1       5.204   5.942  16.917  0.00  0.00    +0.000 A 
ATOM     10  N   UNL     1       4.812   5.137  17.914  0.00  0.00    +0.000 NA
ATOM     11  N   UNL     1       3.656   5.685  18.378  0.00  0.00    +0.000 N 
BRANCH  11  12
ATOM     12  C   UNL     1       2.867   4.945  19.305  0.00  0.00    +0.000 A 
ATOM     13  C   UNL     1       1.900   4.051  18.819  0.00  0.00    +0.000 A 
ATOM     14  C   UNL     1       1.248   3.187  19.703  0.00  0.00    +0.000 A 
ATOM     15  C   UNL     1       1.535   3.239  21.067  0.00  0.00    +0.000 A 
ATOM     16 CL   UNL     1       0.780   2.130  22.145  0.00  0.00    +0.000 Cl
ATOM     17  C   UNL     1       2.440   4.175  21.564  0.00  0.00    +0.000 A 
ATOM     18  C   UNL     1       3.089   5.045  20.686  0.00  0.00    +0.000 A 
ENDBRANCH  11  12
BRANCH   9  19
ATOM     19  C   UNL     1       6.377   5.614  16.047  0.00  0.00    +0.000 C 
ATOM     20  F   UNL     1       7.539   6.046  16.615  0.00  0.00    +0.000 F 
ATOM     21  F   UNL     1       6.516   4.266  15.897  0.00  0.00    +0.000 F 
ENDBRANCH   9  19
ENDBRANCH   4   7
BRANCH   1  24
ATOM     22  C   UNL     1      -1.460  11.108  19.412  0.00  0.00    +0.000 C 
ATOM     23  O   UNL     1      -2.193  11.991  19.842  0.00  0.00    +0.000 OA
ATOM     24  N   UNL     1      -0.102  11.021  19.825  0.00  0.00    +0.000 N 
BRANCH  24  25
ATOM     25  S   UNL     1       0.558  12.039  21.000  0.00  0.00    +0.000 S 
ATOM     26  C   UNL     1       0.252  13.655  20.302  0.00  0.00    +0.000 C 
ATOM     27  O   UNL     1      -0.210  11.906  22.222  0.00  0.00    +0.000 OA
ATOM     28  O   UNL     1       1.998  11.873  21.023  0.00  0.00    +0.000 OA
ENDBRANCH  24  25
BRANCH  22  30
ATOM     29  C   UNL     1      -2.318  10.831  17.062  0.00  0.00    +0.000 C 
ATOM     30  C   UNL     1      -1.967  10.125  18.365  0.00  0.00    +0.000 C 
ENDBRANCH  22  30
ENDBRANCH   1  24
TORSDOF 6
ENDMDL
MODEL 6
REMARK VINA RESULT:      -8.0      1.181      1.768
REMARK  Name = 
REMARK  8 active torsions:
REMARK  status: ('A' for Active; 'I' for Inactive)
REMARK    1  A    between atoms: C_1  and  C_2
REMARK    2  A    between atoms: C_2  and  C_3
REMARK    3  A    between atoms: N_5  and  C_6
REMARK    4  A    between atoms: N_5  and  S_27
REMARK    5  A    between atoms: C_9  and  C_10
REMARK    6  A    between atoms: C_12  and  C_13
REMARK    7  A    between atoms: N_17  and  C_18
REMARK    8  A    between atoms: S_27  and  C_28
REMARK                            x       y       z     vdW  Elec       q    Type
REMARK                         _______ _______ _______ _____ _____    ______ ____
ROOT
ATOM      1  C   UNL     1       0.674   9.876  19.251  0.00  0.00    +0.000 A 
ATOM      2  C   UNL     1       0.990   8.801  20.082  0.00  0.00    +0.000 A 
ATOM      3  C   UNL     1       1.904   7.824  19.650  0.00  0.00    +0.000 A 
ATOM      4  C   UNL     1       2.487   7.892  18.379  0.00  0.00    +0.000 A 
ATOM      5  C   UNL     1       2.074   8.935  17.529  0.00  0.00    +0.000 A 
ATOM      6  C   UNL     1       1.225   9.950  17.978  0.00  0.00    +0.000 A 
ENDROOT
BRANCH   4   7
ATOM      7  C   UNL     1       3.493   6.896  17.947  0.00  0.00    +0.000 A 
ATOM      8  C   UNL     1       4.472   7.020  16.978  0.00  0.00    +0.000 A 
ATOM      9  C   UNL     1       5.299   5.877  17.086  0.00  0.00    +0.000 A 
ATOM     10  N   UNL     1       4.882   5.081  18.080  0.00  0.00    +0.000 NA
ATOM     11  N   UNL     1       3.698   5.616  18.489  0.00  0.00    +0.000 N 
BRANCH  11  12
ATOM     12  C   UNL     1       2.885   4.876  19.395  0.00  0.00    +0.000 A 
ATOM     13  C   UNL     1       1.939   3.975  18.885  0.00  0.00    +0.000 A 
ATOM     14  C   UNL     1       1.265   3.112  19.754  0.00  0.00    +0.000 A 
ATOM     15  C   UNL     1       1.510   3.172  21.125  0.00  0.00    +0.000 A 
ATOM     16 CL   UNL     1       0.729   2.065  22.185  0.00  0.00    +0.000 Cl
ATOM     17  C   UNL     1       2.394   4.115  21.644  0.00  0.00    +0.000 A 
ATOM     18  C   UNL     1       3.065   4.985  20.782  0.00  0.00    +0.000 A 
ENDBRANCH  11  12
BRANCH   9  19
ATOM     19  C   UNL     1       6.511   5.557  16.269  0.00  0.00    +0.000 C 
ATOM     20  F   UNL     1       6.227   5.610  14.936  0.00  0.00    +0.000 F 
ATOM     21  F   UNL     1       7.499   6.474  16.475  0.00  0.00    +0.000 F 
ENDBRANCH   9  19
ENDBRANCH   4   7
BRANCH   1  24
ATOM     22  C   UNL     1      -1.540  10.974  19.214  0.00  0.00    +0.000 C 
ATOM     23  O   UNL     1      -2.304  11.853  19.597  0.00  0.00    +0.000 OA
ATOM     24  N   UNL     1      -0.202  10.911  19.692  0.00  0.00    +0.000 N 
BRANCH  24  25
ATOM     25  S   UNL     1       0.386  11.952  20.884  0.00  0.00    +0.000 S 
ATOM     26  C   UNL     1      -0.537  11.427  22.321  0.00  0.00    +0.000 C 
ATOM     27  O   UNL     1       1.791  11.669  21.104  0.00  0.00    +0.000 OA
ATOM     28  O   UNL     1      -0.047  13.305  20.595  0.00  0.00    +0.000 OA
ENDBRANCH  24  25
BRANCH  22  30
ATOM     29  C   UNL     1      -2.360  10.665  16.854  0.00  0.00    +0.000 C 
ATOM     30  C   UNL     1      -1.983   9.971  18.157  0.00  0.00    +0.000 C 
ENDBRANCH  22  30
ENDBRANCH   1  24
TORSDOF 6
ENDMDL
MODEL 7
REMARK VINA RESULT:      -8.0      0.779      1.364
REMARK  Name = 
REMARK  8 active torsions:
REMARK  status: ('A' for Active; 'I' for Inactive)
REMARK    1  A    between atoms: C_1  and  C_2
REMARK    2  A    between atoms: C_2  and  C_3
REMARK    3  A    between atoms: N_5  and  C_6
REMARK    4  A    between atoms: N_5  and  S_27
REMARK    5  A    between atoms: C_9  and  C_10
REMARK    6  A    between atoms: C_12  and  C_13
REMARK    7  A    between atoms: N_17  and  C_18
REMARK    8  A    between atoms: S_27  and  C_28
REMARK                            x       y       z     vdW  Elec       q    Type
REMARK                         _______ _______ _______ _____ _____    ______ ____
ROOT
ATOM      1  C   UNL     1       1.090   9.372  19.297  0.00  0.00    +0.000 A 
ATOM      2  C   UNL     1       1.400   8.201  19.988  0.00  0.00    +0.000 A 
ATOM      3  C   UNL     1       2.302   7.276  19.433  0.00  0.00    +0.000 A 
ATOM      4  C   UNL     1       2.880   7.495  18.176  0.00  0.00    +0.000 A 
ATOM      5  C   UNL     1       2.471   8.638  17.464  0.00  0.00    +0.000 A 
ATOM      6  C   UNL     1       1.635   9.597  18.039  0.00  0.00    +0.000 A 
ENDROOT
BRANCH   4   7
ATOM      7  C   UNL     1       3.873   6.550  17.619  0.00  0.00    +0.000 A 
ATOM      8  C   UNL     1       4.809   6.768  16.624  0.00  0.00    +0.000 A 
ATOM      9  C   UNL     1       5.649   5.629  16.599  0.00  0.00    +0.000 A 
ATOM     10  N   UNL     1       5.281   4.747  17.538  0.00  0.00    +0.000 NA
ATOM     11  N   UNL     1       4.112   5.232  18.041  0.00  0.00    +0.000 N 
BRANCH  11  12
ATOM     12  C   UNL     1       3.345   4.408  18.914  0.00  0.00    +0.000 A 
ATOM     13  C   UNL     1       3.937   3.918  20.088  0.00  0.00    +0.000 A 
ATOM     14  C   UNL     1       3.151   3.264  21.041  0.00  0.00    +0.000 A 
ATOM     15  C   UNL     1       1.789   3.073  20.807  0.00  0.00    +0.000 A 
ATOM     16 CL   UNL     1       0.810   2.328  22.010  0.00  0.00    +0.000 Cl
ATOM     17  C   UNL     1       1.211   3.492  19.611  0.00  0.00    +0.000 A 
ATOM     18  C   UNL     1       1.994   4.139  18.652  0.00  0.00    +0.000 A 
ENDBRANCH  11  12
BRANCH   9  19
ATOM     19  C   UNL     1       6.827   5.393  15.707  0.00  0.00    +0.000 C 
ATOM     20  F   UNL     1       7.662   4.456  16.241  0.00  0.00    +0.000 F 
ATOM     21  F   UNL     1       6.437   4.898  14.499  0.00  0.00    +0.000 F 
ENDBRANCH   9  19
ENDBRANCH   4   7
BRANCH   1  24
ATOM     22  C   UNL     1      -1.015  10.667  19.247  0.00  0.00    +0.000 C 
ATOM     23  O   UNL     1      -1.770  11.500  19.736  0.00  0.00    +0.000 OA
ATOM     24  N   UNL     1       0.226  10.353  19.867  0.00  0.00    +0.000 N 
BRANCH  24  25
ATOM     25  S   UNL     1       0.690  11.007  21.353  0.00  0.00    +0.000 S 
ATOM     26  C   UNL     1       1.362  12.589  20.866  0.00  0.00    +0.000 C 
ATOM     27  O   UNL     1      -0.494  11.232  22.159  0.00  0.00    +0.000 OA
ATOM     28  O   UNL     1       1.799  10.242  21.888  0.00  0.00    +0.000 OA
ENDBRANCH  24  25
BRANCH  22  30
ATOM     29  C   UNL     1      -2.860   9.889  17.722  0.00  0.00    +0.000 C 
ATOM     30  C   UNL     1      -1.354  10.003  17.920  0.00  0.00    +0.000 C 
ENDBRANCH  22  30
ENDBRANCH   1  24
TORSDOF 6
ENDMDL
MODEL 8
REMARK VINA RESULT:      -7.9      3.438      4.756
REMARK  Name = 
REMARK  8 active torsions:
REMARK  status: ('A' for Active; 'I' for Inactive)
REMARK    1  A    between atoms: C_1  and  C_2
REMARK    2  A    between atoms: C_2  and  C_3
REMARK    3  A    between atoms: N_5  and  C_6
REMARK    4  A    between atoms: N_5  and  S_27
REMARK    5  A    between atoms: C_9  and  C_10
REMARK    6  A    between atoms: C_12  and  C_13
REMARK    7  A    between atoms: N_17  and  C_18
REMARK    8  A    between atoms: S_27  and  C_28
REMARK                            x       y       z     vdW  Elec       q    Type
REMARK                         _______ _______ _______ _____ _____    ______ ____
ROOT
ATOM      1  C   UNL     1       1.033   9.883  19.233  0.00  0.00    +0.000 A 
ATOM      2  C   UNL     1       1.636   9.106  18.244  0.00  0.00    +0.000 A 
ATOM      3  C   UNL     1       2.045   7.793  18.534  0.00  0.00    +0.000 A 
ATOM      4  C   UNL     1       1.885   7.252  19.817  0.00  0.00    +0.000 A 
ATOM      5  C   UNL     1       1.361   8.095  20.815  0.00  0.00    +0.000 A 
ATOM      6  C   UNL     1       0.885   9.373  20.517  0.00  0.00    +0.000 A 
ENDROOT
BRANCH   4   7
ATOM      7  C   UNL     1       2.262   5.851  20.106  0.00  0.00    +0.000 A 
ATOM      8  C   UNL     1       1.597   4.920  20.884  0.00  0.00    +0.000 A 
ATOM      9  C   UNL     1       2.247   3.680  20.679  0.00  0.00    +0.000 A 
ATOM     10  N   UNL     1       3.256   3.811  19.807  0.00  0.00    +0.000 NA
ATOM     11  N   UNL     1       3.364   5.151  19.589  0.00  0.00    +0.000 N 
BRANCH  11  12
ATOM     12  C   UNL     1       4.491   5.641  18.869  0.00  0.00    +0.000 A 
ATOM     13  C   UNL     1       4.283   6.393  17.703  0.00  0.00    +0.000 A 
ATOM     14  C   UNL     1       5.364   7.033  17.089  0.00  0.00    +0.000 A 
ATOM     15  C   UNL     1       6.647   6.895  17.617  0.00  0.00    +0.000 A 
ATOM     16 CL   UNL     1       7.965   7.737  16.899  0.00  0.00    +0.000 Cl
ATOM     17  C   UNL     1       6.870   6.090  18.732  0.00  0.00    +0.000 A 
ATOM     18  C   UNL     1       5.795   5.442  19.345  0.00  0.00    +0.000 A 
ENDBRANCH  11  12
BRANCH   9  19
ATOM     19  C   UNL     1       1.888   2.360  21.285  0.00  0.00    +0.000 C 
ATOM     20  F   UNL     1       2.937   1.847  21.991  0.00  0.00    +0.000 F 
ATOM     21  F   UNL     1       0.868   2.491  22.180  0.00  0.00    +0.000 F 
ENDBRANCH   9  19
ENDBRANCH   4   7
BRANCH   1  24
ATOM     22  C   UNL     1      -0.681  11.376  18.263  0.00  0.00    +0.000 C 
ATOM     23  O   UNL     1      -1.107  12.500  18.022  0.00  0.00    +0.000 OA
ATOM     24  N   UNL     1       0.554  11.195  18.944  0.00  0.00    +0.000 N 
BRANCH  24  25
ATOM     25  S   UNL     1       1.451  12.487  19.560  0.00  0.00    +0.000 S 
ATOM     26  C   UNL     1       2.676  12.727  18.281  0.00  0.00    +0.000 C 
ATOM     27  O   UNL     1       0.604  13.661  19.619  0.00  0.00    +0.000 OA
ATOM     28  O   UNL     1       2.174  12.050  20.738  0.00  0.00    +0.000 OA
ENDBRANCH  24  25
BRANCH  22  30
ATOM     29  C   UNL     1      -2.433  10.500  16.682  0.00  0.00    +0.000 C 
ATOM     30  C   UNL     1      -1.428  10.144  17.771  0.00  0.00    +0.000 C 
ENDBRANCH  22  30
ENDBRANCH   1  24
TORSDOF 6
ENDMDL
MODEL 9
REMARK VINA RESULT:      -7.9      0.535      1.165
REMARK  Name = 
REMARK  8 active torsions:
REMARK  status: ('A' for Active; 'I' for Inactive)
REMARK    1  A    between atoms: C_1  and  C_2
REMARK    2  A    between atoms: C_2  and  C_3
REMARK    3  A    between atoms: N_5  and  C_6
REMARK    4  A    between atoms: N_5  and  S_27
REMARK    5  A    between atoms: C_9  and  C_10
REMARK    6  A    between atoms: C_12  and  C_13
REMARK    7  A    between atoms: N_17  and  C_18
REMARK    8  A    between atoms: S_27  and  C_28
REMARK                            x       y       z     vdW  Elec       q    Type
REMARK                         _______ _______ _______ _____ _____    ______ ____
ROOT
ATOM      1  C   UNL     1       1.085   9.244  19.535  0.00  0.00    +0.000 A 
ATOM      2  C   UNL     1       1.454   8.102  20.246  0.00  0.00    +0.000 A 
ATOM      3  C   UNL     1       2.299   7.149  19.653  0.00  0.00    +0.000 A 
ATOM      4  C   UNL     1       2.759   7.307  18.339  0.00  0.00    +0.000 A 
ATOM      5  C   UNL     1       2.290   8.421  17.618  0.00  0.00    +0.000 A 
ATOM      6  C   UNL     1       1.512   9.410  18.223  0.00  0.00    +0.000 A 
ENDROOT
BRANCH   4   7
ATOM      7  C   UNL     1       3.695   6.333  17.736  0.00  0.00    +0.000 A 
ATOM      8  C   UNL     1       4.586   6.521  16.695  0.00  0.00    +0.000 A 
ATOM      9  C   UNL     1       5.389   5.358  16.631  0.00  0.00    +0.000 A 
ATOM     10  N   UNL     1       5.043   4.488  17.590  0.00  0.00    +0.000 NA
ATOM     11  N   UNL     1       3.916   5.009  18.149  0.00  0.00    +0.000 N 
BRANCH  11  12
ATOM     12  C   UNL     1       3.169   4.210  19.062  0.00  0.00    +0.000 A 
ATOM     13  C   UNL     1       3.838   3.565  20.113  0.00  0.00    +0.000 A 
ATOM     14  C   UNL     1       3.103   2.931  21.119  0.00  0.00    +0.000 A 
ATOM     15  C   UNL     1       1.710   2.912  21.056  0.00  0.00    +0.000 A 
ATOM     16 CL   UNL     1       0.805   2.188  22.327  0.00  0.00    +0.000 Cl
ATOM     17  C   UNL     1       1.043   3.486  19.976  0.00  0.00    +0.000 A 
ATOM     18  C   UNL     1       1.773   4.115  18.965  0.00  0.00    +0.000 A 
ENDBRANCH  11  12
BRANCH   9  19
ATOM     19  C   UNL     1       6.514   5.086  15.682  0.00  0.00    +0.000 C 
ATOM     20  F   UNL     1       6.186   5.472  14.416  0.00  0.00    +0.000 F 
ATOM     21  F   UNL     1       7.623   5.806  16.015  0.00  0.00    +0.000 F 
ENDBRANCH   9  19
ENDBRANCH   4   7
BRANCH   1  24
ATOM     22  C   UNL     1      -0.920  10.690  19.509  0.00  0.00    +0.000 C 
ATOM     23  O   UNL     1      -1.625  11.549  20.026  0.00  0.00    +0.000 OA
ATOM     24  N   UNL     1       0.279  10.255  20.138  0.00  0.00    +0.000 N 
BRANCH  24  25
ATOM     25  S   UNL     1       0.752  10.796  21.667  0.00  0.00    +0.000 S 
ATOM     26  C   UNL     1      -0.718  10.493  22.636  0.00  0.00    +0.000 C 
ATOM     27  O   UNL     1       1.817   9.945  22.158  0.00  0.00    +0.000 OA
ATOM     28  O   UNL     1       0.926  12.235  21.633  0.00  0.00    +0.000 OA
ENDBRANCH  24  25
BRANCH  22  30
ATOM     29  C   UNL     1      -2.610  10.654  17.644  0.00  0.00    +0.000 C 
ATOM     30  C   UNL     1      -1.272  10.121  18.142  0.00  0.00    +0.000 C 
ENDBRANCH  22  30
ENDBRANCH   1  24
TORSDOF 6
ENDMDL
