MODEL 1
REMARK VINA RESULT:      -7.4      0.000      0.000
REMARK  Name = 
REMARK  10 active torsions:
REMARK  status: ('A' for Active; 'I' for Inactive)
REMARK    1  A    between atoms: C_2  and  S_4
REMARK    2  A    between atoms: S_4  and  C_5
REMARK    3  A    between atoms: C_5  and  C_6
REMARK    4  A    between atoms: C_6  and  O_7
REMARK    5  A    between atoms: O_7  and  C_8
REMARK    6  A    between atoms: C_14  and  N_15
REMARK    7  A    between atoms: C_16  and  C_18
REMARK    8  A    between atoms: C_18  and  N_19
REMARK    9  A    between atoms: C_18  and  C_20
REMARK   10  A    between atoms: C_20  and  C_21
REMARK                            x       y       z     vdW  Elec       q    Type
REMARK                         _______ _______ _______ _____ _____    ______ ____
ROOT
ATOM      1  C   UNL     1       0.164  11.155  20.036  0.00  0.00    +0.000 A 
ATOM      2  O   UNL     1       0.801  11.115  18.774  0.00  0.00    +0.000 OA
ATOM      3  C   UNL     1       1.560  10.065  18.359  0.00  0.00    +0.000 A 
ATOM      4  O   UNL     1       2.161  10.088  17.294  0.00  0.00    +0.000 OA
ATOM      5  C   UNL     1       1.605   8.888  19.258  0.00  0.00    +0.000 A 
ATOM      6  C   UNL     1       2.309   7.752  18.825  0.00  0.00    +0.000 A 
ATOM      7  C   UNL     1       2.361   6.596  19.606  0.00  0.00    +0.000 A 
ATOM      8  C   UNL     1       1.725   6.605  20.848  0.00  0.00    +0.000 A 
ATOM      9  C   UNL     1       1.025   7.742  21.283  0.00  0.00    +0.000 A 
ATOM     10  C   UNL     1       0.953   8.903  20.493  0.00  0.00    +0.000 A 
ATOM     11  C   UNL     1       0.235  10.121  20.893  0.00  0.00    +0.000 A 
ATOM     12 CL   UNL     1      -0.509  10.207  22.453  0.00  0.00    +0.000 Cl
ENDROOT
BRANCH   7  13
ATOM     13  N   UNL     1       3.036   5.421  19.204  0.00  0.00    +0.000 N 
ATOM     14  C   UNL     1       2.612   4.559  18.202  0.00  0.00    +0.000 C 
ATOM     15  O   UNL     1       1.534   4.628  17.618  0.00  0.00    +0.000 OA
ATOM     16  H   UNL     1       3.844   5.135  19.745  0.00  0.00    +0.000 HD
BRANCH  14  17
ATOM     17  C   UNL     1       3.572   3.377  17.954  0.00  0.00    +0.000 C 
BRANCH  17  18
ATOM     18  N   UNL     1       2.753   2.186  17.630  0.00  0.00    +0.000 NA
ATOM     19  H   UNL     1       2.425   2.281  16.666  0.00  0.00    +0.000 HD
ATOM     20  H   UNL     1       1.913   2.167  18.204  0.00  0.00    +0.000 HD
ENDBRANCH  17  18
BRANCH  17  21
ATOM     21  C   UNL     1       4.522   3.782  16.807  0.00  0.00    +0.000 C 
BRANCH  21  22
ATOM     22  C   UNL     1       5.539   4.835  17.167  0.00  0.00    +0.000 A 
ATOM     23  C   UNL     1       6.617   4.515  18.005  0.00  0.00    +0.000 A 
ATOM     24  C   UNL     1       7.568   5.478  18.337  0.00  0.00    +0.000 A 
ATOM     25  C   UNL     1       7.450   6.771  17.833  0.00  0.00    +0.000 A 
ATOM     26  C   UNL     1       6.383   7.101  16.998  0.00  0.00    +0.000 A 
ATOM     27  C   UNL     1       5.428   6.138  16.668  0.00  0.00    +0.000 A 
ENDBRANCH  21  22
ENDBRANCH  17  21
ENDBRANCH  14  17
ENDBRANCH   7  13
BRANCH   1  28
ATOM     28  O   UNL     1      -0.512  12.313  20.392  0.00  0.00    +0.000 OA
BRANCH  28  29
ATOM     29  C   UNL     1      -0.429  13.350  19.401  0.00  0.00    +0.000 C 
BRANCH  29  30
ATOM     30  C   UNL     1       0.323  14.538  20.001  0.00  0.00    +0.000 C 
BRANCH  30  31
ATOM     31  S   UNL     1       2.095  14.159  20.180  0.00  0.00    +0.000 S 
BRANCH  31  33
ATOM     32  N   UNL     1       2.873  13.194  17.847  0.00  0.00    +0.000 NA
ATOM     33  C   UNL     1       2.626  14.253  18.526  0.00  0.00    +0.000 C 
ATOM     34  N   UNL     1       2.768  15.507  18.043  0.00  0.00    +0.000 N 
ATOM     35  H   UNL     1       3.146  13.460  16.900  0.00  0.00    +0.000 HD
ATOM     36  H   UNL     1       3.421  15.628  17.281  0.00  0.00    +0.000 HD
ATOM     37  H   UNL     1       2.847  16.216  18.764  0.00  0.00    +0.000 HD
ENDBRANCH  31  33
ENDBRANCH  30  31
ENDBRANCH  29  30
ENDBRANCH  28  29
ENDBRANCH   1  28
TORSDOF 10
ENDMDL
MODEL 2
REMARK VINA RESULT:      -7.4      3.894      9.518
REMARK  Name = 
REMARK  10 active torsions:
REMARK  status: ('A' for Active; 'I' for Inactive)
REMARK    1  A    between atoms: C_2  and  S_4
REMARK    2  A    between atoms: S_4  and  C_5
REMARK    3  A    between atoms: C_5  and  C_6
REMARK    4  A    between atoms: C_6  and  O_7
REMARK    5  A    between atoms: O_7  and  C_8
REMARK    6  A    between atoms: C_14  and  N_15
REMARK    7  A    between atoms: C_16  and  C_18
REMARK    8  A    between atoms: C_18  and  N_19
REMARK    9  A    between atoms: C_18  and  C_20
REMARK   10  A    between atoms: C_20  and  C_21
REMARK                            x       y       z     vdW  Elec       q    Type
REMARK                         _______ _______ _______ _____ _____    ______ ____
ROOT
ATOM      1  C   UNL     1       3.126   6.249  18.825  0.00  0.00    +0.000 A 
ATOM      2  O   UNL     1       3.110   7.283  17.861  0.00  0.00    +0.000 OA
ATOM      3  C   UNL     1       2.337   8.396  17.981  0.00  0.00    +0.000 A 
ATOM      4  O   UNL     1       2.285   9.241  17.097  0.00  0.00    +0.000 OA
ATOM      5  C   UNL     1       1.577   8.538  19.245  0.00  0.00    +0.000 A 
ATOM      6  C   UNL     1       0.834   9.714  19.442  0.00  0.00    +0.000 A 
ATOM      7  C   UNL     1       0.125   9.929  20.624  0.00  0.00    +0.000 A 
ATOM      8  C   UNL     1       0.141   8.930  21.598  0.00  0.00    +0.000 A 
ATOM      9  C   UNL     1       0.879   7.752  21.400  0.00  0.00    +0.000 A 
ATOM     10  C   UNL     1       1.611   7.538  20.219  0.00  0.00    +0.000 A 
ATOM     11  C   UNL     1       2.403   6.328  19.955  0.00  0.00    +0.000 A 
ATOM     12 CL   UNL     1       2.397   5.031  21.099  0.00  0.00    +0.000 Cl
ENDROOT
BRANCH   7  13
ATOM     13  N   UNL     1      -0.616  11.105  20.879  0.00  0.00    +0.000 N 
ATOM     14  C   UNL     1      -0.075  12.325  21.258  0.00  0.00    +0.000 C 
ATOM     15  O   UNL     1       1.103  12.518  21.548  0.00  0.00    +0.000 OA
ATOM     16  H   UNL     1      -1.628  11.034  20.871  0.00  0.00    +0.000 HD
BRANCH  14  17
ATOM     17  C   UNL     1      -1.124  13.444  21.428  0.00  0.00    +0.000 C 
BRANCH  17  18
ATOM     18  N   UNL     1      -0.717  14.583  20.574  0.00  0.00    +0.000 NA
ATOM     19  H   UNL     1      -0.604  14.237  19.618  0.00  0.00    +0.000 HD
ATOM     20  H   UNL     1       0.201  14.924  20.851  0.00  0.00    +0.000 HD
ENDBRANCH  17  18
BRANCH  17  21
ATOM     21  C   UNL     1      -2.496  12.857  21.032  0.00  0.00    +0.000 C 
BRANCH  21  22
ATOM     22  C   UNL     1      -3.522  12.841  22.136  0.00  0.00    +0.000 A 
ATOM     23  C   UNL     1      -3.152  12.462  23.435  0.00  0.00    +0.000 A 
ATOM     24  C   UNL     1      -4.090  12.451  24.465  0.00  0.00    +0.000 A 
ATOM     25  C   UNL     1      -5.408  12.822  24.207  0.00  0.00    +0.000 A 
ATOM     26  C   UNL     1      -5.787  13.201  22.920  0.00  0.00    +0.000 A 
ATOM     27  C   UNL     1      -4.850  13.209  21.887  0.00  0.00    +0.000 A 
ENDBRANCH  21  22
ENDBRANCH  17  21
ENDBRANCH  14  17
ENDBRANCH   7  13
BRANCH   1  28
ATOM     28  O   UNL     1       3.884   5.117  18.558  0.00  0.00    +0.000 OA
BRANCH  28  29
ATOM     29  C   UNL     1       3.558   4.495  17.304  0.00  0.00    +0.000 C 
BRANCH  29  30
ATOM     30  C   UNL     1       4.856   4.064  16.622  0.00  0.00    +0.000 C 
BRANCH  30  31
ATOM     31  S   UNL     1       6.095   5.398  16.687  0.00  0.00    +0.000 S 
BRANCH  31  33
ATOM     32  N   UNL     1       8.232   4.145  17.606  0.00  0.00    +0.000 NA
ATOM     33  C   UNL     1       7.171   4.796  17.915  0.00  0.00    +0.000 C 
ATOM     34  N   UNL     1       6.788   5.052  19.185  0.00  0.00    +0.000 N 
ATOM     35  H   UNL     1       8.735   3.903  18.461  0.00  0.00    +0.000 HD
ATOM     36  H   UNL     1       7.126   4.420  19.896  0.00  0.00    +0.000 HD
ATOM     37  H   UNL     1       5.804   5.282  19.277  0.00  0.00    +0.000 HD
ENDBRANCH  31  33
ENDBRANCH  30  31
ENDBRANCH  29  30
ENDBRANCH  28  29
ENDBRANCH   1  28
TORSDOF 10
ENDMDL
MODEL 3
REMARK VINA RESULT:      -7.4      2.585      2.884
REMARK  Name = 
REMARK  10 active torsions:
REMARK  status: ('A' for Active; 'I' for Inactive)
REMARK    1  A    between atoms: C_2  and  S_4
REMARK    2  A    between atoms: S_4  and  C_5
REMARK    3  A    between atoms: C_5  and  C_6
REMARK    4  A    between atoms: C_6  and  O_7
REMARK    5  A    between atoms: O_7  and  C_8
REMARK    6  A    between atoms: C_14  and  N_15
REMARK    7  A    between atoms: C_16  and  C_18
REMARK    8  A    between atoms: C_18  and  N_19
REMARK    9  A    between atoms: C_18  and  C_20
REMARK   10  A    between atoms: C_20  and  C_21
REMARK                            x       y       z     vdW  Elec       q    Type
REMARK                         _______ _______ _______ _____ _____    ______ ____
ROOT
ATOM      1  C   UNL     1       0.073  11.075  19.964  0.00  0.00    +0.000 A 
ATOM      2  O   UNL     1       0.741  11.054  18.717  0.00  0.00    +0.000 OA
ATOM      3  C   UNL     1       1.540  10.027  18.322  0.00  0.00    +0.000 A 
ATOM      4  O   UNL     1       2.164  10.067  17.270  0.00  0.00    +0.000 OA
ATOM      5  C   UNL     1       1.598   8.852  19.222  0.00  0.00    +0.000 A 
ATOM      6  C   UNL     1       2.345   7.736  18.806  0.00  0.00    +0.000 A 
ATOM      7  C   UNL     1       2.413   6.583  19.588  0.00  0.00    +0.000 A 
ATOM      8  C   UNL     1       1.748   6.573  20.815  0.00  0.00    +0.000 A 
ATOM      9  C   UNL     1       1.005   7.689  21.233  0.00  0.00    +0.000 A 
ATOM     10  C   UNL     1       0.917   8.847  20.441  0.00  0.00    +0.000 A 
ATOM     11  C   UNL     1       0.155  10.044  20.823  0.00  0.00    +0.000 A 
ATOM     12 CL   UNL     1      -0.627  10.108  22.365  0.00  0.00    +0.000 Cl
ENDROOT
BRANCH   7  13
ATOM     13  N   UNL     1       3.130   5.428  19.203  0.00  0.00    +0.000 N 
ATOM     14  C   UNL     1       2.734   4.530  18.222  0.00  0.00    +0.000 C 
ATOM     15  O   UNL     1       1.649   4.545  17.646  0.00  0.00    +0.000 OA
ATOM     16  H   UNL     1       3.954   5.185  19.742  0.00  0.00    +0.000 HD
BRANCH  14  17
ATOM     17  C   UNL     1       3.738   3.383  17.988  0.00  0.00    +0.000 C 
BRANCH  17  18
ATOM     18  N   UNL     1       2.967   2.164  17.653  0.00  0.00    +0.000 NA
ATOM     19  H   UNL     1       3.538   1.590  17.027  0.00  0.00    +0.000 HD
ATOM     20  H   UNL     1       2.136   2.406  17.118  0.00  0.00    +0.000 HD
ENDBRANCH  17  18
BRANCH  17  21
ATOM     21  C   UNL     1       4.689   3.822  16.854  0.00  0.00    +0.000 C 
BRANCH  21  22
ATOM     22  C   UNL     1       5.687   4.885  17.238  0.00  0.00    +0.000 A 
ATOM     23  C   UNL     1       6.708   4.593  18.154  0.00  0.00    +0.000 A 
ATOM     24  C   UNL     1       7.641   5.566  18.510  0.00  0.00    +0.000 A 
ATOM     25  C   UNL     1       7.562   6.839  17.952  0.00  0.00    +0.000 A 
ATOM     26  C   UNL     1       6.551   7.140  17.039  0.00  0.00    +0.000 A 
ATOM     27  C   UNL     1       5.615   6.169  16.685  0.00  0.00    +0.000 A 
ENDBRANCH  21  22
ENDBRANCH  17  21
ENDBRANCH  14  17
ENDBRANCH   7  13
BRANCH   1  28
ATOM     28  O   UNL     1      -0.644  12.213  20.304  0.00  0.00    +0.000 OA
BRANCH  28  29
ATOM     29  C   UNL     1      -2.015  12.173  19.873  0.00  0.00    +0.000 C 
BRANCH  29  30
ATOM     30  C   UNL     1      -2.043  12.092  18.347  0.00  0.00    +0.000 C 
BRANCH  30  31
ATOM     31  S   UNL     1      -2.887  10.576  17.794  0.00  0.00    +0.000 S 
BRANCH  31  33
ATOM     32  N   UNL     1      -4.790  12.225  16.995  0.00  0.00    +0.000 NA
ATOM     33  C   UNL     1      -4.049  11.229  16.676  0.00  0.00    +0.000 C 
ATOM     34  N   UNL     1      -4.110  10.597  15.483  0.00  0.00    +0.000 N 
ATOM     35  H   UNL     1      -5.382  12.470  16.200  0.00  0.00    +0.000 HD
ATOM     36  H   UNL     1      -4.985  10.659  14.982  0.00  0.00    +0.000 HD
ATOM     37  H   UNL     1      -3.711   9.664  15.494  0.00  0.00    +0.000 HD
ENDBRANCH  31  33
ENDBRANCH  30  31
ENDBRANCH  29  30
ENDBRANCH  28  29
ENDBRANCH   1  28
TORSDOF 10
ENDMDL
MODEL 4
REMARK VINA RESULT:      -7.3      3.802      4.415
REMARK  Name = 
REMARK  10 active torsions:
REMARK  status: ('A' for Active; 'I' for Inactive)
REMARK    1  A    between atoms: C_2  and  S_4
REMARK    2  A    between atoms: S_4  and  C_5
REMARK    3  A    between atoms: C_5  and  C_6
REMARK    4  A    between atoms: C_6  and  O_7
REMARK    5  A    between atoms: O_7  and  C_8
REMARK    6  A    between atoms: C_14  and  N_15
REMARK    7  A    between atoms: C_16  and  C_18
REMARK    8  A    between atoms: C_18  and  N_19
REMARK    9  A    between atoms: C_18  and  C_20
REMARK   10  A    between atoms: C_20  and  C_21
REMARK                            x       y       z     vdW  Elec       q    Type
REMARK                         _______ _______ _______ _____ _____    ______ ____
ROOT
ATOM      1  C   UNL     1      -0.817  11.828  21.013  0.00  0.00    +0.000 A 
ATOM      2  O   UNL     1      -0.632  11.096  22.209  0.00  0.00    +0.000 OA
ATOM      3  C   UNL     1      -0.003   9.891  22.251  0.00  0.00    +0.000 A 
ATOM      4  O   UNL     1       0.079   9.244  23.287  0.00  0.00    +0.000 OA
ATOM      5  C   UNL     1       0.593   9.413  20.982  0.00  0.00    +0.000 A 
ATOM      6  C   UNL     1       1.325   8.214  21.004  0.00  0.00    +0.000 A 
ATOM      7  C   UNL     1       1.943   7.725  19.853  0.00  0.00    +0.000 A 
ATOM      8  C   UNL     1       1.789   8.439  18.663  0.00  0.00    +0.000 A 
ATOM      9  C   UNL     1       1.055   9.636  18.639  0.00  0.00    +0.000 A 
ATOM     10  C   UNL     1       0.445  10.143  19.800  0.00  0.00    +0.000 A 
ATOM     11  C   UNL     1      -0.333  11.388  19.838  0.00  0.00    +0.000 A 
ATOM     12 CL   UNL     1      -0.613  12.271  18.376  0.00  0.00    +0.000 Cl
ENDROOT
BRANCH   7  13
ATOM     13  N   UNL     1       2.708   6.537  19.830  0.00  0.00    +0.000 N 
ATOM     14  C   UNL     1       2.230   5.271  20.137  0.00  0.00    +0.000 C 
ATOM     15  O   UNL     1       1.115   5.027  20.591  0.00  0.00    +0.000 OA
ATOM     16  H   UNL     1       3.705   6.624  19.665  0.00  0.00    +0.000 HD
BRANCH  14  17
ATOM     17  C   UNL     1       3.286   4.156  19.988  0.00  0.00    +0.000 C 
BRANCH  17  18
ATOM     18  N   UNL     1       2.855   3.008  20.818  0.00  0.00    +0.000 NA
ATOM     19  H   UNL     1       3.588   2.295  20.776  0.00  0.00    +0.000 HD
ATOM     20  H   UNL     1       2.027   2.572  20.418  0.00  0.00    +0.000 HD
ENDBRANCH  17  18
BRANCH  17  21
ATOM     21  C   UNL     1       3.386   3.809  18.488  0.00  0.00    +0.000 C 
BRANCH  21  22
ATOM     22  C   UNL     1       4.719   4.115  17.853  0.00  0.00    +0.000 A 
ATOM     23  C   UNL     1       5.780   4.588  18.638  0.00  0.00    +0.000 A 
ATOM     24  C   UNL     1       7.018   4.867  18.063  0.00  0.00    +0.000 A 
ATOM     25  C   UNL     1       7.208   4.672  16.697  0.00  0.00    +0.000 A 
ATOM     26  C   UNL     1       6.160   4.201  15.907  0.00  0.00    +0.000 A 
ATOM     27  C   UNL     1       4.919   3.925  16.481  0.00  0.00    +0.000 A 
ENDBRANCH  21  22
ENDBRANCH  17  21
ENDBRANCH  14  17
ENDBRANCH   7  13
BRANCH   1  28
ATOM     28  O   UNL     1      -1.551  13.003  21.071  0.00  0.00    +0.000 OA
BRANCH  28  29
ATOM     29  C   UNL     1      -1.902  13.391  22.410  0.00  0.00    +0.000 C 
BRANCH  29  30
ATOM     30  C   UNL     1      -3.373  13.807  22.427  0.00  0.00    +0.000 C 
BRANCH  30  31
ATOM     31  S   UNL     1      -3.918  14.191  24.122  0.00  0.00    +0.000 S 
BRANCH  31  33
ATOM     32  N   UNL     1      -4.671  11.736  24.743  0.00  0.00    +0.000 NA
ATOM     33  C   UNL     1      -5.060  12.910  24.405  0.00  0.00    +0.000 C 
ATOM     34  N   UNL     1      -6.355  13.250  24.223  0.00  0.00    +0.000 N 
ATOM     35  H   UNL     1      -5.487  11.140  24.884  0.00  0.00    +0.000 HD
ATOM     36  H   UNL     1      -6.991  12.501  23.985  0.00  0.00    +0.000 HD
ATOM     37  H   UNL     1      -6.483  14.087  23.665  0.00  0.00    +0.000 HD
ENDBRANCH  31  33
ENDBRANCH  30  31
ENDBRANCH  29  30
ENDBRANCH  28  29
ENDBRANCH   1  28
TORSDOF 10
ENDMDL
MODEL 5
REMARK VINA RESULT:      -7.2      3.804      4.495
REMARK  Name = 
REMARK  10 active torsions:
REMARK  status: ('A' for Active; 'I' for Inactive)
REMARK    1  A    between atoms: C_2  and  S_4
REMARK    2  A    between atoms: S_4  and  C_5
REMARK    3  A    between atoms: C_5  and  C_6
REMARK    4  A    between atoms: C_6  and  O_7
REMARK    5  A    between atoms: O_7  and  C_8
REMARK    6  A    between atoms: C_14  and  N_15
REMARK    7  A    between atoms: C_16  and  C_18
REMARK    8  A    between atoms: C_18  and  N_19
REMARK    9  A    between atoms: C_18  and  C_20
REMARK   10  A    between atoms: C_20  and  C_21
REMARK                            x       y       z     vdW  Elec       q    Type
REMARK                         _______ _______ _______ _____ _____    ______ ____
ROOT
ATOM      1  C   UNL     1      -1.201  11.581  20.887  0.00  0.00    +0.000 A 
ATOM      2  O   UNL     1      -0.913  10.903  22.094  0.00  0.00    +0.000 OA
ATOM      3  C   UNL     1      -0.135   9.789  22.151  0.00  0.00    +0.000 A 
ATOM      4  O   UNL     1       0.038   9.179  23.197  0.00  0.00    +0.000 OA
ATOM      5  C   UNL     1       0.506   9.367  20.884  0.00  0.00    +0.000 A 
ATOM      6  C   UNL     1       1.385   8.271  20.920  0.00  0.00    +0.000 A 
ATOM      7  C   UNL     1       2.050   7.842  19.771  0.00  0.00    +0.000 A 
ATOM      8  C   UNL     1       1.796   8.507  18.570  0.00  0.00    +0.000 A 
ATOM      9  C   UNL     1       0.913   9.600  18.532  0.00  0.00    +0.000 A 
ATOM     10  C   UNL     1       0.255  10.048  19.691  0.00  0.00    +0.000 A 
ATOM     11  C   UNL     1      -0.676  11.184  19.714  0.00  0.00    +0.000 A 
ATOM     12 CL   UNL     1      -1.080  11.995  18.240  0.00  0.00    +0.000 Cl
ENDROOT
BRANCH   7  13
ATOM     13  N   UNL     1       2.961   6.762  19.762  0.00  0.00    +0.000 N 
ATOM     14  C   UNL     1       2.621   5.431  19.568  0.00  0.00    +0.000 C 
ATOM     15  O   UNL     1       1.474   4.995  19.505  0.00  0.00    +0.000 OA
ATOM     16  H   UNL     1       3.926   6.959  20.004  0.00  0.00    +0.000 HD
BRANCH  14  17
ATOM     17  C   UNL     1       3.832   4.475  19.570  0.00  0.00    +0.000 C 
BRANCH  17  18
ATOM     18  N   UNL     1       3.577   3.415  18.567  0.00  0.00    +0.000 NA
ATOM     19  H   UNL     1       2.844   3.748  17.935  0.00  0.00    +0.000 HD
ATOM     20  H   UNL     1       3.194   2.587  19.017  0.00  0.00    +0.000 HD
ENDBRANCH  17  18
BRANCH  17  21
ATOM     21  C   UNL     1       5.087   5.314  19.249  0.00  0.00    +0.000 C 
BRANCH  21  22
ATOM     22  C   UNL     1       5.549   5.243  17.816  0.00  0.00    +0.000 A 
ATOM     23  C   UNL     1       4.874   5.966  16.823  0.00  0.00    +0.000 A 
ATOM     24  C   UNL     1       5.297   5.915  15.496  0.00  0.00    +0.000 A 
ATOM     25  C   UNL     1       6.402   5.141  15.150  0.00  0.00    +0.000 A 
ATOM     26  C   UNL     1       7.082   4.418  16.130  0.00  0.00    +0.000 A 
ATOM     27  C   UNL     1       6.657   4.466  17.458  0.00  0.00    +0.000 A 
ENDBRANCH  21  22
ENDBRANCH  17  21
ENDBRANCH  14  17
ENDBRANCH   7  13
BRANCH   1  28
ATOM     28  O   UNL     1      -2.080  12.654  20.932  0.00  0.00    +0.000 OA
BRANCH  28  29
ATOM     29  C   UNL     1      -2.223  13.220  22.245  0.00  0.00    +0.000 C 
BRANCH  29  30
ATOM     30  C   UNL     1      -3.500  14.059  22.277  0.00  0.00    +0.000 C 
BRANCH  30  31
ATOM     31  S   UNL     1      -4.976  12.993  22.214  0.00  0.00    +0.000 S 
BRANCH  31  33
ATOM     32  N   UNL     1      -6.368  13.737  24.334  0.00  0.00    +0.000 NA
ATOM     33  C   UNL     1      -5.443  12.967  23.890  0.00  0.00    +0.000 C 
ATOM     34  N   UNL     1      -4.749  12.101  24.661  0.00  0.00    +0.000 N 
ATOM     35  H   UNL     1      -6.507  13.553  25.328  0.00  0.00    +0.000 HD
ATOM     36  H   UNL     1      -4.691  12.319  25.646  0.00  0.00    +0.000 HD
ATOM     37  H   UNL     1      -3.867  11.808  24.255  0.00  0.00    +0.000 HD
ENDBRANCH  31  33
ENDBRANCH  30  31
ENDBRANCH  29  30
ENDBRANCH  28  29
ENDBRANCH   1  28
TORSDOF 10
ENDMDL
MODEL 6
REMARK VINA RESULT:      -7.2      3.276      3.489
REMARK  Name = 
REMARK  10 active torsions:
REMARK  status: ('A' for Active; 'I' for Inactive)
REMARK    1  A    between atoms: C_2  and  S_4
REMARK    2  A    between atoms: S_4  and  C_5
REMARK    3  A    between atoms: C_5  and  C_6
REMARK    4  A    between atoms: C_6  and  O_7
REMARK    5  A    between atoms: O_7  and  C_8
REMARK    6  A    between atoms: C_14  and  N_15
REMARK    7  A    between atoms: C_16  and  C_18
REMARK    8  A    between atoms: C_18  and  N_19
REMARK    9  A    between atoms: C_18  and  C_20
REMARK   10  A    between atoms: C_20  and  C_21
REMARK                            x       y       z     vdW  Elec       q    Type
REMARK                         _______ _______ _______ _____ _____    ______ ____
ROOT
ATOM      1  C   UNL     1       0.546  11.073  21.243  0.00  0.00    +0.000 A 
ATOM      2  O   UNL     1       0.978  11.383  19.932  0.00  0.00    +0.000 OA
ATOM      3  C   UNL     1       1.544  10.466  19.102  0.00  0.00    +0.000 A 
ATOM      4  O   UNL     1       1.977  10.778  18.001  0.00  0.00    +0.000 OA
ATOM      5  C   UNL     1       1.590   9.070  19.594  0.00  0.00    +0.000 A 
ATOM      6  C   UNL     1       2.089   8.080  18.731  0.00  0.00    +0.000 A 
ATOM      7  C   UNL     1       2.127   6.740  19.118  0.00  0.00    +0.000 A 
ATOM      8  C   UNL     1       1.689   6.406  20.400  0.00  0.00    +0.000 A 
ATOM      9  C   UNL     1       1.194   7.396  21.265  0.00  0.00    +0.000 A 
ATOM     10  C   UNL     1       1.136   8.745  20.875  0.00  0.00    +0.000 A 
ATOM     11  C   UNL     1       0.628   9.824  21.733  0.00  0.00    +0.000 A 
ATOM     12 CL   UNL     1       0.140   9.472  23.356  0.00  0.00    +0.000 Cl
ENDROOT
BRANCH   7  13
ATOM     13  N   UNL     1       2.597   5.706  18.277  0.00  0.00    +0.000 N 
ATOM     14  C   UNL     1       3.434   4.671  18.672  0.00  0.00    +0.000 C 
ATOM     15  O   UNL     1       3.981   4.583  19.768  0.00  0.00    +0.000 OA
ATOM     16  H   UNL     1       2.381   5.770  17.288  0.00  0.00    +0.000 HD
BRANCH  14  17
ATOM     17  C   UNL     1       3.750   3.664  17.546  0.00  0.00    +0.000 C 
BRANCH  17  18
ATOM     18  N   UNL     1       2.463   3.196  16.981  0.00  0.00    +0.000 NA
ATOM     19  H   UNL     1       2.598   3.034  15.980  0.00  0.00    +0.000 HD
ATOM     20  H   UNL     1       1.759   3.928  17.047  0.00  0.00    +0.000 HD
ENDBRANCH  17  18
BRANCH  17  21
ATOM     21  C   UNL     1       4.632   4.389  16.508  0.00  0.00    +0.000 C 
BRANCH  21  22
ATOM     22  C   UNL     1       5.735   5.236  17.093  0.00  0.00    +0.000 A 
ATOM     23  C   UNL     1       6.740   4.642  17.870  0.00  0.00    +0.000 A 
ATOM     24  C   UNL     1       7.769   5.413  18.408  0.00  0.00    +0.000 A 
ATOM     25  C   UNL     1       7.802   6.786  18.173  0.00  0.00    +0.000 A 
ATOM     26  C   UNL     1       6.808   7.386  17.401  0.00  0.00    +0.000 A 
ATOM     27  C   UNL     1       5.776   6.616  16.864  0.00  0.00    +0.000 A 
ENDBRANCH  21  22
ENDBRANCH  17  21
ENDBRANCH  14  17
ENDBRANCH   7  13
BRANCH   1  28
ATOM     28  O   UNL     1       0.065  12.105  22.036  0.00  0.00    +0.000 OA
BRANCH  28  29
ATOM     29  C   UNL     1      -1.189  12.639  21.580  0.00  0.00    +0.000 C 
BRANCH  29  30
ATOM     30  C   UNL     1      -1.945  13.202  22.783  0.00  0.00    +0.000 C 
BRANCH  30  31
ATOM     31  S   UNL     1      -3.717  12.796  22.683  0.00  0.00    +0.000 S 
BRANCH  31  33
ATOM     32  N   UNL     1      -4.749  11.885  24.938  0.00  0.00    +0.000 NA
ATOM     33  C   UNL     1      -4.175  12.875  24.360  0.00  0.00    +0.000 C 
ATOM     34  N   UNL     1      -3.895  14.046  24.972  0.00  0.00    +0.000 N 
ATOM     35  H   UNL     1      -4.911  12.120  25.918  0.00  0.00    +0.000 HD
ATOM     36  H   UNL     1      -4.465  14.287  25.770  0.00  0.00    +0.000 HD
ATOM     37  H   UNL     1      -3.743  14.817  24.331  0.00  0.00    +0.000 HD
ENDBRANCH  31  33
ENDBRANCH  30  31
ENDBRANCH  29  30
ENDBRANCH  28  29
ENDBRANCH   1  28
TORSDOF 10
ENDMDL
MODEL 7
REMARK VINA RESULT:      -7.1      3.572      4.252
REMARK  Name = 
REMARK  10 active torsions:
REMARK  status: ('A' for Active; 'I' for Inactive)
REMARK    1  A    between atoms: C_2  and  S_4
REMARK    2  A    between atoms: S_4  and  C_5
REMARK    3  A    between atoms: C_5  and  C_6
REMARK    4  A    between atoms: C_6  and  O_7
REMARK    5  A    between atoms: O_7  and  C_8
REMARK    6  A    between atoms: C_14  and  N_15
REMARK    7  A    between atoms: C_16  and  C_18
REMARK    8  A    between atoms: C_18  and  N_19
REMARK    9  A    between atoms: C_18  and  C_20
REMARK   10  A    between atoms: C_20  and  C_21
REMARK                            x       y       z     vdW  Elec       q    Type
REMARK                         _______ _______ _______ _____ _____    ______ ____
ROOT
ATOM      1  C   UNL     1      -1.129  11.716  20.739  0.00  0.00    +0.000 A 
ATOM      2  O   UNL     1      -0.954  11.037  21.968  0.00  0.00    +0.000 OA
ATOM      3  C   UNL     1      -0.235   9.888  22.083  0.00  0.00    +0.000 A 
ATOM      4  O   UNL     1      -0.161   9.280  23.143  0.00  0.00    +0.000 OA
ATOM      5  C   UNL     1       0.466   9.423  20.864  0.00  0.00    +0.000 A 
ATOM      6  C   UNL     1       1.287   8.287  20.966  0.00  0.00    +0.000 A 
ATOM      7  C   UNL     1       2.005   7.816  19.866  0.00  0.00    +0.000 A 
ATOM      8  C   UNL     1       1.863   8.481  18.647  0.00  0.00    +0.000 A 
ATOM      9  C   UNL     1       1.038   9.613  18.543  0.00  0.00    +0.000 A 
ATOM     10  C   UNL     1       0.327  10.103  19.652  0.00  0.00    +0.000 A 
ATOM     11  C   UNL     1      -0.548  11.283  19.607  0.00  0.00    +0.000 A 
ATOM     12 CL   UNL     1      -0.814  12.098  18.104  0.00  0.00    +0.000 Cl
ENDROOT
BRANCH   7  13
ATOM     13  N   UNL     1       2.862   6.694  19.924  0.00  0.00    +0.000 N 
ATOM     14  C   UNL     1       2.520   5.406  19.537  0.00  0.00    +0.000 C 
ATOM     15  O   UNL     1       1.393   5.039  19.213  0.00  0.00    +0.000 OA
ATOM     16  H   UNL     1       3.767   6.816  20.365  0.00  0.00    +0.000 HD
BRANCH  14  17
ATOM     17  C   UNL     1       3.673   4.390  19.676  0.00  0.00    +0.000 C 
BRANCH  17  18
ATOM     18  N   UNL     1       3.085   3.083  20.050  0.00  0.00    +0.000 NA
ATOM     19  H   UNL     1       3.821   2.518  20.483  0.00  0.00    +0.000 HD
ATOM     20  H   UNL     1       2.801   2.571  19.219  0.00  0.00    +0.000 HD
ENDBRANCH  17  18
BRANCH  17  21
ATOM     21  C   UNL     1       4.420   4.347  18.326  0.00  0.00    +0.000 C 
BRANCH  21  22
ATOM     22  C   UNL     1       5.578   5.306  18.211  0.00  0.00    +0.000 A 
ATOM     23  C   UNL     1       5.521   6.371  17.300  0.00  0.00    +0.000 A 
ATOM     24  C   UNL     1       6.582   7.268  17.191  0.00  0.00    +0.000 A 
ATOM     25  C   UNL     1       7.710   7.109  17.993  0.00  0.00    +0.000 A 
ATOM     26  C   UNL     1       7.776   6.055  18.903  0.00  0.00    +0.000 A 
ATOM     27  C   UNL     1       6.717   5.154  19.011  0.00  0.00    +0.000 A 
ENDBRANCH  21  22
ENDBRANCH  17  21
ENDBRANCH  14  17
ENDBRANCH   7  13
BRANCH   1  28
ATOM     28  O   UNL     1      -1.956  12.830  20.719  0.00  0.00    +0.000 OA
BRANCH  28  29
ATOM     29  C   UNL     1      -3.318  12.523  20.379  0.00  0.00    +0.000 C 
BRANCH  29  30
ATOM     30  C   UNL     1      -4.179  12.675  21.633  0.00  0.00    +0.000 C 
BRANCH  30  31
ATOM     31  S   UNL     1      -3.519  13.983  22.716  0.00  0.00    +0.000 S 
BRANCH  31  33
ATOM     32  N   UNL     1      -5.564  14.770  24.194  0.00  0.00    +0.000 NA
ATOM     33  C   UNL     1      -4.630  13.902  24.053  0.00  0.00    +0.000 C 
ATOM     34  N   UNL     1      -4.414  12.883  24.913  0.00  0.00    +0.000 N 
ATOM     35  H   UNL     1      -6.116  14.535  25.019  0.00  0.00    +0.000 HD
ATOM     36  H   UNL     1      -4.740  13.013  25.861  0.00  0.00    +0.000 HD
ATOM     37  H   UNL     1      -3.481  12.488  24.853  0.00  0.00    +0.000 HD
ENDBRANCH  31  33
ENDBRANCH  30  31
ENDBRANCH  29  30
ENDBRANCH  28  29
ENDBRANCH   1  28
TORSDOF 10
ENDMDL
MODEL 8
REMARK VINA RESULT:      -7.1      3.153      4.230
REMARK  Name = 
REMARK  10 active torsions:
REMARK  status: ('A' for Active; 'I' for Inactive)
REMARK    1  A    between atoms: C_2  and  S_4
REMARK    2  A    between atoms: S_4  and  C_5
REMARK    3  A    between atoms: C_5  and  C_6
REMARK    4  A    between atoms: C_6  and  O_7
REMARK    5  A    between atoms: O_7  and  C_8
REMARK    6  A    between atoms: C_14  and  N_15
REMARK    7  A    between atoms: C_16  and  C_18
REMARK    8  A    between atoms: C_18  and  N_19
REMARK    9  A    between atoms: C_18  and  C_20
REMARK   10  A    between atoms: C_20  and  C_21
REMARK                            x       y       z     vdW  Elec       q    Type
REMARK                         _______ _______ _______ _____ _____    ______ ____
ROOT
ATOM      1  C   UNL     1       0.031  11.101  20.523  0.00  0.00    +0.000 A 
ATOM      2  O   UNL     1       0.579  11.400  19.254  0.00  0.00    +0.000 OA
ATOM      3  C   UNL     1       1.377  10.536  18.568  0.00  0.00    +0.000 A 
ATOM      4  O   UNL     1       1.898  10.849  17.507  0.00  0.00    +0.000 OA
ATOM      5  C   UNL     1       1.563   9.194  19.167  0.00  0.00    +0.000 A 
ATOM      6  C   UNL     1       2.310   8.246  18.447  0.00  0.00    +0.000 A 
ATOM      7  C   UNL     1       2.494   6.953  18.936  0.00  0.00    +0.000 A 
ATOM      8  C   UNL     1       1.947   6.628  20.178  0.00  0.00    +0.000 A 
ATOM      9  C   UNL     1       1.204   7.576  20.901  0.00  0.00    +0.000 A 
ATOM     10  C   UNL     1       1.000   8.876  20.405  0.00  0.00    +0.000 A 
ATOM     11  C   UNL     1       0.232   9.910  21.113  0.00  0.00    +0.000 A 
ATOM     12 CL   UNL     1      -0.405   9.580  22.687  0.00  0.00    +0.000 Cl
ENDROOT
BRANCH   7  13
ATOM     13  N   UNL     1       3.215   5.958  18.238  0.00  0.00    +0.000 N 
ATOM     14  C   UNL     1       4.357   5.322  18.704  0.00  0.00    +0.000 C 
ATOM     15  O   UNL     1       4.968   5.624  19.726  0.00  0.00    +0.000 OA
ATOM     16  H   UNL     1       2.933   5.754  17.285  0.00  0.00    +0.000 HD
BRANCH  14  17
ATOM     17  C   UNL     1       4.907   4.249  17.741  0.00  0.00    +0.000 C 
BRANCH  17  18
ATOM     18  N   UNL     1       6.252   3.856  18.219  0.00  0.00    +0.000 NA
ATOM     19  H   UNL     1       6.760   4.708  18.471  0.00  0.00    +0.000 HD
ATOM     20  H   UNL     1       6.787   3.432  17.465  0.00  0.00    +0.000 HD
ENDBRANCH  17  18
BRANCH  17  21
ATOM     21  C   UNL     1       3.906   3.074  17.733  0.00  0.00    +0.000 C 
BRANCH  21  22
ATOM     22  C   UNL     1       3.020   2.986  18.950  0.00  0.00    +0.000 A 
ATOM     23  C   UNL     1       1.637   3.184  18.828  0.00  0.00    +0.000 A 
ATOM     24  C   UNL     1       0.807   3.096  19.944  0.00  0.00    +0.000 A 
ATOM     25  C   UNL     1       1.353   2.809  21.193  0.00  0.00    +0.000 A 
ATOM     26  C   UNL     1       2.727   2.610  21.325  0.00  0.00    +0.000 A 
ATOM     27  C   UNL     1       3.560   2.701  20.209  0.00  0.00    +0.000 A 
ENDBRANCH  21  22
ENDBRANCH  17  21
ENDBRANCH  14  17
ENDBRANCH   7  13
BRANCH   1  28
ATOM     28  O   UNL     1      -0.694  12.089  21.172  0.00  0.00    +0.000 OA
BRANCH  28  29
ATOM     29  C   UNL     1      -1.004  13.214  20.333  0.00  0.00    +0.000 C 
BRANCH  29  30
ATOM     30  C   UNL     1      -2.180  13.972  20.949  0.00  0.00    +0.000 C 
BRANCH  30  31
ATOM     31  S   UNL     1      -3.654  12.906  21.051  0.00  0.00    +0.000 S 
BRANCH  31  33
ATOM     32  N   UNL     1      -4.711  13.460  23.409  0.00  0.00    +0.000 NA
ATOM     33  C   UNL     1      -3.843  12.761  22.775  0.00  0.00    +0.000 C 
ATOM     34  N   UNL     1      -3.004  11.883  23.368  0.00  0.00    +0.000 N 
ATOM     35  H   UNL     1      -4.681  13.212  24.399  0.00  0.00    +0.000 HD
ATOM     36  H   UNL     1      -2.796  12.045  24.344  0.00  0.00    +0.000 HD
ATOM     37  H   UNL     1      -2.189  11.655  22.809  0.00  0.00    +0.000 HD
ENDBRANCH  31  33
ENDBRANCH  30  31
ENDBRANCH  29  30
ENDBRANCH  28  29
ENDBRANCH   1  28
TORSDOF 10
ENDMDL
MODEL 9
REMARK VINA RESULT:      -7.1      3.685      4.234
REMARK  Name = 
REMARK  10 active torsions:
REMARK  status: ('A' for Active; 'I' for Inactive)
REMARK    1  A    between atoms: C_2  and  S_4
REMARK    2  A    between atoms: S_4  and  C_5
REMARK    3  A    between atoms: C_5  and  C_6
REMARK    4  A    between atoms: C_6  and  O_7
REMARK    5  A    between atoms: O_7  and  C_8
REMARK    6  A    between atoms: C_14  and  N_15
REMARK    7  A    between atoms: C_16  and  C_18
REMARK    8  A    between atoms: C_18  and  N_19
REMARK    9  A    between atoms: C_18  and  C_20
REMARK   10  A    between atoms: C_20  and  C_21
REMARK                            x       y       z     vdW  Elec       q    Type
REMARK                         _______ _______ _______ _____ _____    ______ ____
ROOT
ATOM      1  C   UNL     1      -1.034  11.601  20.865  0.00  0.00    +0.000 A 
ATOM      2  O   UNL     1      -0.793  10.955  22.100  0.00  0.00    +0.000 OA
ATOM      3  C   UNL     1      -0.067   9.809  22.208  0.00  0.00    +0.000 A 
ATOM      4  O   UNL     1       0.063   9.230  23.277  0.00  0.00    +0.000 OA
ATOM      5  C   UNL     1       0.571   9.314  20.967  0.00  0.00    +0.000 A 
ATOM      6  C   UNL     1       1.398   8.181  21.054  0.00  0.00    +0.000 A 
ATOM      7  C   UNL     1       2.059   7.683  19.931  0.00  0.00    +0.000 A 
ATOM      8  C   UNL     1       1.852   8.315  18.704  0.00  0.00    +0.000 A 
ATOM      9  C   UNL     1       1.021   9.444  18.615  0.00  0.00    +0.000 A 
ATOM     10  C   UNL     1       0.368   9.962  19.746  0.00  0.00    +0.000 A 
ATOM     11  C   UNL     1      -0.511  11.139  19.716  0.00  0.00    +0.000 A 
ATOM     12 CL   UNL     1      -0.857  11.914  18.208  0.00  0.00    +0.000 Cl
ENDROOT
BRANCH   7  13
ATOM     13  N   UNL     1       2.920   6.563  19.974  0.00  0.00    +0.000 N 
ATOM     14  C   UNL     1       2.604   5.293  19.513  0.00  0.00    +0.000 C 
ATOM     15  O   UNL     1       1.496   4.937  19.122  0.00  0.00    +0.000 OA
ATOM     16  H   UNL     1       3.804   6.668  20.460  0.00  0.00    +0.000 HD
BRANCH  14  17
ATOM     17  C   UNL     1       3.757   4.277  19.654  0.00  0.00    +0.000 C 
BRANCH  17  18
ATOM     18  N   UNL     1       3.166   2.964  19.998  0.00  0.00    +0.000 NA
ATOM     19  H   UNL     1       3.400   2.757  20.973  0.00  0.00    +0.000 HD
ATOM     20  H   UNL     1       3.602   2.224  19.451  0.00  0.00    +0.000 HD
ENDBRANCH  17  18
BRANCH  17  21
ATOM     21  C   UNL     1       4.526   4.257  18.316  0.00  0.00    +0.000 C 
BRANCH  21  22
ATOM     22  C   UNL     1       5.638   5.270  18.207  0.00  0.00    +0.000 A 
ATOM     23  C   UNL     1       6.744   5.194  19.065  0.00  0.00    +0.000 A 
ATOM     24  C   UNL     1       7.782   6.119  18.968  0.00  0.00    +0.000 A 
ATOM     25  C   UNL     1       7.723   7.129  18.011  0.00  0.00    +0.000 A 
ATOM     26  C   UNL     1       6.628   7.214  17.152  0.00  0.00    +0.000 A 
ATOM     27  C   UNL     1       5.587   6.290  17.250  0.00  0.00    +0.000 A 
ENDBRANCH  21  22
ENDBRANCH  17  21
ENDBRANCH  14  17
ENDBRANCH   7  13
BRANCH   1  28
ATOM     28  O   UNL     1      -1.863  12.714  20.859  0.00  0.00    +0.000 OA
BRANCH  28  29
ATOM     29  C   UNL     1      -2.376  13.051  22.159  0.00  0.00    +0.000 C 
BRANCH  29  30
ATOM     30  C   UNL     1      -3.887  12.825  22.159  0.00  0.00    +0.000 C 
BRANCH  30  31
ATOM     31  S   UNL     1      -4.779  14.413  22.149  0.00  0.00    +0.000 S 
BRANCH  31  33
ATOM     32  N   UNL     1      -4.230  14.876  24.692  0.00  0.00    +0.000 NA
ATOM     33  C   UNL     1      -5.147  14.601  23.839  0.00  0.00    +0.000 C 
ATOM     34  N   UNL     1      -6.446  14.417  24.164  0.00  0.00    +0.000 N 
ATOM     35  H   UNL     1      -4.650  14.969  25.617  0.00  0.00    +0.000 HD
ATOM     36  H   UNL     1      -6.639  14.126  25.112  0.00  0.00    +0.000 HD
ATOM     37  H   UNL     1      -6.974  13.907  23.464  0.00  0.00    +0.000 HD
ENDBRANCH  31  33
ENDBRANCH  30  31
ENDBRANCH  29  30
ENDBRANCH  28  29
ENDBRANCH   1  28
TORSDOF 10
ENDMDL
