MODEL 1
REMARK VINA RESULT:      -7.9      0.000      0.000
REMARK  Name = 
REMARK  4 active torsions:
REMARK  status: ('A' for Active; 'I' for Inactive)
REMARK    1  A    between atoms: C_6  and  C_7
REMARK    2  A    between atoms: C_7  and  C_8
REMARK    3  A    between atoms: C_8  and  C_9
REMARK    4  A    between atoms: C_9  and  N_10
REMARK                            x       y       z     vdW  Elec       q    Type
REMARK                         _______ _______ _______ _____ _____    ______ ____
ROOT
ATOM      1  C   UNL     1       4.464   5.416  17.689  0.00  0.00    +0.000 C 
ATOM      2  S   UNL     1       5.381   5.800  16.117  0.00  0.00    +0.000 S 
ATOM      3  C   UNL     1       7.025   5.822  16.861  0.00  0.00    +0.000 C 
ATOM      4  C   UNL     1       7.039   4.771  17.936  0.00  0.00    +0.000 C 
ATOM      5  S   UNL     1       5.672   5.155  19.054  0.00  0.00    +0.000 S 
ENDROOT
BRANCH   1  11
ATOM      6  C   UNL     1       0.266   9.583  20.600  0.00  0.00    +0.000 A 
ATOM      7  C   UNL     1       0.508   8.499  21.446  0.00  0.00    +0.000 A 
ATOM      8  C   UNL     1       1.380   7.476  21.053  0.00  0.00    +0.000 A 
ATOM      9  C   UNL     1       2.016   7.533  19.800  0.00  0.00    +0.000 A 
ATOM     10  C   UNL     1       2.889   6.512  19.383  0.00  0.00    +0.000 A 
ATOM     11  C   UNL     1       3.521   6.558  18.117  0.00  0.00    +0.000 A 
ATOM     12  C   UNL     1       3.256   7.673  17.290  0.00  0.00    +0.000 A 
ATOM     13  C   UNL     1       2.401   8.695  17.704  0.00  0.00    +0.000 A 
ATOM     14  C   UNL     1       1.772   8.634  18.949  0.00  0.00    +0.000 A 
ATOM     15  C   UNL     1       0.898   9.654  19.356  0.00  0.00    +0.000 A 
ENDBRANCH   1  11
BRANCH   1  16
ATOM     16  C   UNL     1       3.707   4.077  17.480  0.00  0.00    +0.000 C 
BRANCH  16  17
ATOM     17  C   UNL     1       3.950   3.038  18.588  0.00  0.00    +0.000 C 
BRANCH  17  18
ATOM     18  N   UNL     1       2.802   2.988  19.497  0.00  0.00    +0.000 N 
ATOM     19  C   UNL     1       2.839   2.824  20.829  0.00  0.00    +0.000 A 
ATOM     20  C   UNL     1       1.541   2.840  21.293  0.00  0.00    +0.000 A 
ATOM     21  N   UNL     1       0.699   3.012  20.254  0.00  0.00    +0.000 NA
ATOM     22  C   UNL     1       1.499   3.101  19.172  0.00  0.00    +0.000 A 
ENDBRANCH  17  18
ENDBRANCH  16  17
ENDBRANCH   1  16
TORSDOF 4
ENDMDL
MODEL 2
REMARK VINA RESULT:      -7.8      0.693      1.653
REMARK  Name = 
REMARK  4 active torsions:
REMARK  status: ('A' for Active; 'I' for Inactive)
REMARK    1  A    between atoms: C_6  and  C_7
REMARK    2  A    between atoms: C_7  and  C_8
REMARK    3  A    between atoms: C_8  and  C_9
REMARK    4  A    between atoms: C_9  and  N_10
REMARK                            x       y       z     vdW  Elec       q    Type
REMARK                         _______ _______ _______ _____ _____    ______ ____
ROOT
ATOM      1  C   UNL     1       4.473   5.366  17.605  0.00  0.00    +0.000 C 
ATOM      2  S   UNL     1       5.333   6.219  16.194  0.00  0.00    +0.000 S 
ATOM      3  C   UNL     1       6.998   6.076  16.876  0.00  0.00    +0.000 C 
ATOM      4  C   UNL     1       7.070   4.759  17.598  0.00  0.00    +0.000 C 
ATOM      5  S   UNL     1       5.728   4.757  18.808  0.00  0.00    +0.000 S 
ENDROOT
BRANCH   1  11
ATOM      6  C   UNL     1       0.505  10.144  19.816  0.00  0.00    +0.000 A 
ATOM      7  C   UNL     1       0.960  10.471  18.537  0.00  0.00    +0.000 A 
ATOM      8  C   UNL     1       1.815   9.603  17.847  0.00  0.00    +0.000 A 
ATOM      9  C   UNL     1       2.225   8.395  18.441  0.00  0.00    +0.000 A 
ATOM     10  C   UNL     1       3.090   7.513  17.768  0.00  0.00    +0.000 A 
ATOM     11  C   UNL     1       3.517   6.304  18.368  0.00  0.00    +0.000 A 
ATOM     12  C   UNL     1       3.032   6.004  19.662  0.00  0.00    +0.000 A 
ATOM     13  C   UNL     1       2.163   6.869  20.328  0.00  0.00    +0.000 A 
ATOM     14  C   UNL     1       1.760   8.067  19.734  0.00  0.00    +0.000 A 
ATOM     15  C   UNL     1       0.900   8.944  20.413  0.00  0.00    +0.000 A 
ENDBRANCH   1  11
BRANCH   1  16
ATOM     16  C   UNL     1       3.743   4.123  17.032  0.00  0.00    +0.000 C 
BRANCH  16  17
ATOM     17  C   UNL     1       3.869   2.861  17.903  0.00  0.00    +0.000 C 
BRANCH  17  18
ATOM     18  N   UNL     1       2.733   2.765  18.823  0.00  0.00    +0.000 N 
ATOM     19  C   UNL     1       2.788   2.543  20.147  0.00  0.00    +0.000 A 
ATOM     20  C   UNL     1       1.496   2.531  20.627  0.00  0.00    +0.000 A 
ATOM     21  N   UNL     1       0.640   2.744  19.607  0.00  0.00    +0.000 NA
ATOM     22  C   UNL     1       1.425   2.885  18.520  0.00  0.00    +0.000 A 
ENDBRANCH  17  18
ENDBRANCH  16  17
ENDBRANCH   1  16
TORSDOF 4
ENDMDL
MODEL 3
REMARK VINA RESULT:      -7.7      2.276      4.221
REMARK  Name = 
REMARK  4 active torsions:
REMARK  status: ('A' for Active; 'I' for Inactive)
REMARK    1  A    between atoms: C_6  and  C_7
REMARK    2  A    between atoms: C_7  and  C_8
REMARK    3  A    between atoms: C_8  and  C_9
REMARK    4  A    between atoms: C_9  and  N_10
REMARK                            x       y       z     vdW  Elec       q    Type
REMARK                         _______ _______ _______ _____ _____    ______ ____
ROOT
ATOM      1  C   UNL     1       2.839   4.786  19.433  0.00  0.00    +0.000 C 
ATOM      2  S   UNL     1       2.219   4.027  21.013  0.00  0.00    +0.000 S 
ATOM      3  C   UNL     1       1.141   2.812  20.226  0.00  0.00    +0.000 C 
ATOM      4  C   UNL     1       1.823   2.366  18.963  0.00  0.00    +0.000 C 
ATOM      5  S   UNL     1       2.154   3.858  17.998  0.00  0.00    +0.000 S 
ENDROOT
BRANCH   1  11
ATOM      6  C   UNL     1       0.644  10.975  20.021  0.00  0.00    +0.000 A 
ATOM      7  C   UNL     1       0.502  10.313  21.242  0.00  0.00    +0.000 A 
ATOM      8  C   UNL     1       0.910   8.980  21.375  0.00  0.00    +0.000 A 
ATOM      9  C   UNL     1       1.462   8.297  20.276  0.00  0.00    +0.000 A 
ATOM     10  C   UNL     1       1.870   6.955  20.386  0.00  0.00    +0.000 A 
ATOM     11  C   UNL     1       2.412   6.260  19.278  0.00  0.00    +0.000 A 
ATOM     12  C   UNL     1       2.544   6.964  18.060  0.00  0.00    +0.000 A 
ATOM     13  C   UNL     1       2.153   8.299  17.949  0.00  0.00    +0.000 A 
ATOM     14  C   UNL     1       1.606   8.972  19.043  0.00  0.00    +0.000 A 
ATOM     15  C   UNL     1       1.197  10.310  18.925  0.00  0.00    +0.000 A 
ENDBRANCH   1  11
BRANCH   1  16
ATOM     16  C   UNL     1       4.381   4.616  19.399  0.00  0.00    +0.000 C 
BRANCH  16  17
ATOM     17  C   UNL     1       4.928   4.101  18.058  0.00  0.00    +0.000 C 
BRANCH  17  18
ATOM     18  N   UNL     1       5.923   5.033  17.523  0.00  0.00    +0.000 N 
ATOM     19  C   UNL     1       6.459   6.088  18.158  0.00  0.00    +0.000 A 
ATOM     20  C   UNL     1       7.353   6.689  17.299  0.00  0.00    +0.000 A 
ATOM     21  N   UNL     1       7.373   6.013  16.132  0.00  0.00    +0.000 NA
ATOM     22  C   UNL     1       6.492   5.006  16.301  0.00  0.00    +0.000 A 
ENDBRANCH  17  18
ENDBRANCH  16  17
ENDBRANCH   1  16
TORSDOF 4
ENDMDL
MODEL 4
REMARK VINA RESULT:      -7.7      2.341      4.246
REMARK  Name = 
REMARK  4 active torsions:
REMARK  status: ('A' for Active; 'I' for Inactive)
REMARK    1  A    between atoms: C_6  and  C_7
REMARK    2  A    between atoms: C_7  and  C_8
REMARK    3  A    between atoms: C_8  and  C_9
REMARK    4  A    between atoms: C_9  and  N_10
REMARK                            x       y       z     vdW  Elec       q    Type
REMARK                         _______ _______ _______ _____ _____    ______ ____
ROOT
ATOM      1  C   UNL     1       3.411   4.497  19.027  0.00  0.00    +0.000 C 
ATOM      2  S   UNL     1       2.569   3.412  20.281  0.00  0.00    +0.000 S 
ATOM      3  C   UNL     1       1.853   2.265  19.085  0.00  0.00    +0.000 C 
ATOM      4  C   UNL     1       2.844   2.118  17.964  0.00  0.00    +0.000 C 
ATOM      5  S   UNL     1       3.178   3.783  17.345  0.00  0.00    +0.000 S 
ENDROOT
BRANCH   1  11
ATOM      6  C   UNL     1       0.619  10.359  20.169  0.00  0.00    +0.000 A 
ATOM      7  C   UNL     1       0.550   9.577  21.324  0.00  0.00    +0.000 A 
ATOM      8  C   UNL     1       1.088   8.284  21.336  0.00  0.00    +0.000 A 
ATOM      9  C   UNL     1       1.699   7.763  20.181  0.00  0.00    +0.000 A 
ATOM     10  C   UNL     1       2.237   6.463  20.170  0.00  0.00    +0.000 A 
ATOM     11  C   UNL     1       2.840   5.928  19.005  0.00  0.00    +0.000 A 
ATOM     12  C   UNL     1       2.895   6.750  17.856  0.00  0.00    +0.000 A 
ATOM     13  C   UNL     1       2.373   8.044  17.866  0.00  0.00    +0.000 A 
ATOM     14  C   UNL     1       1.768   8.558  19.015  0.00  0.00    +0.000 A 
ATOM     15  C   UNL     1       1.228   9.854  19.018  0.00  0.00    +0.000 A 
ENDBRANCH   1  11
BRANCH   1  16
ATOM     16  C   UNL     1       4.932   4.477  19.329  0.00  0.00    +0.000 C 
BRANCH  16  17
ATOM     17  C   UNL     1       5.824   4.478  18.076  0.00  0.00    +0.000 C 
BRANCH  17  18
ATOM     18  N   UNL     1       6.663   5.679  18.050  0.00  0.00    +0.000 N 
ATOM     19  C   UNL     1       6.581   6.699  17.181  0.00  0.00    +0.000 A 
ATOM     20  C   UNL     1       7.550   7.619  17.517  0.00  0.00    +0.000 A 
ATOM     21  N   UNL     1       8.234   7.175  18.591  0.00  0.00    +0.000 NA
ATOM     22  C   UNL     1       7.668   5.989  18.895  0.00  0.00    +0.000 A 
ENDBRANCH  17  18
ENDBRANCH  16  17
ENDBRANCH   1  16
TORSDOF 4
ENDMDL
MODEL 5
REMARK VINA RESULT:      -7.7      2.369      4.463
REMARK  Name = 
REMARK  4 active torsions:
REMARK  status: ('A' for Active; 'I' for Inactive)
REMARK    1  A    between atoms: C_6  and  C_7
REMARK    2  A    between atoms: C_7  and  C_8
REMARK    3  A    between atoms: C_8  and  C_9
REMARK    4  A    between atoms: C_9  and  N_10
REMARK                            x       y       z     vdW  Elec       q    Type
REMARK                         _______ _______ _______ _____ _____    ______ ____
ROOT
ATOM      1  C   UNL     1       3.217   4.354  19.211  0.00  0.00    +0.000 C 
ATOM      2  S   UNL     1       2.566   3.041  20.356  0.00  0.00    +0.000 S 
ATOM      3  C   UNL     1       1.759   2.058  19.076  0.00  0.00    +0.000 C 
ATOM      4  C   UNL     1       2.618   2.144  17.844  0.00  0.00    +0.000 C 
ATOM      5  S   UNL     1       2.816   3.901  17.471  0.00  0.00    +0.000 S 
ENDROOT
BRANCH   1  11
ATOM      6  C   UNL     1       1.034  10.575  19.201  0.00  0.00    +0.000 A 
ATOM      7  C   UNL     1       1.686  10.308  17.995  0.00  0.00    +0.000 A 
ATOM      8  C   UNL     1       2.232   9.042  17.752  0.00  0.00    +0.000 A 
ATOM      9  C   UNL     1       2.131   8.030  18.724  0.00  0.00    +0.000 A 
ATOM     10  C   UNL     1       2.680   6.755  18.502  0.00  0.00    +0.000 A 
ATOM     11  C   UNL     1       2.594   5.738  19.484  0.00  0.00    +0.000 A 
ATOM     12  C   UNL     1       1.923   6.043  20.690  0.00  0.00    +0.000 A 
ATOM     13  C   UNL     1       1.366   7.303  20.909  0.00  0.00    +0.000 A 
ATOM     14  C   UNL     1       1.469   8.304  19.941  0.00  0.00    +0.000 A 
ATOM     15  C   UNL     1       0.922   9.577  20.171  0.00  0.00    +0.000 A 
ENDBRANCH   1  11
BRANCH   1  16
ATOM     16  C   UNL     1       4.763   4.371  19.339  0.00  0.00    +0.000 C 
BRANCH  16  17
ATOM     17  C   UNL     1       5.506   4.365  17.992  0.00  0.00    +0.000 C 
BRANCH  17  18
ATOM     18  N   UNL     1       6.289   5.593  17.839  0.00  0.00    +0.000 N 
ATOM     19  C   UNL     1       7.389   5.936  18.528  0.00  0.00    +0.000 A 
ATOM     20  C   UNL     1       7.811   7.164  18.068  0.00  0.00    +0.000 A 
ATOM     21  N   UNL     1       6.977   7.586  17.096  0.00  0.00    +0.000 NA
ATOM     22  C   UNL     1       6.059   6.605  16.977  0.00  0.00    +0.000 A 
ENDBRANCH  17  18
ENDBRANCH  16  17
ENDBRANCH   1  16
TORSDOF 4
ENDMDL
MODEL 6
REMARK VINA RESULT:      -7.6      2.415      4.428
REMARK  Name = 
REMARK  4 active torsions:
REMARK  status: ('A' for Active; 'I' for Inactive)
REMARK    1  A    between atoms: C_6  and  C_7
REMARK    2  A    between atoms: C_7  and  C_8
REMARK    3  A    between atoms: C_8  and  C_9
REMARK    4  A    between atoms: C_9  and  N_10
REMARK                            x       y       z     vdW  Elec       q    Type
REMARK                         _______ _______ _______ _____ _____    ______ ____
ROOT
ATOM      1  C   UNL     1       3.497   4.603  18.195  0.00  0.00    +0.000 C 
ATOM      2  S   UNL     1       4.507   3.645  19.428  0.00  0.00    +0.000 S 
ATOM      3  C   UNL     1       3.515   2.139  19.352  0.00  0.00    +0.000 C 
ATOM      4  C   UNL     1       3.045   1.988  17.931  0.00  0.00    +0.000 C 
ATOM      5  S   UNL     1       2.179   3.516  17.507  0.00  0.00    +0.000 S 
ENDROOT
BRANCH   1  11
ATOM      6  C   UNL     1       0.864  10.440  19.765  0.00  0.00    +0.000 A 
ATOM      7  C   UNL     1       1.400  10.502  18.477  0.00  0.00    +0.000 A 
ATOM      8  C   UNL     1       2.011   9.377  17.910  0.00  0.00    +0.000 A 
ATOM      9  C   UNL     1       2.092   8.175  18.638  0.00  0.00    +0.000 A 
ATOM     10  C   UNL     1       2.709   7.036  18.090  0.00  0.00    +0.000 A 
ATOM     11  C   UNL     1       2.805   5.829  18.824  0.00  0.00    +0.000 A 
ATOM     12  C   UNL     1       2.247   5.803  20.122  0.00  0.00    +0.000 A 
ATOM     13  C   UNL     1       1.623   6.926  20.665  0.00  0.00    +0.000 A 
ATOM     14  C   UNL     1       1.545   8.116  19.939  0.00  0.00    +0.000 A 
ATOM     15  C   UNL     1       0.932   9.251  20.494  0.00  0.00    +0.000 A 
ENDBRANCH   1  11
BRANCH   1  16
ATOM     16  C   UNL     1       4.432   4.995  17.021  0.00  0.00    +0.000 C 
BRANCH  16  17
ATOM     17  C   UNL     1       5.900   4.580  17.218  0.00  0.00    +0.000 C 
BRANCH  17  18
ATOM     18  N   UNL     1       6.712   5.745  17.577  0.00  0.00    +0.000 N 
ATOM     19  C   UNL     1       6.693   6.951  16.988  0.00  0.00    +0.000 A 
ATOM     20  C   UNL     1       7.607   7.753  17.637  0.00  0.00    +0.000 A 
ATOM     21  N   UNL     1       8.194   7.050  18.626  0.00  0.00    +0.000 NA
ATOM     22  C   UNL     1       7.625   5.828  18.566  0.00  0.00    +0.000 A 
ENDBRANCH  17  18
ENDBRANCH  16  17
ENDBRANCH   1  16
TORSDOF 4
ENDMDL
MODEL 7
REMARK VINA RESULT:      -7.6      2.235      4.239
REMARK  Name = 
REMARK  4 active torsions:
REMARK  status: ('A' for Active; 'I' for Inactive)
REMARK    1  A    between atoms: C_6  and  C_7
REMARK    2  A    between atoms: C_7  and  C_8
REMARK    3  A    between atoms: C_8  and  C_9
REMARK    4  A    between atoms: C_9  and  N_10
REMARK                            x       y       z     vdW  Elec       q    Type
REMARK                         _______ _______ _______ _____ _____    ______ ____
ROOT
ATOM      1  C   UNL     1       2.727   4.690  19.426  0.00  0.00    +0.000 C 
ATOM      2  S   UNL     1       2.464   4.052  21.153  0.00  0.00    +0.000 S 
ATOM      3  C   UNL     1       1.176   2.864  20.720  0.00  0.00    +0.000 C 
ATOM      4  C   UNL     1       1.519   2.313  19.363  0.00  0.00    +0.000 C 
ATOM      5  S   UNL     1       1.680   3.731  18.253  0.00  0.00    +0.000 S 
ENDROOT
BRANCH   1  11
ATOM      6  C   UNL     1       0.712  10.936  20.053  0.00  0.00    +0.000 A 
ATOM      7  C   UNL     1       0.550  10.270  21.270  0.00  0.00    +0.000 A 
ATOM      8  C   UNL     1       0.918   8.925  21.393  0.00  0.00    +0.000 A 
ATOM      9  C   UNL     1       1.451   8.234  20.290  0.00  0.00    +0.000 A 
ATOM     10  C   UNL     1       1.820   6.880  20.392  0.00  0.00    +0.000 A 
ATOM     11  C   UNL     1       2.343   6.176  19.281  0.00  0.00    +0.000 A 
ATOM     12  C   UNL     1       2.497   6.884  18.067  0.00  0.00    +0.000 A 
ATOM     13  C   UNL     1       2.145   8.230  17.964  0.00  0.00    +0.000 A 
ATOM     14  C   UNL     1       1.617   8.912  19.063  0.00  0.00    +0.000 A 
ATOM     15  C   UNL     1       1.246  10.262  18.952  0.00  0.00    +0.000 A 
ENDBRANCH   1  11
BRANCH   1  16
ATOM     16  C   UNL     1       4.207   4.427  19.044  0.00  0.00    +0.000 C 
BRANCH  16  17
ATOM     17  C   UNL     1       4.389   3.626  17.743  0.00  0.00    +0.000 C 
BRANCH  17  18
ATOM     18  N   UNL     1       5.563   4.107  17.011  0.00  0.00    +0.000 N 
ATOM     19  C   UNL     1       5.713   4.160  15.678  0.00  0.00    +0.000 A 
ATOM     20  C   UNL     1       6.962   4.679  15.413  0.00  0.00    +0.000 A 
ATOM     21  N   UNL     1       7.589   4.947  16.577  0.00  0.00    +0.000 NA
ATOM     22  C   UNL     1       6.709   4.589  17.534  0.00  0.00    +0.000 A 
ENDBRANCH  17  18
ENDBRANCH  16  17
ENDBRANCH   1  16
TORSDOF 4
ENDMDL
MODEL 8
REMARK VINA RESULT:      -7.6      2.486      4.564
REMARK  Name = 
REMARK  4 active torsions:
REMARK  status: ('A' for Active; 'I' for Inactive)
REMARK    1  A    between atoms: C_6  and  C_7
REMARK    2  A    between atoms: C_7  and  C_8
REMARK    3  A    between atoms: C_8  and  C_9
REMARK    4  A    between atoms: C_9  and  N_10
REMARK                            x       y       z     vdW  Elec       q    Type
REMARK                         _______ _______ _______ _____ _____    ______ ____
ROOT
ATOM      1  C   UNL     1       3.287   4.478  18.377  0.00  0.00    +0.000 C 
ATOM      2  S   UNL     1       4.681   3.837  19.428  0.00  0.00    +0.000 S 
ATOM      3  C   UNL     1       3.862   2.301  19.907  0.00  0.00    +0.000 C 
ATOM      4  C   UNL     1       3.049   1.846  18.727  0.00  0.00    +0.000 C 
ATOM      5  S   UNL     1       1.950   3.214  18.294  0.00  0.00    +0.000 S 
ENDROOT
BRANCH   1  11
ATOM      6  C   UNL     1       0.975  10.521  19.642  0.00  0.00    +0.000 A 
ATOM      7  C   UNL     1       1.495  10.483  18.346  0.00  0.00    +0.000 A 
ATOM      8  C   UNL     1       2.039   9.298  17.838  0.00  0.00    +0.000 A 
ATOM      9  C   UNL     1       2.070   8.137  18.632  0.00  0.00    +0.000 A 
ATOM     10  C   UNL     1       2.621   6.939  18.142  0.00  0.00    +0.000 A 
ATOM     11  C   UNL     1       2.667   5.772  18.943  0.00  0.00    +0.000 A 
ATOM     12  C   UNL     1       2.128   5.847  20.247  0.00  0.00    +0.000 A 
ATOM     13  C   UNL     1       1.570   7.030  20.733  0.00  0.00    +0.000 A 
ATOM     14  C   UNL     1       1.541   8.179  19.940  0.00  0.00    +0.000 A 
ATOM     15  C   UNL     1       0.994   9.373  20.437  0.00  0.00    +0.000 A 
ENDBRANCH   1  11
BRANCH   1  16
ATOM     16  C   UNL     1       3.830   4.670  16.936  0.00  0.00    +0.000 C 
BRANCH  16  17
ATOM     17  C   UNL     1       4.881   3.628  16.516  0.00  0.00    +0.000 C 
BRANCH  17  18
ATOM     18  N   UNL     1       5.890   4.245  15.652  0.00  0.00    +0.000 N 
ATOM     19  C   UNL     1       6.018   4.085  14.325  0.00  0.00    +0.000 A 
ATOM     20  C   UNL     1       7.090   4.845  13.909  0.00  0.00    +0.000 A 
ATOM     21  N   UNL     1       7.628   5.476  14.972  0.00  0.00    +0.000 NA
ATOM     22  C   UNL     1       6.873   5.092  16.021  0.00  0.00    +0.000 A 
ENDBRANCH  17  18
ENDBRANCH  16  17
ENDBRANCH   1  16
TORSDOF 4
ENDMDL
MODEL 9
REMARK VINA RESULT:      -7.4      2.349      4.202
REMARK  Name = 
REMARK  4 active torsions:
REMARK  status: ('A' for Active; 'I' for Inactive)
REMARK    1  A    between atoms: C_6  and  C_7
REMARK    2  A    between atoms: C_7  and  C_8
REMARK    3  A    between atoms: C_8  and  C_9
REMARK    4  A    between atoms: C_9  and  N_10
REMARK                            x       y       z     vdW  Elec       q    Type
REMARK                         _______ _______ _______ _____ _____    ______ ____
ROOT
ATOM      1  C   UNL     1       2.965   4.742  18.438  0.00  0.00    +0.000 C 
ATOM      2  S   UNL     1       4.222   4.185  19.690  0.00  0.00    +0.000 S 
ATOM      3  C   UNL     1       3.195   2.896  20.425  0.00  0.00    +0.000 C 
ATOM      4  C   UNL     1       2.377   2.294  19.316  0.00  0.00    +0.000 C 
ATOM      5  S   UNL     1       1.481   3.656  18.535  0.00  0.00    +0.000 S 
ENDROOT
BRANCH   1  11
ATOM      6  C   UNL     1       0.742  10.527  20.686  0.00  0.00    +0.000 A 
ATOM      7  C   UNL     1       0.760   9.598  21.728  0.00  0.00    +0.000 A 
ATOM      8  C   UNL     1       1.205   8.290  21.502  0.00  0.00    +0.000 A 
ATOM      9  C   UNL     1       1.634   7.902  20.219  0.00  0.00    +0.000 A 
ATOM     10  C   UNL     1       2.077   6.590  19.970  0.00  0.00    +0.000 A 
ATOM     11  C   UNL     1       2.495   6.191  18.677  0.00  0.00    +0.000 A 
ATOM     12  C   UNL     1       2.467   7.159  17.648  0.00  0.00    +0.000 A 
ATOM     13  C   UNL     1       2.041   8.465  17.894  0.00  0.00    +0.000 A 
ATOM     14  C   UNL     1       1.617   8.845  19.169  0.00  0.00    +0.000 A 
ATOM     15  C   UNL     1       1.171  10.155  19.410  0.00  0.00    +0.000 A 
ENDBRANCH   1  11
BRANCH   1  16
ATOM     16  C   UNL     1       3.585   4.552  17.028  0.00  0.00    +0.000 C 
BRANCH  16  17
ATOM     17  C   UNL     1       4.868   3.705  17.013  0.00  0.00    +0.000 C 
BRANCH  17  18
ATOM     18  N   UNL     1       5.857   4.297  16.110  0.00  0.00    +0.000 N 
ATOM     19  C   UNL     1       6.032   4.011  14.810  0.00  0.00    +0.000 A 
ATOM     20  C   UNL     1       7.062   4.795  14.339  0.00  0.00    +0.000 A 
ATOM     21  N   UNL     1       7.529   5.567  15.341  0.00  0.00    +0.000 NA
ATOM     22  C   UNL     1       6.772   5.242  16.409  0.00  0.00    +0.000 A 
ENDBRANCH  17  18
ENDBRANCH  16  17
ENDBRANCH   1  16
TORSDOF 4
ENDMDL
