MODEL 1
REMARK VINA RESULT:      -6.7      0.000      0.000
REMARK  Name = 
REMARK  10 active torsions:
REMARK  status: ('A' for Active; 'I' for Inactive)
REMARK    1  A    between atoms: C_1  and  O_2
REMARK    2  A    between atoms: O_2  and  C_3
REMARK    3  A    between atoms: C_3  and  C_4
REMARK    4  A    between atoms: N_6  and  C_7
REMARK    5  A    between atoms: N_6  and  C_8
REMARK    6  A    between atoms: C_13  and  N_14
REMARK    7  A    between atoms: N_17  and  C_18
REMARK    8  A    between atoms: C_29  and  C_30
REMARK    9  A    between atoms: C_30  and  C_31
REMARK   10  A    between atoms: C_30  and  O_32
REMARK                            x       y       z     vdW  Elec       q    Type
REMARK                         _______ _______ _______ _____ _____    ______ ____
ROOT
ATOM      1  C   UNL     1      -1.852  11.905  21.860  0.00  0.00    +0.000 C 
ATOM      2  C   UNL     1      -1.061  10.793  21.110  0.00  0.00    +0.000 C 
ATOM      3  C   UNL     1       0.437  11.116  20.956  0.00  0.00    +0.000 C 
ATOM      4  C   UNL     1       1.113  10.230  19.918  0.00  0.00    +0.000 A 
ATOM      5  C   UNL     1       1.353   8.874  20.195  0.00  0.00    +0.000 A 
ATOM      6  C   UNL     1       1.985   8.016  19.278  0.00  0.00    +0.000 A 
ATOM      7  C   UNL     1       2.348   8.552  18.038  0.00  0.00    +0.000 A 
ATOM      8  C   UNL     1       2.130   9.900  17.740  0.00  0.00    +0.000 A 
ATOM      9  C   UNL     1       1.541  10.745  18.684  0.00  0.00    +0.000 A 
ATOM     10  C   UNL     1       1.373  12.213  18.407  0.00  0.00    +0.000 C 
ATOM     11  C   UNL     1       1.579  12.981  19.710  0.00  0.00    +0.000 C 
ATOM     12  N   UNL     1       0.612  12.549  20.714  0.00  0.00    +0.000 N 
ATOM     13  C   UNL     1       0.103  13.467  21.621  0.00  0.00    +0.000 C 
ATOM     14  O   UNL     1       0.422  14.654  21.638  0.00  0.00    +0.000 OA
ATOM     15  C   UNL     1      -0.899  12.874  22.598  0.00  0.00    +0.000 C 
ENDROOT
BRANCH   6  16
ATOM     16  N   UNL     1       2.166   6.684  19.614  0.00  0.00    +0.000 N 
ATOM     17  C   UNL     1       3.443   5.999  19.365  0.00  0.00    +0.000 C 
ATOM     18  C   UNL     1       3.166   4.485  19.200  0.00  0.00    +0.000 C 
ATOM     19  N   UNL     1       2.467   3.890  20.364  0.00  0.00    +0.000 NA
ATOM     20  C   UNL     1       2.147   2.488  20.103  0.00  0.00    +0.000 C 
ATOM     21  C   UNL     1       1.227   4.655  20.643  0.00  0.00    +0.000 C 
ATOM     22  C   UNL     1       1.478   6.171  20.815  0.00  0.00    +0.000 C 
ENDBRANCH   6  16
BRANCH   1  25
ATOM     23  C   UNL     1      -4.200  12.561  21.466  0.00  0.00    +0.000 C 
ATOM     24  O   UNL     1      -4.483  12.253  22.626  0.00  0.00    +0.000 OA
ATOM     25  N   UNL     1      -2.885  12.508  20.976  0.00  0.00    +0.000 N 
ATOM     26  C   UNL     1      -2.616  12.637  19.544  0.00  0.00    +0.000 C 
BRANCH  23  27
ATOM     27  C   UNL     1      -5.316  13.036  20.514  0.00  0.00    +0.000 C 
BRANCH  27  29
ATOM     28  C   UNL     1      -7.544  12.320  20.837  0.00  0.00    +0.000 C 
ATOM     29  O   UNL     1      -6.306  12.070  20.181  0.00  0.00    +0.000 OA
ENDBRANCH  27  29
ENDBRANCH  23  27
ENDBRANCH   1  25
BRANCH  15  30
ATOM     30  C   UNL     1      -1.561  13.909  23.527  0.00  0.00    +0.000 C 
ATOM     31  C   UNL     1      -2.375  15.036  22.903  0.00  0.00    +0.000 C 
BRANCH  30  32
ATOM     32  O   UNL     1      -0.550  14.504  24.354  0.00  0.00    +0.000 OA
ATOM     33  H   UNL     1       0.205  13.877  24.365  0.00  0.00    +0.000 HD
ENDBRANCH  30  32
ENDBRANCH  15  30
TORSDOF 6
ENDMDL
MODEL 2
REMARK VINA RESULT:      -6.5      0.695      1.084
REMARK  Name = 
REMARK  10 active torsions:
REMARK  status: ('A' for Active; 'I' for Inactive)
REMARK    1  A    between atoms: C_1  and  O_2
REMARK    2  A    between atoms: O_2  and  C_3
REMARK    3  A    between atoms: C_3  and  C_4
REMARK    4  A    between atoms: N_6  and  C_7
REMARK    5  A    between atoms: N_6  and  C_8
REMARK    6  A    between atoms: C_13  and  N_14
REMARK    7  A    between atoms: N_17  and  C_18
REMARK    8  A    between atoms: C_29  and  C_30
REMARK    9  A    between atoms: C_30  and  C_31
REMARK   10  A    between atoms: C_30  and  O_32
REMARK                            x       y       z     vdW  Elec       q    Type
REMARK                         _______ _______ _______ _____ _____    ______ ____
ROOT
ATOM      1  C   UNL     1      -1.768  11.828  21.584  0.00  0.00    +0.000 C 
ATOM      2  C   UNL     1      -0.977  10.692  20.872  0.00  0.00    +0.000 C 
ATOM      3  C   UNL     1       0.535  10.966  20.794  0.00  0.00    +0.000 C 
ATOM      4  C   UNL     1       1.234  10.060  19.787  0.00  0.00    +0.000 A 
ATOM      5  C   UNL     1       1.416   8.698  20.072  0.00  0.00    +0.000 A 
ATOM      6  C   UNL     1       2.065   7.820  19.186  0.00  0.00    +0.000 A 
ATOM      7  C   UNL     1       2.506   8.346  17.967  0.00  0.00    +0.000 A 
ATOM      8  C   UNL     1       2.347   9.701  17.662  0.00  0.00    +0.000 A 
ATOM      9  C   UNL     1       1.739  10.563  18.578  0.00  0.00    +0.000 A 
ATOM     10  C   UNL     1       1.633  12.036  18.298  0.00  0.00    +0.000 C 
ATOM     11  C   UNL     1       1.798  12.795  19.611  0.00  0.00    +0.000 C 
ATOM     12  N   UNL     1       0.769  12.393  20.564  0.00  0.00    +0.000 N 
ATOM     13  C   UNL     1       0.245  13.326  21.448  0.00  0.00    +0.000 C 
ATOM     14  O   UNL     1       0.600  14.502  21.484  0.00  0.00    +0.000 OA
ATOM     15  C   UNL     1      -0.823  12.765  22.372  0.00  0.00    +0.000 C 
ENDROOT
BRANCH   6  16
ATOM     16  N   UNL     1       2.186   6.483  19.526  0.00  0.00    +0.000 N 
ATOM     17  C   UNL     1       1.500   5.926  20.700  0.00  0.00    +0.000 C 
ATOM     18  C   UNL     1       2.296   4.697  21.202  0.00  0.00    +0.000 C 
ATOM     19  N   UNL     1       2.485   3.660  20.159  0.00  0.00    +0.000 NA
ATOM     20  C   UNL     1       3.327   2.578  20.666  0.00  0.00    +0.000 C 
ATOM     21  C   UNL     1       3.102   4.270  18.956  0.00  0.00    +0.000 C 
ATOM     22  C   UNL     1       2.320   5.498  18.434  0.00  0.00    +0.000 C 
ENDBRANCH   6  16
BRANCH   1  25
ATOM     23  C   UNL     1      -4.071  12.564  21.078  0.00  0.00    +0.000 C 
ATOM     24  O   UNL     1      -4.420  12.267  22.223  0.00  0.00    +0.000 OA
ATOM     25  N   UNL     1      -2.736  12.465  20.653  0.00  0.00    +0.000 N 
ATOM     26  C   UNL     1      -2.394  12.583  19.235  0.00  0.00    +0.000 C 
BRANCH  23  27
ATOM     27  C   UNL     1      -5.123  13.075  20.073  0.00  0.00    +0.000 C 
BRANCH  27  29
ATOM     28  C   UNL     1      -5.912  11.741  18.292  0.00  0.00    +0.000 C 
ATOM     29  O   UNL     1      -6.094  12.127  19.649  0.00  0.00    +0.000 OA
ENDBRANCH  27  29
ENDBRANCH  23  27
ENDBRANCH   1  25
BRANCH  15  30
ATOM     30  C   UNL     1      -1.497  13.819  23.270  0.00  0.00    +0.000 C 
ATOM     31  C   UNL     1      -2.171  15.016  22.612  0.00  0.00    +0.000 C 
BRANCH  30  32
ATOM     32  O   UNL     1      -0.529  14.321  24.204  0.00  0.00    +0.000 OA
ATOM     33  H   UNL     1      -0.069  13.537  24.575  0.00  0.00    +0.000 HD
ENDBRANCH  30  32
ENDBRANCH  15  30
TORSDOF 6
ENDMDL
MODEL 3
REMARK VINA RESULT:      -6.3      4.562      7.375
REMARK  Name = 
REMARK  10 active torsions:
REMARK  status: ('A' for Active; 'I' for Inactive)
REMARK    1  A    between atoms: C_1  and  O_2
REMARK    2  A    between atoms: O_2  and  C_3
REMARK    3  A    between atoms: C_3  and  C_4
REMARK    4  A    between atoms: N_6  and  C_7
REMARK    5  A    between atoms: N_6  and  C_8
REMARK    6  A    between atoms: C_13  and  N_14
REMARK    7  A    between atoms: N_17  and  C_18
REMARK    8  A    between atoms: C_29  and  C_30
REMARK    9  A    between atoms: C_30  and  C_31
REMARK   10  A    between atoms: C_30  and  O_32
REMARK                            x       y       z     vdW  Elec       q    Type
REMARK                         _______ _______ _______ _____ _____    ______ ____
ROOT
ATOM      1  C   UNL     1       0.625  11.417  19.602  0.00  0.00    +0.000 C 
ATOM      2  C   UNL     1       1.671  12.523  19.274  0.00  0.00    +0.000 C 
ATOM      3  C   UNL     1       2.012  13.409  20.486  0.00  0.00    +0.000 C 
ATOM      4  C   UNL     1       2.726  14.692  20.078  0.00  0.00    +0.000 A 
ATOM      5  C   UNL     1       4.057  14.648  19.634  0.00  0.00    +0.000 A 
ATOM      6  C   UNL     1       4.766  15.803  19.258  0.00  0.00    +0.000 A 
ATOM      7  C   UNL     1       4.084  17.023  19.308  0.00  0.00    +0.000 A 
ATOM      8  C   UNL     1       2.762  17.096  19.755  0.00  0.00    +0.000 A 
ATOM      9  C   UNL     1       2.092  15.941  20.167  0.00  0.00    +0.000 A 
ATOM     10  C   UNL     1       0.698  16.015  20.725  0.00  0.00    +0.000 C 
ATOM     11  C   UNL     1       0.557  14.967  21.825  0.00  0.00    +0.000 C 
ATOM     12  N   UNL     1       0.810  13.633  21.291  0.00  0.00    +0.000 N 
ATOM     13  C   UNL     1       0.102  12.546  21.786  0.00  0.00    +0.000 C 
ATOM     14  O   UNL     1      -0.748  12.634  22.669  0.00  0.00    +0.000 OA
ATOM     15  C   UNL     1       0.467  11.225  21.128  0.00  0.00    +0.000 C 
ENDROOT
BRANCH   6  16
ATOM     16  N   UNL     1       6.070  15.678  18.808  0.00  0.00    +0.000 N 
ATOM     17  C   UNL     1       6.453  14.632  17.849  0.00  0.00    +0.000 C 
ATOM     18  C   UNL     1       7.954  14.309  18.043  0.00  0.00    +0.000 C 
ATOM     19  N   UNL     1       8.829  15.498  17.904  0.00  0.00    +0.000 NA
ATOM     20  C   UNL     1      10.217  15.145  18.198  0.00  0.00    +0.000 C 
ATOM     21  C   UNL     1       8.366  16.567  18.823  0.00  0.00    +0.000 C 
ATOM     22  C   UNL     1       6.869  16.910  18.644  0.00  0.00    +0.000 C 
ENDBRANCH   6  16
BRANCH   1  25
ATOM     23  C   UNL     1      -1.012  10.559  17.964  0.00  0.00    +0.000 C 
ATOM     24  O   UNL     1      -0.445   9.464  17.967  0.00  0.00    +0.000 OA
ATOM     25  N   UNL     1      -0.617  11.609  18.808  0.00  0.00    +0.000 N 
ATOM     26  C   UNL     1      -1.138  12.963  18.609  0.00  0.00    +0.000 C 
BRANCH  23  27
ATOM     27  C   UNL     1      -2.205  10.792  17.014  0.00  0.00    +0.000 C 
BRANCH  27  29
ATOM     28  C   UNL     1      -3.007  10.321  14.843  0.00  0.00    +0.000 C 
ATOM     29  O   UNL     1      -2.422   9.792  16.027  0.00  0.00    +0.000 OA
ENDBRANCH  27  29
ENDBRANCH  23  27
ENDBRANCH   1  25
BRANCH  15  30
ATOM     30  C   UNL     1      -0.400  10.036  21.582  0.00  0.00    +0.000 C 
ATOM     31  C   UNL     1      -0.389   9.642  23.054  0.00  0.00    +0.000 C 
BRANCH  30  32
ATOM     32  O   UNL     1      -0.036   8.877  20.816  0.00  0.00    +0.000 OA
ATOM     33  H   UNL     1      -0.873   8.499  20.469  0.00  0.00    +0.000 HD
ENDBRANCH  30  32
ENDBRANCH  15  30
TORSDOF 6
ENDMDL
MODEL 4
REMARK VINA RESULT:      -6.2      2.760      5.579
REMARK  Name = 
REMARK  10 active torsions:
REMARK  status: ('A' for Active; 'I' for Inactive)
REMARK    1  A    between atoms: C_1  and  O_2
REMARK    2  A    between atoms: O_2  and  C_3
REMARK    3  A    between atoms: C_3  and  C_4
REMARK    4  A    between atoms: N_6  and  C_7
REMARK    5  A    between atoms: N_6  and  C_8
REMARK    6  A    between atoms: C_13  and  N_14
REMARK    7  A    between atoms: N_17  and  C_18
REMARK    8  A    between atoms: C_29  and  C_30
REMARK    9  A    between atoms: C_30  and  C_31
REMARK   10  A    between atoms: C_30  and  O_32
REMARK                            x       y       z     vdW  Elec       q    Type
REMARK                         _______ _______ _______ _____ _____    ______ ____
ROOT
ATOM      1  C   UNL     1       1.276  14.663  19.728  0.00  0.00    +0.000 C 
ATOM      2  C   UNL     1       1.533  13.146  19.965  0.00  0.00    +0.000 C 
ATOM      3  C   UNL     1       0.239  12.313  20.004  0.00  0.00    +0.000 C 
ATOM      4  C   UNL     1       0.462  10.929  20.600  0.00  0.00    +0.000 A 
ATOM      5  C   UNL     1       1.163   9.952  19.874  0.00  0.00    +0.000 A 
ATOM      6  C   UNL     1       1.386   8.656  20.371  0.00  0.00    +0.000 A 
ATOM      7  C   UNL     1       0.909   8.367  21.654  0.00  0.00    +0.000 A 
ATOM      8  C   UNL     1       0.200   9.317  22.395  0.00  0.00    +0.000 A 
ATOM      9  C   UNL     1      -0.049  10.585  21.862  0.00  0.00    +0.000 A 
ATOM     10  C   UNL     1      -0.877  11.589  22.614  0.00  0.00    +0.000 C 
ATOM     11  C   UNL     1      -1.699  12.392  21.609  0.00  0.00    +0.000 C 
ATOM     12  N   UNL     1      -0.821  13.076  20.665  0.00  0.00    +0.000 N 
ATOM     13  C   UNL     1      -1.174  14.327  20.179  0.00  0.00    +0.000 C 
ATOM     14  O   UNL     1      -2.205  14.915  20.498  0.00  0.00    +0.000 OA
ATOM     15  C   UNL     1      -0.159  14.918  19.213  0.00  0.00    +0.000 C 
ENDROOT
BRANCH   6  16
ATOM     16  N   UNL     1       2.106   7.753  19.606  0.00  0.00    +0.000 N 
ATOM     17  C   UNL     1       2.139   6.322  19.939  0.00  0.00    +0.000 C 
ATOM     18  C   UNL     1       3.456   5.718  19.393  0.00  0.00    +0.000 C 
ATOM     19  N   UNL     1       3.630   5.925  17.935  0.00  0.00    +0.000 NA
ATOM     20  C   UNL     1       4.933   5.423  17.503  0.00  0.00    +0.000 C 
ATOM     21  C   UNL     1       3.507   7.368  17.619  0.00  0.00    +0.000 C 
ATOM     22  C   UNL     1       2.197   7.993  18.152  0.00  0.00    +0.000 C 
ENDBRANCH   6  16
BRANCH   1  25
ATOM     23  C   UNL     1       2.924  16.197  20.743  0.00  0.00    +0.000 C 
ATOM     24  O   UNL     1       3.507  16.292  19.660  0.00  0.00    +0.000 OA
ATOM     25  N   UNL     1       1.735  15.466  20.893  0.00  0.00    +0.000 N 
ATOM     26  C   UNL     1       1.205  15.166  22.223  0.00  0.00    +0.000 C 
BRANCH  23  27
ATOM     27  C   UNL     1       3.504  16.912  21.981  0.00  0.00    +0.000 C 
BRANCH  27  29
ATOM     28  C   UNL     1       5.721  17.723  22.058  0.00  0.00    +0.000 C 
ATOM     29  O   UNL     1       4.369  18.010  21.720  0.00  0.00    +0.000 OA
ENDBRANCH  27  29
ENDBRANCH  23  27
ENDBRANCH   1  25
BRANCH  15  30
ATOM     30  C   UNL     1      -0.480  16.356  18.766  0.00  0.00    +0.000 C 
ATOM     31  C   UNL     1       0.561  17.119  17.956  0.00  0.00    +0.000 C 
BRANCH  30  32
ATOM     32  O   UNL     1      -0.796  17.143  19.924  0.00  0.00    +0.000 OA
ATOM     33  H   UNL     1      -1.610  16.754  20.311  0.00  0.00    +0.000 HD
ENDBRANCH  30  32
ENDBRANCH  15  30
TORSDOF 6
ENDMDL
MODEL 5
REMARK VINA RESULT:      -6.1      4.326      6.746
REMARK  Name = 
REMARK  10 active torsions:
REMARK  status: ('A' for Active; 'I' for Inactive)
REMARK    1  A    between atoms: C_1  and  O_2
REMARK    2  A    between atoms: O_2  and  C_3
REMARK    3  A    between atoms: C_3  and  C_4
REMARK    4  A    between atoms: N_6  and  C_7
REMARK    5  A    between atoms: N_6  and  C_8
REMARK    6  A    between atoms: C_13  and  N_14
REMARK    7  A    between atoms: N_17  and  C_18
REMARK    8  A    between atoms: C_29  and  C_30
REMARK    9  A    between atoms: C_30  and  C_31
REMARK   10  A    between atoms: C_30  and  O_32
REMARK                            x       y       z     vdW  Elec       q    Type
REMARK                         _______ _______ _______ _____ _____    ______ ____
ROOT
ATOM      1  C   UNL     1       0.225  12.108  20.645  0.00  0.00    +0.000 C 
ATOM      2  C   UNL     1       1.461  12.805  20.004  0.00  0.00    +0.000 C 
ATOM      3  C   UNL     1       1.717  14.216  20.564  0.00  0.00    +0.000 C 
ATOM      4  C   UNL     1       2.669  15.020  19.687  0.00  0.00    +0.000 A 
ATOM      5  C   UNL     1       4.036  14.700  19.653  0.00  0.00    +0.000 A 
ATOM      6  C   UNL     1       4.960  15.417  18.872  0.00  0.00    +0.000 A 
ATOM      7  C   UNL     1       4.465  16.462  18.085  0.00  0.00    +0.000 A 
ATOM      8  C   UNL     1       3.110  16.808  18.108  0.00  0.00    +0.000 A 
ATOM      9  C   UNL     1       2.218  16.110  18.926  0.00  0.00    +0.000 A 
ATOM     10  C   UNL     1       0.776  16.522  19.022  0.00  0.00    +0.000 C 
ATOM     11  C   UNL     1       0.298  16.293  20.453  0.00  0.00    +0.000 C 
ATOM     12  N   UNL     1       0.441  14.887  20.818  0.00  0.00    +0.000 N 
ATOM     13  C   UNL     1      -0.492  14.294  21.657  0.00  0.00    +0.000 C 
ATOM     14  O   UNL     1      -1.459  14.890  22.128  0.00  0.00    +0.000 OA
ATOM     15  C   UNL     1      -0.218  12.826  21.941  0.00  0.00    +0.000 C 
ENDROOT
BRANCH   6  16
ATOM     16  N   UNL     1       6.289  15.028  18.871  0.00  0.00    +0.000 N 
ATOM     17  C   UNL     1       6.980  14.665  17.625  0.00  0.00    +0.000 C 
ATOM     18  C   UNL     1       8.132  13.688  17.966  0.00  0.00    +0.000 C 
ATOM     19  N   UNL     1       9.087  14.237  18.958  0.00  0.00    +0.000 NA
ATOM     20  C   UNL     1      10.088  13.232  19.310  0.00  0.00    +0.000 C 
ATOM     21  C   UNL     1       8.350  14.673  20.169  0.00  0.00    +0.000 C 
ATOM     22  C   UNL     1       7.196  15.653  19.854  0.00  0.00    +0.000 C 
ENDBRANCH   6  16
BRANCH   1  25
ATOM     23  C   UNL     1      -1.141  10.499  19.363  0.00  0.00    +0.000 C 
ATOM     24  O   UNL     1      -0.686   9.572  20.038  0.00  0.00    +0.000 OA
ATOM     25  N   UNL     1      -0.822  11.841  19.623  0.00  0.00    +0.000 N 
ATOM     26  C   UNL     1      -1.172  12.891  18.665  0.00  0.00    +0.000 C 
BRANCH  23  27
ATOM     27  C   UNL     1      -2.107  10.188  18.202  0.00  0.00    +0.000 C 
BRANCH  27  29
ATOM     28  C   UNL     1      -2.433  10.089  15.865  0.00  0.00    +0.000 C 
ATOM     29  O   UNL     1      -1.505   9.954  16.935  0.00  0.00    +0.000 OA
ENDBRANCH  27  29
ENDBRANCH  23  27
ENDBRANCH   1  25
BRANCH  15  30
ATOM     30  C   UNL     1      -1.314  12.129  22.768  0.00  0.00    +0.000 C 
ATOM     31  C   UNL     1      -1.135  10.660  23.129  0.00  0.00    +0.000 C 
BRANCH  30  32
ATOM     32  O   UNL     1      -2.568  12.261  22.082  0.00  0.00    +0.000 OA
ATOM     33  H   UNL     1      -2.858  11.351  21.855  0.00  0.00    +0.000 HD
ENDBRANCH  30  32
ENDBRANCH  15  30
TORSDOF 6
ENDMDL
MODEL 6
REMARK VINA RESULT:      -6.1      4.302      7.269
REMARK  Name = 
REMARK  10 active torsions:
REMARK  status: ('A' for Active; 'I' for Inactive)
REMARK    1  A    between atoms: C_1  and  O_2
REMARK    2  A    between atoms: O_2  and  C_3
REMARK    3  A    between atoms: C_3  and  C_4
REMARK    4  A    between atoms: N_6  and  C_7
REMARK    5  A    between atoms: N_6  and  C_8
REMARK    6  A    between atoms: C_13  and  N_14
REMARK    7  A    between atoms: N_17  and  C_18
REMARK    8  A    between atoms: C_29  and  C_30
REMARK    9  A    between atoms: C_30  and  C_31
REMARK   10  A    between atoms: C_30  and  O_32
REMARK                            x       y       z     vdW  Elec       q    Type
REMARK                         _______ _______ _______ _____ _____    ______ ____
ROOT
ATOM      1  C   UNL     1      -0.063  12.242  20.747  0.00  0.00    +0.000 C 
ATOM      2  C   UNL     1       0.982  13.125  20.003  0.00  0.00    +0.000 C 
ATOM      3  C   UNL     1       0.969  14.594  20.463  0.00  0.00    +0.000 C 
ATOM      4  C   UNL     1       1.706  15.508  19.492  0.00  0.00    +0.000 A 
ATOM      5  C   UNL     1       3.107  15.464  19.406  0.00  0.00    +0.000 A 
ATOM      6  C   UNL     1       3.837  16.294  18.537  0.00  0.00    +0.000 A 
ATOM      7  C   UNL     1       3.111  17.163  17.715  0.00  0.00    +0.000 A 
ATOM      8  C   UNL     1       1.717  17.234  17.787  0.00  0.00    +0.000 A 
ATOM      9  C   UNL     1       1.016  16.432  18.691  0.00  0.00    +0.000 A 
ATOM     10  C   UNL     1      -0.476  16.554  18.835  0.00  0.00    +0.000 C 
ATOM     11  C   UNL     1      -0.842  16.334  20.300  0.00  0.00    +0.000 C 
ATOM     12  N   UNL     1      -0.405  15.014  20.742  0.00  0.00    +0.000 N 
ATOM     13  C   UNL     1      -1.167  14.307  21.662  0.00  0.00    +0.000 C 
ATOM     14  O   UNL     1      -2.215  14.730  22.145  0.00  0.00    +0.000 OA
ATOM     15  C   UNL     1      -0.591  12.946  22.019  0.00  0.00    +0.000 C 
ENDROOT
BRANCH   6  16
ATOM     16  N   UNL     1       5.216  16.178  18.491  0.00  0.00    +0.000 N 
ATOM     17  C   UNL     1       6.085  17.054  19.290  0.00  0.00    +0.000 C 
ATOM     18  C   UNL     1       7.456  17.169  18.581  0.00  0.00    +0.000 C 
ATOM     19  N   UNL     1       8.103  15.855  18.347  0.00  0.00    +0.000 NA
ATOM     20  C   UNL     1       9.340  16.026  17.587  0.00  0.00    +0.000 C 
ATOM     21  C   UNL     1       7.170  14.965  17.614  0.00  0.00    +0.000 C 
ATOM     22  C   UNL     1       5.794  14.832  18.305  0.00  0.00    +0.000 C 
ENDBRANCH   6  16
BRANCH   1  25
ATOM     23  C   UNL     1      -0.954  10.353  19.430  0.00  0.00    +0.000 C 
ATOM     24  O   UNL     1      -0.139   9.595  19.962  0.00  0.00    +0.000 OA
ATOM     25  N   UNL     1      -1.072  11.702  19.798  0.00  0.00    +0.000 N 
ATOM     26  C   UNL     1      -1.863  12.630  18.989  0.00  0.00    +0.000 C 
BRANCH  23  27
ATOM     27  C   UNL     1      -1.889   9.809  18.331  0.00  0.00    +0.000 C 
BRANCH  27  29
ATOM     28  C   UNL     1      -2.525  10.119  16.078  0.00  0.00    +0.000 C 
ATOM     29  O   UNL     1      -1.444   9.978  16.991  0.00  0.00    +0.000 OA
ENDBRANCH  27  29
ENDBRANCH  23  27
ENDBRANCH   1  25
BRANCH  15  30
ATOM     30  C   UNL     1      -1.492  12.104  22.942  0.00  0.00    +0.000 C 
ATOM     31  C   UNL     1      -1.116  10.651  23.204  0.00  0.00    +0.000 C 
BRANCH  30  32
ATOM     32  O   UNL     1      -2.832  12.123  22.426  0.00  0.00    +0.000 OA
ATOM     33  H   UNL     1      -2.872  11.431  21.731  0.00  0.00    +0.000 HD
ENDBRANCH  30  32
ENDBRANCH  15  30
TORSDOF 6
ENDMDL
MODEL 7
REMARK VINA RESULT:      -6.1      1.745      2.195
REMARK  Name = 
REMARK  10 active torsions:
REMARK  status: ('A' for Active; 'I' for Inactive)
REMARK    1  A    between atoms: C_1  and  O_2
REMARK    2  A    between atoms: O_2  and  C_3
REMARK    3  A    between atoms: C_3  and  C_4
REMARK    4  A    between atoms: N_6  and  C_7
REMARK    5  A    between atoms: N_6  and  C_8
REMARK    6  A    between atoms: C_13  and  N_14
REMARK    7  A    between atoms: N_17  and  C_18
REMARK    8  A    between atoms: C_29  and  C_30
REMARK    9  A    between atoms: C_30  and  C_31
REMARK   10  A    between atoms: C_30  and  O_32
REMARK                            x       y       z     vdW  Elec       q    Type
REMARK                         _______ _______ _______ _____ _____    ______ ____
ROOT
ATOM      1  C   UNL     1      -2.168  12.634  23.426  0.00  0.00    +0.000 C 
ATOM      2  C   UNL     1      -1.571  11.646  22.381  0.00  0.00    +0.000 C 
ATOM      3  C   UNL     1      -0.430  12.262  21.551  0.00  0.00    +0.000 C 
ATOM      4  C   UNL     1      -0.115  11.441  20.306  0.00  0.00    +0.000 A 
ATOM      5  C   UNL     1       0.533  10.202  20.424  0.00  0.00    +0.000 A 
ATOM      6  C   UNL     1       0.859   9.410  19.308  0.00  0.00    +0.000 A 
ATOM      7  C   UNL     1       0.481   9.886  18.048  0.00  0.00    +0.000 A 
ATOM      8  C   UNL     1      -0.157  11.122  17.902  0.00  0.00    +0.000 A 
ATOM      9  C   UNL     1      -0.430  11.912  19.021  0.00  0.00    +0.000 A 
ATOM     10  C   UNL     1      -1.043  13.276  18.872  0.00  0.00    +0.000 C 
ATOM     11  C   UNL     1      -0.452  14.195  19.938  0.00  0.00    +0.000 C 
ATOM     12  N   UNL     1      -0.724  13.669  21.271  0.00  0.00    +0.000 N 
ATOM     13  C   UNL     1      -0.962  14.543  22.322  0.00  0.00    +0.000 C 
ATOM     14  O   UNL     1      -0.958  15.766  22.203  0.00  0.00    +0.000 OA
ATOM     15  C   UNL     1      -1.240  13.851  23.647  0.00  0.00    +0.000 C 
ENDROOT
BRANCH   6  16
ATOM     16  N   UNL     1       1.479   8.187  19.505  0.00  0.00    +0.000 N 
ATOM     17  C   UNL     1       2.573   7.735  18.635  0.00  0.00    +0.000 C 
ATOM     18  C   UNL     1       2.601   6.187  18.639  0.00  0.00    +0.000 C 
ATOM     19  N   UNL     1       2.735   5.611  19.999  0.00  0.00    +0.000 NA
ATOM     20  C   UNL     1       2.653   4.153  19.943  0.00  0.00    +0.000 C 
ATOM     21  C   UNL     1       1.668   6.152  20.876  0.00  0.00    +0.000 C 
ATOM     22  C   UNL     1       1.624   7.697  20.890  0.00  0.00    +0.000 C 
ENDBRANCH   6  16
BRANCH   1  25
ATOM     23  C   UNL     1      -4.525  12.684  24.163  0.00  0.00    +0.000 C 
ATOM     24  O   UNL     1      -4.174  12.394  25.310  0.00  0.00    +0.000 OA
ATOM     25  N   UNL     1      -3.599  12.914  23.133  0.00  0.00    +0.000 N 
ATOM     26  C   UNL     1      -4.040  13.009  21.741  0.00  0.00    +0.000 C 
BRANCH  23  27
ATOM     27  C   UNL     1      -6.027  12.815  23.840  0.00  0.00    +0.000 C 
BRANCH  27  29
ATOM     28  C   UNL     1      -7.699  14.297  23.075  0.00  0.00    +0.000 C 
ATOM     29  O   UNL     1      -6.572  14.126  23.926  0.00  0.00    +0.000 OA
ENDBRANCH  27  29
ENDBRANCH  23  27
ENDBRANCH   1  25
BRANCH  15  30
ATOM     30  C   UNL     1      -1.627  14.808  24.789  0.00  0.00    +0.000 C 
ATOM     31  C   UNL     1      -2.789  15.770  24.575  0.00  0.00    +0.000 C 
BRANCH  30  32
ATOM     32  O   UNL     1      -0.477  15.586  25.153  0.00  0.00    +0.000 OA
ATOM     33  H   UNL     1       0.101  14.996  25.683  0.00  0.00    +0.000 HD
ENDBRANCH  30  32
ENDBRANCH  15  30
TORSDOF 6
ENDMDL
MODEL 8
REMARK VINA RESULT:      -6.0      1.957      2.615
REMARK  Name = 
REMARK  10 active torsions:
REMARK  status: ('A' for Active; 'I' for Inactive)
REMARK    1  A    between atoms: C_1  and  O_2
REMARK    2  A    between atoms: O_2  and  C_3
REMARK    3  A    between atoms: C_3  and  C_4
REMARK    4  A    between atoms: N_6  and  C_7
REMARK    5  A    between atoms: N_6  and  C_8
REMARK    6  A    between atoms: C_13  and  N_14
REMARK    7  A    between atoms: N_17  and  C_18
REMARK    8  A    between atoms: C_29  and  C_30
REMARK    9  A    between atoms: C_30  and  C_31
REMARK   10  A    between atoms: C_30  and  O_32
REMARK                            x       y       z     vdW  Elec       q    Type
REMARK                         _______ _______ _______ _____ _____    ______ ____
ROOT
ATOM      1  C   UNL     1      -2.783  13.009  23.414  0.00  0.00    +0.000 C 
ATOM      2  C   UNL     1      -2.039  12.106  22.387  0.00  0.00    +0.000 C 
ATOM      3  C   UNL     1      -0.712  12.714  21.898  0.00  0.00    +0.000 C 
ATOM      4  C   UNL     1      -0.191  12.027  20.643  0.00  0.00    +0.000 A 
ATOM      5  C   UNL     1       0.339  10.729  20.717  0.00  0.00    +0.000 A 
ATOM      6  C   UNL     1       0.846  10.053  19.593  0.00  0.00    +0.000 A 
ATOM      7  C   UNL     1       0.775  10.711  18.360  0.00  0.00    +0.000 A 
ATOM      8  C   UNL     1       0.261  12.007  18.259  0.00  0.00    +0.000 A 
ATOM      9  C   UNL     1      -0.195  12.676  19.398  0.00  0.00    +0.000 A 
ATOM     10  C   UNL     1      -0.676  14.098  19.317  0.00  0.00    +0.000 C 
ATOM     11  C   UNL     1      -0.269  14.823  20.597  0.00  0.00    +0.000 C 
ATOM     12  N   UNL     1      -0.852  14.165  21.762  0.00  0.00    +0.000 N 
ATOM     13  C   UNL     1      -1.254  14.923  22.853  0.00  0.00    +0.000 C 
ATOM     14  O   UNL     1      -1.148  16.146  22.906  0.00  0.00    +0.000 OA
ATOM     15  C   UNL     1      -1.849  14.102  23.985  0.00  0.00    +0.000 C 
ENDROOT
BRANCH   6  16
ATOM     16  N   UNL     1       1.332   8.765  19.740  0.00  0.00    +0.000 N 
ATOM     17  C   UNL     1       2.359   8.225  18.837  0.00  0.00    +0.000 C 
ATOM     18  C   UNL     1       2.218   6.684  18.794  0.00  0.00    +0.000 C 
ATOM     19  N   UNL     1       2.309   6.053  20.132  0.00  0.00    +0.000 NA
ATOM     20  C   UNL     1       2.068   4.615  20.033  0.00  0.00    +0.000 C 
ATOM     21  C   UNL     1       1.319   6.677  21.044  0.00  0.00    +0.000 C 
ATOM     22  C   UNL     1       1.443   8.217  21.107  0.00  0.00    +0.000 C 
ENDBRANCH   6  16
BRANCH   1  25
ATOM     23  C   UNL     1      -5.250  12.939  23.498  0.00  0.00    +0.000 C 
ATOM     24  O   UNL     1      -5.198  12.262  24.528  0.00  0.00    +0.000 OA
ATOM     25  N   UNL     1      -4.099  13.449  22.878  0.00  0.00    +0.000 N 
ATOM     26  C   UNL     1      -4.167  14.031  21.537  0.00  0.00    +0.000 C 
BRANCH  23  27
ATOM     27  C   UNL     1      -6.622  13.254  22.866  0.00  0.00    +0.000 C 
BRANCH  27  29
ATOM     28  C   UNL     1      -6.950  15.380  23.840  0.00  0.00    +0.000 C 
ATOM     29  O   UNL     1      -7.488  14.079  23.634  0.00  0.00    +0.000 OA
ENDBRANCH  27  29
ENDBRANCH  23  27
ENDBRANCH   1  25
BRANCH  15  30
ATOM     30  C   UNL     1      -2.411  14.943  25.145  0.00  0.00    +0.000 C 
ATOM     31  C   UNL     1      -1.435  15.571  26.133  0.00  0.00    +0.000 C 
BRANCH  30  32
ATOM     32  O   UNL     1      -3.337  14.142  25.895  0.00  0.00    +0.000 OA
ATOM     33  H   UNL     1      -3.892  14.767  26.409  0.00  0.00    +0.000 HD
ENDBRANCH  30  32
ENDBRANCH  15  30
TORSDOF 6
ENDMDL
MODEL 9
REMARK VINA RESULT:      -5.9      7.270     11.192
REMARK  Name = 
REMARK  10 active torsions:
REMARK  status: ('A' for Active; 'I' for Inactive)
REMARK    1  A    between atoms: C_1  and  O_2
REMARK    2  A    between atoms: O_2  and  C_3
REMARK    3  A    between atoms: C_3  and  C_4
REMARK    4  A    between atoms: N_6  and  C_7
REMARK    5  A    between atoms: N_6  and  C_8
REMARK    6  A    between atoms: C_13  and  N_14
REMARK    7  A    between atoms: N_17  and  C_18
REMARK    8  A    between atoms: C_29  and  C_30
REMARK    9  A    between atoms: C_30  and  C_31
REMARK   10  A    between atoms: C_30  and  O_32
REMARK                            x       y       z     vdW  Elec       q    Type
REMARK                         _______ _______ _______ _____ _____    ______ ____
ROOT
ATOM      1  C   UNL     1       8.815  15.136  18.335  0.00  0.00    +0.000 C 
ATOM      2  C   UNL     1       7.393  14.784  18.863  0.00  0.00    +0.000 C 
ATOM      3  C   UNL     1       6.652  15.996  19.456  0.00  0.00    +0.000 C 
ATOM      4  C   UNL     1       5.448  15.582  20.294  0.00  0.00    +0.000 A 
ATOM      5  C   UNL     1       4.294  15.081  19.671  0.00  0.00    +0.000 A 
ATOM      6  C   UNL     1       3.152  14.696  20.395  0.00  0.00    +0.000 A 
ATOM      7  C   UNL     1       3.208  14.796  21.789  0.00  0.00    +0.000 A 
ATOM      8  C   UNL     1       4.341  15.301  22.434  0.00  0.00    +0.000 A 
ATOM      9  C   UNL     1       5.448  15.719  21.691  0.00  0.00    +0.000 A 
ATOM     10  C   UNL     1       6.641  16.337  22.366  0.00  0.00    +0.000 C 
ATOM     11  C   UNL     1       7.207  17.423  21.455  0.00  0.00    +0.000 C 
ATOM     12  N   UNL     1       7.599  16.855  20.169  0.00  0.00    +0.000 N 
ATOM     13  C   UNL     1       8.706  17.360  19.501  0.00  0.00    +0.000 C 
ATOM     14  O   UNL     1       9.398  18.280  19.932  0.00  0.00    +0.000 OA
ATOM     15  C   UNL     1       8.997  16.664  18.182  0.00  0.00    +0.000 C 
ENDROOT
BRANCH   6  16
ATOM     16  N   UNL     1       2.058  14.189  19.712  0.00  0.00    +0.000 N 
ATOM     17  C   UNL     1       0.979  15.066  19.236  0.00  0.00    +0.000 C 
ATOM     18  C   UNL     1      -0.325  14.237  19.142  0.00  0.00    +0.000 C 
ATOM     19  N   UNL     1      -0.194  13.043  18.273  0.00  0.00    +0.000 NA
ATOM     20  C   UNL     1      -1.424  12.253  18.307  0.00  0.00    +0.000 C 
ATOM     21  C   UNL     1       0.955  12.222  18.726  0.00  0.00    +0.000 C 
ATOM     22  C   UNL     1       2.271  13.028  18.825  0.00  0.00    +0.000 C 
ENDBRANCH   6  16
BRANCH   1  25
ATOM     23  C   UNL     1      10.719  13.564  18.363  0.00  0.00    +0.000 C 
ATOM     24  O   UNL     1      10.715  13.534  17.129  0.00  0.00    +0.000 OA
ATOM     25  N   UNL     1       9.859  14.399  19.094  0.00  0.00    +0.000 N 
ATOM     26  C   UNL     1       9.712  14.235  20.541  0.00  0.00    +0.000 C 
BRANCH  23  27
ATOM     27  C   UNL     1      11.707  12.670  19.139  0.00  0.00    +0.000 C 
BRANCH  27  29
ATOM     28  C   UNL     1      10.177  10.890  19.392  0.00  0.00    +0.000 C 
ATOM     29  O   UNL     1      11.499  11.268  19.030  0.00  0.00    +0.000 OA
ENDBRANCH  27  29
ENDBRANCH  23  27
ENDBRANCH   1  25
BRANCH  15  30
ATOM     30  C   UNL     1      10.294  17.133  17.495  0.00  0.00    +0.000 C 
ATOM     31  C   UNL     1      10.465  18.615  17.190  0.00  0.00    +0.000 C 
BRANCH  30  32
ATOM     32  O   UNL     1      10.454  16.411  16.264  0.00  0.00    +0.000 OA
ATOM     33  H   UNL     1      11.129  16.898  15.743  0.00  0.00    +0.000 HD
ENDBRANCH  30  32
ENDBRANCH  15  30
TORSDOF 6
ENDMDL
