MODEL 1
REMARK VINA RESULT:      -8.3      0.000      0.000
REMARK  Name = 
REMARK  8 active torsions:
REMARK  status: ('A' for Active; 'I' for Inactive)
REMARK    1  A    between atoms: C_4  and  C_5
REMARK    2  A    between atoms: C_5  and  C_6
REMARK    3  A    between atoms: C_5  and  C_16
REMARK    4  A    between atoms: C_6  and  C_7
REMARK    5  A    between atoms: C_7  and  C_8
REMARK    6  A    between atoms: C_8  and  N_9
REMARK    7  A    between atoms: N_9  and  C_10
REMARK    8  A    between atoms: C_10  and  C_11
REMARK                            x       y       z     vdW  Elec       q    Type
REMARK                         _______ _______ _______ _____ _____    ______ ____
ROOT
ATOM      1  C   UNL     1       2.946   6.468  19.143  0.00  0.00    +0.000 C 
ENDROOT
BRANCH   1   5
ATOM      2  C   UNL     1       0.744   2.733  19.514  0.00  0.00    +0.000 A 
ATOM      3  C   UNL     1       1.170   3.185  18.269  0.00  0.00    +0.000 A 
ATOM      4  C   UNL     1       1.900   4.372  18.162  0.00  0.00    +0.000 A 
ATOM      5  C   UNL     1       2.218   5.129  19.302  0.00  0.00    +0.000 A 
ATOM      6  C   UNL     1       1.819   4.627  20.552  0.00  0.00    +0.000 A 
ATOM      7  C   UNL     1       1.074   3.451  20.659  0.00  0.00    +0.000 A 
ENDBRANCH   1   5
BRANCH   1   8
ATOM      8  C   UNL     1       2.100   7.744  19.207  0.00  0.00    +0.000 A 
ATOM      9  C   UNL     1       1.544   8.237  20.401  0.00  0.00    +0.000 A 
ATOM     10  C   UNL     1       0.711   9.360  20.400  0.00  0.00    +0.000 A 
ATOM     11  C   UNL     1       0.442  10.033  19.212  0.00  0.00    +0.000 A 
ATOM     12  C   UNL     1       1.023   9.596  18.027  0.00  0.00    +0.000 A 
ATOM     13  C   UNL     1       1.850   8.470  18.026  0.00  0.00    +0.000 A 
ENDBRANCH   1   8
BRANCH   1  14
ATOM     14  C   UNL     1       3.971   6.425  17.963  0.00  0.00    +0.000 C 
BRANCH  14  15
ATOM     15  C   UNL     1       5.462   6.184  18.264  0.00  0.00    +0.000 C 
BRANCH  15  16
ATOM     16  C   UNL     1       5.772   4.847  18.933  0.00  0.00    +0.000 C 
BRANCH  16  17
ATOM     17  N   UNL     1       6.578   4.005  18.043  0.00  0.00    +0.000 NA
ATOM     18  H   UNL     1       5.938   3.507  17.419  0.00  0.00    +0.000 HD
BRANCH  17  19
ATOM     19  C   UNL     1       7.435   4.857  17.205  0.00  0.00    +0.000 C 
BRANCH  19  20
ATOM     20  C   UNL     1       7.103   4.651  15.780  0.00  0.00    +0.000 A 
ATOM     21  N   UNL     1       7.615   5.227  14.713  0.00  0.00    +0.000 NA
ATOM     22  N   UNL     1       6.936   4.702  13.639  0.00  0.00    +0.000 NA
ATOM     23  N   UNL     1       6.024   3.823  14.033  0.00  0.00    +0.000 NA
ATOM     24  N   UNL     1       6.126   3.794  15.368  0.00  0.00    +0.000 N 
ATOM     25  H   UNL     1       5.502   3.219  15.922  0.00  0.00    +0.000 HD
ENDBRANCH  19  20
ENDBRANCH  17  19
ENDBRANCH  16  17
ENDBRANCH  15  16
ENDBRANCH  14  15
ENDBRANCH   1  14
TORSDOF 8
ENDMDL
MODEL 2
REMARK VINA RESULT:      -8.1      4.659      7.128
REMARK  Name = 
REMARK  8 active torsions:
REMARK  status: ('A' for Active; 'I' for Inactive)
REMARK    1  A    between atoms: C_4  and  C_5
REMARK    2  A    between atoms: C_5  and  C_6
REMARK    3  A    between atoms: C_5  and  C_16
REMARK    4  A    between atoms: C_6  and  C_7
REMARK    5  A    between atoms: C_7  and  C_8
REMARK    6  A    between atoms: C_8  and  N_9
REMARK    7  A    between atoms: N_9  and  C_10
REMARK    8  A    between atoms: C_10  and  C_11
REMARK                            x       y       z     vdW  Elec       q    Type
REMARK                         _______ _______ _______ _____ _____    ______ ____
ROOT
ATOM      1  C   UNL     1       2.949   6.076  18.034  0.00  0.00    +0.000 C 
ENDROOT
BRANCH   1   5
ATOM      2  C   UNL     1       0.719   2.785  19.805  0.00  0.00    +0.000 A 
ATOM      3  C   UNL     1       1.109   2.741  18.470  0.00  0.00    +0.000 A 
ATOM      4  C   UNL     1       1.848   3.790  17.917  0.00  0.00    +0.000 A 
ATOM      5  C   UNL     1       2.211   4.905  18.692  0.00  0.00    +0.000 A 
ATOM      6  C   UNL     1       1.847   4.904  20.049  0.00  0.00    +0.000 A 
ATOM      7  C   UNL     1       1.094   3.864  20.598  0.00  0.00    +0.000 A 
ENDBRANCH   1   5
BRANCH   1   8
ATOM      8  C   UNL     1       4.466   5.948  17.865  0.00  0.00    +0.000 A 
ATOM      9  C   UNL     1       5.122   6.151  16.638  0.00  0.00    +0.000 A 
ATOM     10  C   UNL     1       6.499   5.945  16.512  0.00  0.00    +0.000 A 
ATOM     11  C   UNL     1       7.254   5.562  17.616  0.00  0.00    +0.000 A 
ATOM     12  C   UNL     1       6.638   5.405  18.852  0.00  0.00    +0.000 A 
ATOM     13  C   UNL     1       5.261   5.606  18.977  0.00  0.00    +0.000 A 
ENDBRANCH   1   8
BRANCH   1  14
ATOM     14  C   UNL     1       2.470   7.449  18.610  0.00  0.00    +0.000 C 
BRANCH  14  15
ATOM     15  C   UNL     1       2.461   8.690  17.699  0.00  0.00    +0.000 C 
BRANCH  15  16
ATOM     16  C   UNL     1       1.311   9.662  17.953  0.00  0.00    +0.000 C 
BRANCH  16  17
ATOM     17  N   UNL     1       0.754   9.455  19.293  0.00  0.00    +0.000 NA
ATOM     18  H   UNL     1       1.306   8.724  19.752  0.00  0.00    +0.000 HD
BRANCH  17  19
ATOM     19  C   UNL     1       0.910  10.684  20.085  0.00  0.00    +0.000 C 
BRANCH  19  20
ATOM     20  C   UNL     1       0.566  10.416  21.497  0.00  0.00    +0.000 A 
ATOM     21  N   UNL     1       1.183   9.654  22.375  0.00  0.00    +0.000 NA
ATOM     22  N   UNL     1       0.438   9.728  23.528  0.00  0.00    +0.000 NA
ATOM     23  N   UNL     1      -0.618  10.515  23.365  0.00  0.00    +0.000 NA
ATOM     24  N   UNL     1      -0.540  10.941  22.098  0.00  0.00    +0.000 N 
ATOM     25  H   UNL     1      -1.261  11.535  21.706  0.00  0.00    +0.000 HD
ENDBRANCH  19  20
ENDBRANCH  17  19
ENDBRANCH  16  17
ENDBRANCH  15  16
ENDBRANCH  14  15
ENDBRANCH   1  14
TORSDOF 8
ENDMDL
MODEL 3
REMARK VINA RESULT:      -8.0      0.521      1.157
REMARK  Name = 
REMARK  8 active torsions:
REMARK  status: ('A' for Active; 'I' for Inactive)
REMARK    1  A    between atoms: C_4  and  C_5
REMARK    2  A    between atoms: C_5  and  C_6
REMARK    3  A    between atoms: C_5  and  C_16
REMARK    4  A    between atoms: C_6  and  C_7
REMARK    5  A    between atoms: C_7  and  C_8
REMARK    6  A    between atoms: C_8  and  N_9
REMARK    7  A    between atoms: N_9  and  C_10
REMARK    8  A    between atoms: C_10  and  C_11
REMARK                            x       y       z     vdW  Elec       q    Type
REMARK                         _______ _______ _______ _____ _____    ______ ____
ROOT
ATOM      1  C   UNL     1       2.963   6.331  19.190  0.00  0.00    +0.000 C 
ENDROOT
BRANCH   1   5
ATOM      2  C   UNL     1       0.818   2.568  19.620  0.00  0.00    +0.000 A 
ATOM      3  C   UNL     1       1.073   3.370  20.728  0.00  0.00    +0.000 A 
ATOM      4  C   UNL     1       1.739   4.590  20.577  0.00  0.00    +0.000 A 
ATOM      5  C   UNL     1       2.162   5.029  19.311  0.00  0.00    +0.000 A 
ATOM      6  C   UNL     1       1.849   4.226  18.202  0.00  0.00    +0.000 A 
ATOM      7  C   UNL     1       1.200   2.999  18.353  0.00  0.00    +0.000 A 
ENDBRANCH   1   5
BRANCH   1   8
ATOM      8  C   UNL     1       2.177   7.646  19.199  0.00  0.00    +0.000 A 
ATOM      9  C   UNL     1       1.554   8.161  20.350  0.00  0.00    +0.000 A 
ATOM     10  C   UNL     1       0.779   9.323  20.293  0.00  0.00    +0.000 A 
ATOM     11  C   UNL     1       0.637  10.013  19.093  0.00  0.00    +0.000 A 
ATOM     12  C   UNL     1       1.286   9.553  17.952  0.00  0.00    +0.000 A 
ATOM     13  C   UNL     1       2.056   8.388  18.008  0.00  0.00    +0.000 A 
ENDBRANCH   1   8
BRANCH   1  14
ATOM     14  C   UNL     1       4.053   6.230  18.074  0.00  0.00    +0.000 C 
BRANCH  14  15
ATOM     15  C   UNL     1       5.514   5.947  18.468  0.00  0.00    +0.000 C 
BRANCH  15  16
ATOM     16  C   UNL     1       5.919   4.475  18.414  0.00  0.00    +0.000 C 
BRANCH  16  17
ATOM     17  N   UNL     1       6.011   4.022  17.022  0.00  0.00    +0.000 NA
ATOM     18  H   UNL     1       5.194   4.383  16.521  0.00  0.00    +0.000 HD
BRANCH  17  19
ATOM     19  C   UNL     1       7.205   4.606  16.393  0.00  0.00    +0.000 C 
BRANCH  19  20
ATOM     20  C   UNL     1       7.086   4.523  14.923  0.00  0.00    +0.000 A 
ATOM     21  N   UNL     1       7.625   5.290  13.999  0.00  0.00    +0.000 NA
ATOM     22  N   UNL     1       7.175   4.803  12.795  0.00  0.00    +0.000 NA
ATOM     23  N   UNL     1       6.375   3.759  12.970  0.00  0.00    +0.000 NA
ATOM     24  N   UNL     1       6.317   3.588  14.298  0.00  0.00    +0.000 N 
ATOM     25  H   UNL     1       5.730   2.866  14.701  0.00  0.00    +0.000 HD
ENDBRANCH  19  20
ENDBRANCH  17  19
ENDBRANCH  16  17
ENDBRANCH  15  16
ENDBRANCH  14  15
ENDBRANCH   1  14
TORSDOF 8
ENDMDL
MODEL 4
REMARK VINA RESULT:      -8.0      0.701      1.756
REMARK  Name = 
REMARK  8 active torsions:
REMARK  status: ('A' for Active; 'I' for Inactive)
REMARK    1  A    between atoms: C_4  and  C_5
REMARK    2  A    between atoms: C_5  and  C_6
REMARK    3  A    between atoms: C_5  and  C_16
REMARK    4  A    between atoms: C_6  and  C_7
REMARK    5  A    between atoms: C_7  and  C_8
REMARK    6  A    between atoms: C_8  and  N_9
REMARK    7  A    between atoms: N_9  and  C_10
REMARK    8  A    between atoms: C_10  and  C_11
REMARK                            x       y       z     vdW  Elec       q    Type
REMARK                         _______ _______ _______ _____ _____    ______ ____
ROOT
ATOM      1  C   UNL     1       3.014   6.248  18.989  0.00  0.00    +0.000 C 
ENDROOT
BRANCH   1   5
ATOM      2  C   UNL     1       1.231   2.594  20.543  0.00  0.00    +0.000 A 
ATOM      3  C   UNL     1       1.895   3.476  21.390  0.00  0.00    +0.000 A 
ATOM      4  C   UNL     1       2.442   4.660  20.887  0.00  0.00    +0.000 A 
ATOM      5  C   UNL     1       2.333   4.983  19.524  0.00  0.00    +0.000 A 
ATOM      6  C   UNL     1       1.615   4.101  18.698  0.00  0.00    +0.000 A 
ATOM      7  C   UNL     1       1.085   2.910  19.196  0.00  0.00    +0.000 A 
ENDBRANCH   1   5
BRANCH   1   8
ATOM      8  C   UNL     1       2.213   7.553  19.031  0.00  0.00    +0.000 A 
ATOM      9  C   UNL     1       1.981   8.349  17.895  0.00  0.00    +0.000 A 
ATOM     10  C   UNL     1       1.313   9.572  17.995  0.00  0.00    +0.000 A 
ATOM     11  C   UNL     1       0.834  10.011  19.226  0.00  0.00    +0.000 A 
ATOM     12  C   UNL     1       1.004   9.217  20.355  0.00  0.00    +0.000 A 
ATOM     13  C   UNL     1       1.677   7.997  20.256  0.00  0.00    +0.000 A 
ENDBRANCH   1   8
BRANCH   1  14
ATOM     14  C   UNL     1       3.744   5.974  17.634  0.00  0.00    +0.000 C 
BRANCH  14  15
ATOM     15  C   UNL     1       4.903   6.889  17.200  0.00  0.00    +0.000 C 
BRANCH  15  16
ATOM     16  C   UNL     1       6.253   6.556  17.831  0.00  0.00    +0.000 C 
BRANCH  16  17
ATOM     17  N   UNL     1       6.337   5.123  18.131  0.00  0.00    +0.000 NA
ATOM     18  H   UNL     1       5.459   4.689  17.830  0.00  0.00    +0.000 HD
BRANCH  17  19
ATOM     19  C   UNL     1       7.419   4.518  17.340  0.00  0.00    +0.000 C 
BRANCH  19  20
ATOM     20  C   UNL     1       7.054   4.522  15.908  0.00  0.00    +0.000 A 
ATOM     21  N   UNL     1       6.165   3.789  15.273  0.00  0.00    +0.000 NA
ATOM     22  N   UNL     1       6.240   4.165  13.953  0.00  0.00    +0.000 NA
ATOM     23  N   UNL     1       7.157   5.108  13.775  0.00  0.00    +0.000 NA
ATOM     24  N   UNL     1       7.666   5.328  14.994  0.00  0.00    +0.000 N 
ATOM     25  H   UNL     1       8.423   5.988  15.127  0.00  0.00    +0.000 HD
ENDBRANCH  19  20
ENDBRANCH  17  19
ENDBRANCH  16  17
ENDBRANCH  15  16
ENDBRANCH  14  15
ENDBRANCH   1  14
TORSDOF 8
ENDMDL
MODEL 5
REMARK VINA RESULT:      -8.0      0.769      1.743
REMARK  Name = 
REMARK  8 active torsions:
REMARK  status: ('A' for Active; 'I' for Inactive)
REMARK    1  A    between atoms: C_4  and  C_5
REMARK    2  A    between atoms: C_5  and  C_6
REMARK    3  A    between atoms: C_5  and  C_16
REMARK    4  A    between atoms: C_6  and  C_7
REMARK    5  A    between atoms: C_7  and  C_8
REMARK    6  A    between atoms: C_8  and  N_9
REMARK    7  A    between atoms: N_9  and  C_10
REMARK    8  A    between atoms: C_10  and  C_11
REMARK                            x       y       z     vdW  Elec       q    Type
REMARK                         _______ _______ _______ _____ _____    ______ ____
ROOT
ATOM      1  C   UNL     1       3.061   6.228  19.450  0.00  0.00    +0.000 C 
ENDROOT
BRANCH   1   5
ATOM      2  C   UNL     1       0.868   2.476  19.677  0.00  0.00    +0.000 A 
ATOM      3  C   UNL     1       1.318   3.106  20.833  0.00  0.00    +0.000 A 
ATOM      4  C   UNL     1       1.998   4.324  20.753  0.00  0.00    +0.000 A 
ATOM      5  C   UNL     1       2.240   4.935  19.511  0.00  0.00    +0.000 A 
ATOM      6  C   UNL     1       1.733   4.304  18.362  0.00  0.00    +0.000 A 
ATOM      7  C   UNL     1       1.069   3.079  18.439  0.00  0.00    +0.000 A 
ENDBRANCH   1   5
BRANCH   1   8
ATOM      8  C   UNL     1       2.297   7.539  19.240  0.00  0.00    +0.000 A 
ATOM      9  C   UNL     1       2.249   8.211  18.005  0.00  0.00    +0.000 A 
ATOM     10  C   UNL     1       1.606   9.446  17.879  0.00  0.00    +0.000 A 
ATOM     11  C   UNL     1       0.972  10.021  18.976  0.00  0.00    +0.000 A 
ATOM     12  C   UNL     1       0.960   9.352  20.195  0.00  0.00    +0.000 A 
ATOM     13  C   UNL     1       1.607   8.120  20.322  0.00  0.00    +0.000 A 
ENDBRANCH   1   8
BRANCH   1  14
ATOM     14  C   UNL     1       4.328   6.059  18.549  0.00  0.00    +0.000 C 
BRANCH  14  15
ATOM     15  C   UNL     1       5.191   4.792  18.687  0.00  0.00    +0.000 C 
BRANCH  15  16
ATOM     16  C   UNL     1       6.544   4.859  17.984  0.00  0.00    +0.000 C 
BRANCH  16  17
ATOM     17  N   UNL     1       6.587   3.909  16.867  0.00  0.00    +0.000 NA
ATOM     18  H   UNL     1       6.213   3.016  17.202  0.00  0.00    +0.000 HD
BRANCH  17  19
ATOM     19  C   UNL     1       5.704   4.378  15.789  0.00  0.00    +0.000 C 
BRANCH  19  20
ATOM     20  C   UNL     1       6.487   4.572  14.551  0.00  0.00    +0.000 A 
ATOM     21  N   UNL     1       7.394   5.485  14.274  0.00  0.00    +0.000 NA
ATOM     22  N   UNL     1       7.791   5.240  12.981  0.00  0.00    +0.000 NA
ATOM     23  N   UNL     1       7.143   4.201  12.469  0.00  0.00    +0.000 NA
ATOM     24  N   UNL     1       6.327   3.788  13.448  0.00  0.00    +0.000 N 
ATOM     25  H   UNL     1       5.686   3.018  13.296  0.00  0.00    +0.000 HD
ENDBRANCH  19  20
ENDBRANCH  17  19
ENDBRANCH  16  17
ENDBRANCH  15  16
ENDBRANCH  14  15
ENDBRANCH   1  14
TORSDOF 8
ENDMDL
MODEL 6
REMARK VINA RESULT:      -7.9      0.950      1.145
REMARK  Name = 
REMARK  8 active torsions:
REMARK  status: ('A' for Active; 'I' for Inactive)
REMARK    1  A    between atoms: C_4  and  C_5
REMARK    2  A    between atoms: C_5  and  C_6
REMARK    3  A    between atoms: C_5  and  C_16
REMARK    4  A    between atoms: C_6  and  C_7
REMARK    5  A    between atoms: C_7  and  C_8
REMARK    6  A    between atoms: C_8  and  N_9
REMARK    7  A    between atoms: N_9  and  C_10
REMARK    8  A    between atoms: C_10  and  C_11
REMARK                            x       y       z     vdW  Elec       q    Type
REMARK                         _______ _______ _______ _____ _____    ______ ____
ROOT
ATOM      1  C   UNL     1       3.164   6.057  19.252  0.00  0.00    +0.000 C 
ENDROOT
BRANCH   1   5
ATOM      2  C   UNL     1       0.760   2.532  20.107  0.00  0.00    +0.000 A 
ATOM      3  C   UNL     1       0.945   2.964  18.797  0.00  0.00    +0.000 A 
ATOM      4  C   UNL     1       1.741   4.081  18.530  0.00  0.00    +0.000 A 
ATOM      5  C   UNL     1       2.366   4.788  19.571  0.00  0.00    +0.000 A 
ATOM      6  C   UNL     1       2.204   4.304  20.880  0.00  0.00    +0.000 A 
ATOM      7  C   UNL     1       1.395   3.198  21.150  0.00  0.00    +0.000 A 
ENDBRANCH   1   5
BRANCH   1   8
ATOM      8  C   UNL     1       2.401   7.386  19.246  0.00  0.00    +0.000 A 
ATOM      9  C   UNL     1       1.711   7.881  20.367  0.00  0.00    +0.000 A 
ATOM     10  C   UNL     1       0.962   9.058  20.293  0.00  0.00    +0.000 A 
ATOM     11  C   UNL     1       0.911   9.784  19.107  0.00  0.00    +0.000 A 
ATOM     12  C   UNL     1       1.627   9.343  17.999  0.00  0.00    +0.000 A 
ATOM     13  C   UNL     1       2.372   8.163  18.071  0.00  0.00    +0.000 A 
ENDBRANCH   1   8
BRANCH   1  14
ATOM     14  C   UNL     1       4.112   5.845  18.027  0.00  0.00    +0.000 C 
BRANCH  14  15
ATOM     15  C   UNL     1       5.597   6.233  18.144  0.00  0.00    +0.000 C 
BRANCH  15  16
ATOM     16  C   UNL     1       6.160   6.983  16.939  0.00  0.00    +0.000 C 
BRANCH  16  17
ATOM     17  N   UNL     1       7.358   6.305  16.431  0.00  0.00    +0.000 NA
ATOM     18  H   UNL     1       8.056   6.300  17.180  0.00  0.00    +0.000 HD
BRANCH  17  19
ATOM     19  C   UNL     1       7.036   4.904  16.122  0.00  0.00    +0.000 C 
BRANCH  19  20
ATOM     20  C   UNL     1       7.050   4.700  14.658  0.00  0.00    +0.000 A 
ATOM     21  N   UNL     1       7.714   5.357  13.732  0.00  0.00    +0.000 NA
ATOM     22  N   UNL     1       7.351   4.789  12.533  0.00  0.00    +0.000 NA
ATOM     23  N   UNL     1       6.480   3.804  12.715  0.00  0.00    +0.000 NA
ATOM     24  N   UNL     1       6.290   3.752  14.040  0.00  0.00    +0.000 N 
ATOM     25  H   UNL     1       5.629   3.097  14.442  0.00  0.00    +0.000 HD
ENDBRANCH  19  20
ENDBRANCH  17  19
ENDBRANCH  16  17
ENDBRANCH  15  16
ENDBRANCH  14  15
ENDBRANCH   1  14
TORSDOF 8
ENDMDL
MODEL 7
REMARK VINA RESULT:      -7.9      4.595      7.150
REMARK  Name = 
REMARK  8 active torsions:
REMARK  status: ('A' for Active; 'I' for Inactive)
REMARK    1  A    between atoms: C_4  and  C_5
REMARK    2  A    between atoms: C_5  and  C_6
REMARK    3  A    between atoms: C_5  and  C_16
REMARK    4  A    between atoms: C_6  and  C_7
REMARK    5  A    between atoms: C_7  and  C_8
REMARK    6  A    between atoms: C_8  and  N_9
REMARK    7  A    between atoms: N_9  and  C_10
REMARK    8  A    between atoms: C_10  and  C_11
REMARK                            x       y       z     vdW  Elec       q    Type
REMARK                         _______ _______ _______ _____ _____    ______ ____
ROOT
ATOM      1  C   UNL     1       3.145   6.100  18.021  0.00  0.00    +0.000 C 
ENDROOT
BRANCH   1   5
ATOM      2  C   UNL     1       1.224   2.389  19.236  0.00  0.00    +0.000 A 
ATOM      3  C   UNL     1       1.082   3.544  19.998  0.00  0.00    +0.000 A 
ATOM      4  C   UNL     1       1.681   4.738  19.586  0.00  0.00    +0.000 A 
ATOM      5  C   UNL     1       2.432   4.797  18.401  0.00  0.00    +0.000 A 
ATOM      6  C   UNL     1       2.520   3.630  17.623  0.00  0.00    +0.000 A 
ATOM      7  C   UNL     1       1.938   2.433  18.042  0.00  0.00    +0.000 A 
ENDBRANCH   1   5
BRANCH   1   8
ATOM      8  C   UNL     1       4.676   6.111  18.085  0.00  0.00    +0.000 A 
ATOM      9  C   UNL     1       5.480   6.741  17.119  0.00  0.00    +0.000 A 
ATOM     10  C   UNL     1       6.875   6.657  17.174  0.00  0.00    +0.000 A 
ATOM     11  C   UNL     1       7.495   5.969  18.213  0.00  0.00    +0.000 A 
ATOM     12  C   UNL     1       6.722   5.383  19.209  0.00  0.00    +0.000 A 
ATOM     13  C   UNL     1       5.329   5.462  19.151  0.00  0.00    +0.000 A 
ENDBRANCH   1   8
BRANCH   1  14
ATOM     14  C   UNL     1       2.456   7.341  18.675  0.00  0.00    +0.000 C 
BRANCH  14  15
ATOM     15  C   UNL     1       2.405   8.673  17.904  0.00  0.00    +0.000 C 
BRANCH  15  16
ATOM     16  C   UNL     1       1.072   9.412  17.989  0.00  0.00    +0.000 C 
BRANCH  16  17
ATOM     17  N   UNL     1       1.112  10.417  19.056  0.00  0.00    +0.000 NA
ATOM     18  H   UNL     1       1.190  11.338  18.616  0.00  0.00    +0.000 HD
BRANCH  17  19
ATOM     19  C   UNL     1      -0.155  10.393  19.802  0.00  0.00    +0.000 C 
BRANCH  19  20
ATOM     20  C   UNL     1       0.116  10.190  21.240  0.00  0.00    +0.000 A 
ATOM     21  N   UNL     1       1.122   9.570  21.819  0.00  0.00    +0.000 NA
ATOM     22  N   UNL     1       0.881   9.641  23.171  0.00  0.00    +0.000 NA
ATOM     23  N   UNL     1      -0.250  10.289  23.422  0.00  0.00    +0.000 NA
ATOM     24  N   UNL     1      -0.728  10.628  22.217  0.00  0.00    +0.000 N 
ATOM     25  H   UNL     1      -1.617  11.106  22.130  0.00  0.00    +0.000 HD
ENDBRANCH  19  20
ENDBRANCH  17  19
ENDBRANCH  16  17
ENDBRANCH  15  16
ENDBRANCH  14  15
ENDBRANCH   1  14
TORSDOF 8
ENDMDL
MODEL 8
REMARK VINA RESULT:      -7.9      0.741      1.601
REMARK  Name = 
REMARK  8 active torsions:
REMARK  status: ('A' for Active; 'I' for Inactive)
REMARK    1  A    between atoms: C_4  and  C_5
REMARK    2  A    between atoms: C_5  and  C_6
REMARK    3  A    between atoms: C_5  and  C_16
REMARK    4  A    between atoms: C_6  and  C_7
REMARK    5  A    between atoms: C_7  and  C_8
REMARK    6  A    between atoms: C_8  and  N_9
REMARK    7  A    between atoms: N_9  and  C_10
REMARK    8  A    between atoms: C_10  and  C_11
REMARK                            x       y       z     vdW  Elec       q    Type
REMARK                         _______ _______ _______ _____ _____    ______ ____
ROOT
ATOM      1  C   UNL     1       2.805   6.339  19.409  0.00  0.00    +0.000 C 
ENDROOT
BRANCH   1   5
ATOM      2  C   UNL     1       1.183   2.637  21.022  0.00  0.00    +0.000 A 
ATOM      3  C   UNL     1       2.090   3.394  21.758  0.00  0.00    +0.000 A 
ATOM      4  C   UNL     1       2.585   4.595  21.243  0.00  0.00    +0.000 A 
ATOM      5  C   UNL     1       2.180   5.061  19.981  0.00  0.00    +0.000 A 
ATOM      6  C   UNL     1       1.227   4.304  19.279  0.00  0.00    +0.000 A 
ATOM      7  C   UNL     1       0.745   3.095  19.784  0.00  0.00    +0.000 A 
ENDBRANCH   1   5
BRANCH   1   8
ATOM      8  C   UNL     1       2.020   7.644  19.578  0.00  0.00    +0.000 A 
ATOM      9  C   UNL     1       1.881   8.595  18.552  0.00  0.00    +0.000 A 
ATOM     10  C   UNL     1       1.224   9.808  18.776  0.00  0.00    +0.000 A 
ATOM     11  C   UNL     1       0.664  10.084  20.020  0.00  0.00    +0.000 A 
ATOM     12  C   UNL     1       0.743   9.137  21.035  0.00  0.00    +0.000 A 
ATOM     13  C   UNL     1       1.405   7.927  20.814  0.00  0.00    +0.000 A 
ENDBRANCH   1   8
BRANCH   1  14
ATOM     14  C   UNL     1       3.377   6.103  17.973  0.00  0.00    +0.000 C 
BRANCH  14  15
ATOM     15  C   UNL     1       4.258   4.870  17.704  0.00  0.00    +0.000 C 
BRANCH  15  16
ATOM     16  C   UNL     1       5.533   4.797  18.541  0.00  0.00    +0.000 C 
BRANCH  16  17
ATOM     17  N   UNL     1       6.531   3.951  17.880  0.00  0.00    +0.000 NA
ATOM     18  H   UNL     1       6.036   3.334  17.228  0.00  0.00    +0.000 HD
BRANCH  17  19
ATOM     19  C   UNL     1       7.439   4.791  17.085  0.00  0.00    +0.000 C 
BRANCH  19  20
ATOM     20  C   UNL     1       7.152   4.614  15.646  0.00  0.00    +0.000 A 
ATOM     21  N   UNL     1       7.551   5.338  14.622  0.00  0.00    +0.000 NA
ATOM     22  N   UNL     1       6.981   4.764  13.510  0.00  0.00    +0.000 NA
ATOM     23  N   UNL     1       6.244   3.711  13.840  0.00  0.00    +0.000 NA
ATOM     24  N   UNL     1       6.348   3.620  15.172  0.00  0.00    +0.000 N 
ATOM     25  H   UNL     1       5.839   2.909  15.683  0.00  0.00    +0.000 HD
ENDBRANCH  19  20
ENDBRANCH  17  19
ENDBRANCH  16  17
ENDBRANCH  15  16
ENDBRANCH  14  15
ENDBRANCH   1  14
TORSDOF 8
ENDMDL
MODEL 9
REMARK VINA RESULT:      -7.9      4.807      7.267
REMARK  Name = 
REMARK  8 active torsions:
REMARK  status: ('A' for Active; 'I' for Inactive)
REMARK    1  A    between atoms: C_4  and  C_5
REMARK    2  A    between atoms: C_5  and  C_6
REMARK    3  A    between atoms: C_5  and  C_16
REMARK    4  A    between atoms: C_6  and  C_7
REMARK    5  A    between atoms: C_7  and  C_8
REMARK    6  A    between atoms: C_8  and  N_9
REMARK    7  A    between atoms: N_9  and  C_10
REMARK    8  A    between atoms: C_10  and  C_11
REMARK                            x       y       z     vdW  Elec       q    Type
REMARK                         _______ _______ _______ _____ _____    ______ ____
ROOT
ATOM      1  C   UNL     1       2.863   5.756  18.052  0.00  0.00    +0.000 C 
ENDROOT
BRANCH   1   5
ATOM      2  C   UNL     1       1.211   2.946  20.935  0.00  0.00    +0.000 A 
ATOM      3  C   UNL     1       0.840   2.889  19.595  0.00  0.00    +0.000 A 
ATOM      4  C   UNL     1       1.396   3.778  18.671  0.00  0.00    +0.000 A 
ATOM      5  C   UNL     1       2.335   4.742  19.073  0.00  0.00    +0.000 A 
ATOM      6  C   UNL     1       2.730   4.749  20.421  0.00  0.00    +0.000 A 
ATOM      7  C   UNL     1       2.163   3.873  21.348  0.00  0.00    +0.000 A 
ENDBRANCH   1   5
BRANCH   1   8
ATOM      8  C   UNL     1       4.219   5.462  17.401  0.00  0.00    +0.000 A 
ATOM      9  C   UNL     1       5.326   6.321  17.512  0.00  0.00    +0.000 A 
ATOM     10  C   UNL     1       6.519   6.051  16.835  0.00  0.00    +0.000 A 
ATOM     11  C   UNL     1       6.642   4.902  16.060  0.00  0.00    +0.000 A 
ATOM     12  C   UNL     1       5.578   4.010  15.977  0.00  0.00    +0.000 A 
ATOM     13  C   UNL     1       4.384   4.282  16.649  0.00  0.00    +0.000 A 
ENDBRANCH   1   8
BRANCH   1  14
ATOM     14  C   UNL     1       2.689   7.224  18.561  0.00  0.00    +0.000 C 
BRANCH  14  15
ATOM     15  C   UNL     1       2.141   8.297  17.603  0.00  0.00    +0.000 C 
BRANCH  15  16
ATOM     16  C   UNL     1       1.641   9.569  18.284  0.00  0.00    +0.000 C 
BRANCH  16  17
ATOM     17  N   UNL     1       1.193   9.275  19.649  0.00  0.00    +0.000 NA
ATOM     18  H   UNL     1       1.867   9.694  20.297  0.00  0.00    +0.000 HD
BRANCH  17  19
ATOM     19  C   UNL     1      -0.106   9.919  19.890  0.00  0.00    +0.000 C 
BRANCH  19  20
ATOM     20  C   UNL     1      -0.254  10.223  21.328  0.00  0.00    +0.000 A 
ATOM     21  N   UNL     1      -0.792  11.276  21.906  0.00  0.00    +0.000 NA
ATOM     22  N   UNL     1      -0.648  11.079  23.259  0.00  0.00    +0.000 NA
ATOM     23  N   UNL     1      -0.033   9.930  23.512  0.00  0.00    +0.000 NA
ATOM     24  N   UNL     1       0.215   9.399  22.308  0.00  0.00    +0.000 N 
ATOM     25  H   UNL     1       0.720   8.525  22.222  0.00  0.00    +0.000 HD
ENDBRANCH  19  20
ENDBRANCH  17  19
ENDBRANCH  16  17
ENDBRANCH  15  16
ENDBRANCH  14  15
ENDBRANCH   1  14
TORSDOF 8
ENDMDL
