MODEL 1
REMARK VINA RESULT:      -7.6      0.000      0.000
REMARK  Name = 
REMARK  8 active torsions:
REMARK  status: ('A' for Active; 'I' for Inactive)
REMARK    1  A    between atoms: C_1  and  C_2
REMARK    2  A    between atoms: C_2  and  C_3
REMARK    3  A    between atoms: C_6  and  C_7
REMARK    4  A    between atoms: C_7  and  N_8
REMARK    5  A    between atoms: C_7  and  C_21
REMARK    6  A    between atoms: C_21  and  C_22
REMARK    7  A    between atoms: C_21  and  C_23
REMARK    8  A    between atoms: C_21  and  C_24
REMARK                            x       y       z     vdW  Elec       q    Type
REMARK                         _______ _______ _______ _____ _____    ______ ____
ROOT
ATOM      1  N   UNL     1       3.034   6.121  19.161  0.00  0.00    +0.000 N 
ATOM      2  C   UNL     1       2.206   6.552  20.172  0.00  0.00    +0.000 C 
ATOM      3  O   UNL     1       1.846   5.844  21.111  0.00  0.00    +0.000 OA
ATOM      4  N   UNL     1       1.834   7.880  20.014  0.00  0.00    +0.000 N 
ATOM      5  C   UNL     1       1.047   8.576  21.007  0.00  0.00    +0.000 C 
ATOM      6  C   UNL     1       0.947  10.020  20.496  0.00  0.00    +0.000 C 
ATOM      7  C   UNL     1      -0.493  10.567  20.530  0.00  0.00    +0.000 C 
ATOM      8  C   UNL     1      -0.663  12.002  20.029  0.00  0.00    +0.000 C 
ATOM      9  C   UNL     1      -0.195  11.893  18.579  0.00  0.00    +0.000 C 
ATOM     10  C   UNL     1      -0.108  10.376  18.396  0.00  0.00    +0.000 C 
ATOM     11  O   UNL     1      -1.055   9.884  19.379  0.00  0.00    +0.000 OA
ATOM     12  C   UNL     1       1.223   9.909  18.978  0.00  0.00    +0.000 C 
ATOM     13  C   UNL     1       1.553   8.446  18.709  0.00  0.00    +0.000 C 
ATOM     14  H   UNL     1       3.678   6.839  18.887  0.00  0.00    +0.000 HD
ENDROOT
BRANCH   1  15
ATOM     15  C   UNL     1       3.592   4.770  19.042  0.00  0.00    +0.000 C 
BRANCH  15  19
ATOM     16  C   UNL     1       6.076   5.039  16.420  0.00  0.00    +0.000 A 
ATOM     17  C   UNL     1       6.957   4.698  17.423  0.00  0.00    +0.000 A 
ATOM     18  C   UNL     1       6.190   4.553  18.597  0.00  0.00    +0.000 A 
ATOM     19  C   UNL     1       4.880   4.817  18.255  0.00  0.00    +0.000 A 
ATOM     20  O   UNL     1       4.805   5.113  16.917  0.00  0.00    +0.000 OA
BRANCH  16  22
ATOM     21  C   UNL     1       5.760   4.080  14.165  0.00  0.00    +0.000 C 
ATOM     22  C   UNL     1       6.254   5.274  14.968  0.00  0.00    +0.000 C 
ENDBRANCH  16  22
ENDBRANCH  15  19
BRANCH  15  23
ATOM     23  C   UNL     1       2.534   3.793  18.412  0.00  0.00    +0.000 C 
ATOM     24  C   UNL     1       3.211   2.721  17.531  0.00  0.00    +0.000 C 
ATOM     25  C   UNL     1       1.765   3.059  19.537  0.00  0.00    +0.000 C 
ATOM     26  C   UNL     1       1.491   4.529  17.543  0.00  0.00    +0.000 C 
ENDBRANCH  15  23
ENDBRANCH   1  15
TORSDOF 4
ENDMDL
MODEL 2
REMARK VINA RESULT:      -7.5      1.265      1.671
REMARK  Name = 
REMARK  8 active torsions:
REMARK  status: ('A' for Active; 'I' for Inactive)
REMARK    1  A    between atoms: C_1  and  C_2
REMARK    2  A    between atoms: C_2  and  C_3
REMARK    3  A    between atoms: C_6  and  C_7
REMARK    4  A    between atoms: C_7  and  N_8
REMARK    5  A    between atoms: C_7  and  C_21
REMARK    6  A    between atoms: C_21  and  C_22
REMARK    7  A    between atoms: C_21  and  C_23
REMARK    8  A    between atoms: C_21  and  C_24
REMARK                            x       y       z     vdW  Elec       q    Type
REMARK                         _______ _______ _______ _____ _____    ______ ____
ROOT
ATOM      1  N   UNL     1       3.213   6.400  19.232  0.00  0.00    +0.000 N 
ATOM      2  C   UNL     1       2.247   6.702  20.164  0.00  0.00    +0.000 C 
ATOM      3  O   UNL     1       1.832   5.903  21.003  0.00  0.00    +0.000 OA
ATOM      4  N   UNL     1       1.803   8.013  20.054  0.00  0.00    +0.000 N 
ATOM      5  C   UNL     1       0.860   8.582  20.990  0.00  0.00    +0.000 C 
ATOM      6  C   UNL     1       0.719  10.051  20.571  0.00  0.00    +0.000 C 
ATOM      7  C   UNL     1      -0.749  10.504  20.470  0.00  0.00    +0.000 C 
ATOM      8  C   UNL     1      -0.961  11.960  20.051  0.00  0.00    +0.000 C 
ATOM      9  C   UNL     1      -0.323  11.990  18.664  0.00  0.00    +0.000 C 
ATOM     10  C   UNL     1      -0.110  10.500  18.389  0.00  0.00    +0.000 C 
ATOM     11  O   UNL     1      -1.127   9.877  19.217  0.00  0.00    +0.000 OA
ATOM     12  C   UNL     1       1.174  10.072  19.093  0.00  0.00    +0.000 C 
ATOM     13  C   UNL     1       1.635   8.657  18.766  0.00  0.00    +0.000 C 
ATOM     14  H   UNL     1       3.833   7.175  19.086  0.00  0.00    +0.000 HD
ENDROOT
BRANCH   1  15
ATOM     15  C   UNL     1       3.873   5.098  19.089  0.00  0.00    +0.000 C 
BRANCH  15  19
ATOM     16  C   UNL     1       7.006   6.395  17.814  0.00  0.00    +0.000 A 
ATOM     17  C   UNL     1       7.512   5.190  18.250  0.00  0.00    +0.000 A 
ATOM     18  C   UNL     1       6.434   4.489  18.827  0.00  0.00    +0.000 A 
ATOM     19  C   UNL     1       5.324   5.300  18.719  0.00  0.00    +0.000 A 
ATOM     20  O   UNL     1       5.670   6.472  18.094  0.00  0.00    +0.000 OA
BRANCH  16  22
ATOM     21  C   UNL     1       8.195   8.546  18.063  0.00  0.00    +0.000 C 
ATOM     22  C   UNL     1       7.616   7.533  17.088  0.00  0.00    +0.000 C 
ENDBRANCH  16  22
ENDBRANCH  15  19
BRANCH  15  23
ATOM     23  C   UNL     1       3.105   4.204  18.050  0.00  0.00    +0.000 C 
ATOM     24  C   UNL     1       3.895   4.063  16.732  0.00  0.00    +0.000 C 
ATOM     25  C   UNL     1       2.904   2.783  18.631  0.00  0.00    +0.000 C 
ATOM     26  C   UNL     1       1.707   4.763  17.705  0.00  0.00    +0.000 C 
ENDBRANCH  15  23
ENDBRANCH   1  15
TORSDOF 4
ENDMDL
MODEL 3
REMARK VINA RESULT:      -7.4      2.068      7.904
REMARK  Name = 
REMARK  8 active torsions:
REMARK  status: ('A' for Active; 'I' for Inactive)
REMARK    1  A    between atoms: C_1  and  C_2
REMARK    2  A    between atoms: C_2  and  C_3
REMARK    3  A    between atoms: C_6  and  C_7
REMARK    4  A    between atoms: C_7  and  N_8
REMARK    5  A    between atoms: C_7  and  C_21
REMARK    6  A    between atoms: C_21  and  C_22
REMARK    7  A    between atoms: C_21  and  C_23
REMARK    8  A    between atoms: C_21  and  C_24
REMARK                            x       y       z     vdW  Elec       q    Type
REMARK                         _______ _______ _______ _____ _____    ______ ____
ROOT
ATOM      1  N   UNL     1       0.876   9.678  19.267  0.00  0.00    +0.000 N 
ATOM      2  C   UNL     1       1.302   8.723  20.160  0.00  0.00    +0.000 C 
ATOM      3  O   UNL     1       1.243   8.852  21.382  0.00  0.00    +0.000 OA
ATOM      4  N   UNL     1       1.797   7.593  19.522  0.00  0.00    +0.000 N 
ATOM      5  C   UNL     1       2.212   6.420  20.259  0.00  0.00    +0.000 C 
ATOM      6  C   UNL     1       2.591   5.390  19.186  0.00  0.00    +0.000 C 
ATOM      7  C   UNL     1       3.952   4.721  19.457  0.00  0.00    +0.000 C 
ATOM      8  C   UNL     1       4.393   3.685  18.421  0.00  0.00    +0.000 C 
ATOM      9  C   UNL     1       4.483   4.523  17.148  0.00  0.00    +0.000 C 
ATOM     10  C   UNL     1       4.365   5.944  17.704  0.00  0.00    +0.000 C 
ATOM     11  O   UNL     1       4.849   5.792  19.064  0.00  0.00    +0.000 OA
ATOM     12  C   UNL     1       2.885   6.239  17.927  0.00  0.00    +0.000 C 
ATOM     13  C   UNL     1       2.576   7.683  18.303  0.00  0.00    +0.000 C 
ATOM     14  H   UNL     1       0.428   9.260  18.473  0.00  0.00    +0.000 HD
ENDROOT
BRANCH   1  15
ATOM     15  C   UNL     1       0.308  10.982  19.629  0.00  0.00    +0.000 C 
BRANCH  15  19
ATOM     16  C   UNL     1      -2.720  10.629  17.673  0.00  0.00    +0.000 A 
ATOM     17  C   UNL     1      -3.199  11.612  18.510  0.00  0.00    +0.000 A 
ATOM     18  C   UNL     1      -2.158  11.913  19.412  0.00  0.00    +0.000 A 
ATOM     19  C   UNL     1      -1.096  11.096  19.085  0.00  0.00    +0.000 A 
ATOM     20  O   UNL     1      -1.435  10.307  18.014  0.00  0.00    +0.000 OA
BRANCH  16  22
ATOM     21  C   UNL     1      -2.992  10.694  15.219  0.00  0.00    +0.000 C 
ATOM     22  C   UNL     1      -3.306   9.938  16.501  0.00  0.00    +0.000 C 
ENDBRANCH  16  22
ENDBRANCH  15  19
BRANCH  15  23
ATOM     23  C   UNL     1       1.244  12.144  19.135  0.00  0.00    +0.000 C 
ATOM     24  C   UNL     1       0.438  13.257  18.433  0.00  0.00    +0.000 C 
ATOM     25  C   UNL     1       1.969  12.782  20.345  0.00  0.00    +0.000 C 
ATOM     26  C   UNL     1       2.329  11.654  18.151  0.00  0.00    +0.000 C 
ENDBRANCH  15  23
ENDBRANCH   1  15
TORSDOF 4
ENDMDL
MODEL 4
REMARK VINA RESULT:      -7.3      1.252      1.759
REMARK  Name = 
REMARK  8 active torsions:
REMARK  status: ('A' for Active; 'I' for Inactive)
REMARK    1  A    between atoms: C_1  and  C_2
REMARK    2  A    between atoms: C_2  and  C_3
REMARK    3  A    between atoms: C_6  and  C_7
REMARK    4  A    between atoms: C_7  and  N_8
REMARK    5  A    between atoms: C_7  and  C_21
REMARK    6  A    between atoms: C_21  and  C_22
REMARK    7  A    between atoms: C_21  and  C_23
REMARK    8  A    between atoms: C_21  and  C_24
REMARK                            x       y       z     vdW  Elec       q    Type
REMARK                         _______ _______ _______ _____ _____    ______ ____
ROOT
ATOM      1  N   UNL     1       3.007   6.514  19.515  0.00  0.00    +0.000 N 
ATOM      2  C   UNL     1       1.978   6.828  20.372  0.00  0.00    +0.000 C 
ATOM      3  O   UNL     1       1.451   6.019  21.136  0.00  0.00    +0.000 OA
ATOM      4  N   UNL     1       1.610   8.164  20.284  0.00  0.00    +0.000 N 
ATOM      5  C   UNL     1       0.617   8.743  21.160  0.00  0.00    +0.000 C 
ATOM      6  C   UNL     1       0.586  10.234  20.797  0.00  0.00    +0.000 C 
ATOM      7  C   UNL     1      -0.844  10.767  20.590  0.00  0.00    +0.000 C 
ATOM      8  C   UNL     1      -0.947  12.249  20.220  0.00  0.00    +0.000 C 
ATOM      9  C   UNL     1      -0.188  12.301  18.896  0.00  0.00    +0.000 C 
ATOM     10  C   UNL     1      -0.024  10.814  18.574  0.00  0.00    +0.000 C 
ATOM     11  O   UNL     1      -1.140  10.213  19.281  0.00  0.00    +0.000 OA
ATOM     12  C   UNL     1       1.170  10.291  19.366  0.00  0.00    +0.000 C 
ATOM     13  C   UNL     1       1.588   8.868  19.017  0.00  0.00    +0.000 C 
ATOM     14  H   UNL     1       3.674   7.261  19.459  0.00  0.00    +0.000 HD
ENDROOT
BRANCH   1  15
ATOM     15  C   UNL     1       3.613   5.186  19.371  0.00  0.00    +0.000 C 
BRANCH  15  19
ATOM     16  C   UNL     1       6.755   6.240  17.909  0.00  0.00    +0.000 A 
ATOM     17  C   UNL     1       7.265   5.154  18.587  0.00  0.00    +0.000 A 
ATOM     18  C   UNL     1       6.184   4.569  19.277  0.00  0.00    +0.000 A 
ATOM     19  C   UNL     1       5.067   5.328  18.991  0.00  0.00    +0.000 A 
ATOM     20  O   UNL     1       5.414   6.354  18.148  0.00  0.00    +0.000 OA
BRANCH  16  22
ATOM     21  C   UNL     1       8.022   8.354  17.745  0.00  0.00    +0.000 C 
ATOM     22  C   UNL     1       7.367   7.216  16.978  0.00  0.00    +0.000 C 
ENDBRANCH  16  22
ENDBRANCH  15  19
BRANCH  15  23
ATOM     23  C   UNL     1       2.801   4.321  18.340  0.00  0.00    +0.000 C 
ATOM     24  C   UNL     1       2.015   3.195  19.045  0.00  0.00    +0.000 C 
ATOM     25  C   UNL     1       1.777   5.216  17.600  0.00  0.00    +0.000 C 
ATOM     26  C   UNL     1       3.705   3.670  17.271  0.00  0.00    +0.000 C 
ENDBRANCH  15  23
ENDBRANCH   1  15
TORSDOF 4
ENDMDL
MODEL 5
REMARK VINA RESULT:      -7.3      2.137      7.840
REMARK  Name = 
REMARK  8 active torsions:
REMARK  status: ('A' for Active; 'I' for Inactive)
REMARK    1  A    between atoms: C_1  and  C_2
REMARK    2  A    between atoms: C_2  and  C_3
REMARK    3  A    between atoms: C_6  and  C_7
REMARK    4  A    between atoms: C_7  and  N_8
REMARK    5  A    between atoms: C_7  and  C_21
REMARK    6  A    between atoms: C_21  and  C_22
REMARK    7  A    between atoms: C_21  and  C_23
REMARK    8  A    between atoms: C_21  and  C_24
REMARK                            x       y       z     vdW  Elec       q    Type
REMARK                         _______ _______ _______ _____ _____    ______ ____
ROOT
ATOM      1  N   UNL     1       1.041   9.529  18.947  0.00  0.00    +0.000 N 
ATOM      2  C   UNL     1       1.515   8.557  19.799  0.00  0.00    +0.000 C 
ATOM      3  O   UNL     1       1.371   8.588  21.021  0.00  0.00    +0.000 OA
ATOM      4  N   UNL     1       2.163   7.535  19.120  0.00  0.00    +0.000 N 
ATOM      5  C   UNL     1       2.657   6.359  19.800  0.00  0.00    +0.000 C 
ATOM      6  C   UNL     1       3.205   5.456  18.686  0.00  0.00    +0.000 C 
ATOM      7  C   UNL     1       4.611   4.911  18.999  0.00  0.00    +0.000 C 
ATOM      8  C   UNL     1       5.220   4.006  17.926  0.00  0.00    +0.000 C 
ATOM      9  C   UNL     1       5.294   4.942  16.722  0.00  0.00    +0.000 C 
ATOM     10  C   UNL     1       4.993   6.298  17.365  0.00  0.00    +0.000 C 
ATOM     11  O   UNL     1       5.410   6.095  18.740  0.00  0.00    +0.000 OA
ATOM     12  C   UNL     1       3.479   6.422  17.510  0.00  0.00    +0.000 C 
ATOM     13  C   UNL     1       2.997   7.795  17.963  0.00  0.00    +0.000 C 
ATOM     14  H   UNL     1       0.687   9.127  18.099  0.00  0.00    +0.000 HD
ENDROOT
BRANCH   1  15
ATOM     15  C   UNL     1       0.318  10.737  19.360  0.00  0.00    +0.000 C 
BRANCH  15  19
ATOM     16  C   UNL     1      -2.459  10.288  17.077  0.00  0.00    +0.000 A 
ATOM     17  C   UNL     1      -3.094  11.186  17.907  0.00  0.00    +0.000 A 
ATOM     18  C   UNL     1      -2.176  11.505  18.928  0.00  0.00    +0.000 A 
ATOM     19  C   UNL     1      -1.027  10.784  18.676  0.00  0.00    +0.000 A 
ATOM     20  O   UNL     1      -1.195  10.037  17.537  0.00  0.00    +0.000 OA
BRANCH  16  22
ATOM     21  C   UNL     1      -3.460  10.639  14.847  0.00  0.00    +0.000 C 
ATOM     22  C   UNL     1      -2.868   9.628  15.816  0.00  0.00    +0.000 C 
ENDBRANCH  16  22
ENDBRANCH  15  19
BRANCH  15  23
ATOM     23  C   UNL     1       1.184  12.017  19.078  0.00  0.00    +0.000 C 
ATOM     24  C   UNL     1       2.351  11.709  18.117  0.00  0.00    +0.000 C 
ATOM     25  C   UNL     1       0.306  13.107  18.416  0.00  0.00    +0.000 C 
ATOM     26  C   UNL     1       1.780  12.625  20.367  0.00  0.00    +0.000 C 
ENDBRANCH  15  23
ENDBRANCH   1  15
TORSDOF 4
ENDMDL
MODEL 6
REMARK VINA RESULT:      -7.2      1.534      2.396
REMARK  Name = 
REMARK  8 active torsions:
REMARK  status: ('A' for Active; 'I' for Inactive)
REMARK    1  A    between atoms: C_1  and  C_2
REMARK    2  A    between atoms: C_2  and  C_3
REMARK    3  A    between atoms: C_6  and  C_7
REMARK    4  A    between atoms: C_7  and  N_8
REMARK    5  A    between atoms: C_7  and  C_21
REMARK    6  A    between atoms: C_21  and  C_22
REMARK    7  A    between atoms: C_21  and  C_23
REMARK    8  A    between atoms: C_21  and  C_24
REMARK                            x       y       z     vdW  Elec       q    Type
REMARK                         _______ _______ _______ _____ _____    ______ ____
ROOT
ATOM      1  N   UNL     1       2.265   5.765  20.193  0.00  0.00    +0.000 N 
ATOM      2  C   UNL     1       2.515   6.967  19.571  0.00  0.00    +0.000 C 
ATOM      3  O   UNL     1       3.468   7.163  18.819  0.00  0.00    +0.000 OA
ATOM      4  N   UNL     1       1.562   7.926  19.883  0.00  0.00    +0.000 N 
ATOM      5  C   UNL     1       1.565   9.235  19.269  0.00  0.00    +0.000 C 
ATOM      6  C   UNL     1       0.310   9.933  19.810  0.00  0.00    +0.000 C 
ATOM      7  C   UNL     1       0.594  11.356  20.325  0.00  0.00    +0.000 C 
ATOM      8  C   UNL     1      -0.617  12.108  20.883  0.00  0.00    +0.000 C 
ATOM      9  C   UNL     1      -1.035  11.218  22.052  0.00  0.00    +0.000 C 
ATOM     10  C   UNL     1       0.160  10.266  22.158  0.00  0.00    +0.000 C 
ATOM     11  O   UNL     1       1.240  11.050  21.588  0.00  0.00    +0.000 OA
ATOM     12  C   UNL     1      -0.020   9.169  21.114  0.00  0.00    +0.000 C 
ATOM     13  C   UNL     1       0.988   8.031  21.210  0.00  0.00    +0.000 C 
ATOM     14  H   UNL     1       1.282   5.568  20.222  0.00  0.00    +0.000 HD
ENDROOT
BRANCH   1  15
ATOM     15  C   UNL     1       3.092   4.560  20.068  0.00  0.00    +0.000 C 
BRANCH  15  19
ATOM     16  C   UNL     1       5.412   4.568  17.286  0.00  0.00    +0.000 A 
ATOM     17  C   UNL     1       4.267   4.519  16.522  0.00  0.00    +0.000 A 
ATOM     18  C   UNL     1       3.185   4.488  17.425  0.00  0.00    +0.000 A 
ATOM     19  C   UNL     1       3.721   4.513  18.696  0.00  0.00    +0.000 A 
ATOM     20  O   UNL     1       5.090   4.566  18.615  0.00  0.00    +0.000 OA
BRANCH  16  22
ATOM     21  C   UNL     1       7.030   4.694  15.423  0.00  0.00    +0.000 C 
ATOM     22  C   UNL     1       6.847   4.669  16.933  0.00  0.00    +0.000 C 
ENDBRANCH  16  22
ENDBRANCH  15  19
BRANCH  15  23
ATOM     23  C   UNL     1       2.242   3.276  20.386  0.00  0.00    +0.000 C 
ATOM     24  C   UNL     1       2.288   2.928  21.889  0.00  0.00    +0.000 C 
ATOM     25  C   UNL     1       0.762   3.523  20.006  0.00  0.00    +0.000 C 
ATOM     26  C   UNL     1       2.722   2.038  19.599  0.00  0.00    +0.000 C 
ENDBRANCH  15  23
ENDBRANCH   1  15
TORSDOF 4
ENDMDL
MODEL 7
REMARK VINA RESULT:      -7.2      1.627      2.570
REMARK  Name = 
REMARK  8 active torsions:
REMARK  status: ('A' for Active; 'I' for Inactive)
REMARK    1  A    between atoms: C_1  and  C_2
REMARK    2  A    between atoms: C_2  and  C_3
REMARK    3  A    between atoms: C_6  and  C_7
REMARK    4  A    between atoms: C_7  and  N_8
REMARK    5  A    between atoms: C_7  and  C_21
REMARK    6  A    between atoms: C_21  and  C_22
REMARK    7  A    between atoms: C_21  and  C_23
REMARK    8  A    between atoms: C_21  and  C_24
REMARK                            x       y       z     vdW  Elec       q    Type
REMARK                         _______ _______ _______ _____ _____    ______ ____
ROOT
ATOM      1  N   UNL     1       2.231   5.808  20.252  0.00  0.00    +0.000 N 
ATOM      2  C   UNL     1       2.488   6.998  19.612  0.00  0.00    +0.000 C 
ATOM      3  O   UNL     1       3.452   7.181  18.868  0.00  0.00    +0.000 OA
ATOM      4  N   UNL     1       1.531   7.963  19.894  0.00  0.00    +0.000 N 
ATOM      5  C   UNL     1       1.543   9.260  19.256  0.00  0.00    +0.000 C 
ATOM      6  C   UNL     1       0.281   9.968  19.767  0.00  0.00    +0.000 C 
ATOM      7  C   UNL     1       0.558  11.401  20.259  0.00  0.00    +0.000 C 
ATOM      8  C   UNL     1      -0.659  12.162  20.788  0.00  0.00    +0.000 C 
ATOM      9  C   UNL     1      -1.092  11.294  21.968  0.00  0.00    +0.000 C 
ATOM     10  C   UNL     1       0.101  10.344  22.107  0.00  0.00    +0.000 C 
ATOM     11  O   UNL     1       1.188  11.118  21.536  0.00  0.00    +0.000 OA
ATOM     12  C   UNL     1      -0.066   9.228  21.080  0.00  0.00    +0.000 C 
ATOM     13  C   UNL     1       0.941   8.092  21.211  0.00  0.00    +0.000 C 
ATOM     14  H   UNL     1       1.248   5.611  20.273  0.00  0.00    +0.000 HD
ENDROOT
BRANCH   1  15
ATOM     15  C   UNL     1       3.059   4.601  20.160  0.00  0.00    +0.000 C 
BRANCH  15  19
ATOM     16  C   UNL     1       5.535   4.667  17.517  0.00  0.00    +0.000 A 
ATOM     17  C   UNL     1       4.438   4.587  16.688  0.00  0.00    +0.000 A 
ATOM     18  C   UNL     1       3.306   4.528  17.527  0.00  0.00    +0.000 A 
ATOM     19  C   UNL     1       3.768   4.570  18.827  0.00  0.00    +0.000 A 
ATOM     20  O   UNL     1       5.137   4.658  18.825  0.00  0.00    +0.000 OA
BRANCH  16  22
ATOM     21  C   UNL     1       7.651   5.665  18.311  0.00  0.00    +0.000 C 
ATOM     22  C   UNL     1       6.985   4.806  17.247  0.00  0.00    +0.000 C 
ENDBRANCH  16  22
ENDBRANCH  15  19
BRANCH  15  23
ATOM     23  C   UNL     1       2.187   3.317  20.410  0.00  0.00    +0.000 C 
ATOM     24  C   UNL     1       0.745   3.506  19.897  0.00  0.00    +0.000 C 
ATOM     25  C   UNL     1       2.801   2.113  19.654  0.00  0.00    +0.000 C 
ATOM     26  C   UNL     1       2.112   2.934  21.904  0.00  0.00    +0.000 C 
ENDBRANCH  15  23
ENDBRANCH   1  15
TORSDOF 4
ENDMDL
MODEL 8
REMARK VINA RESULT:      -7.2      2.715      7.563
REMARK  Name = 
REMARK  8 active torsions:
REMARK  status: ('A' for Active; 'I' for Inactive)
REMARK    1  A    between atoms: C_1  and  C_2
REMARK    2  A    between atoms: C_2  and  C_3
REMARK    3  A    between atoms: C_6  and  C_7
REMARK    4  A    between atoms: C_7  and  N_8
REMARK    5  A    between atoms: C_7  and  C_21
REMARK    6  A    between atoms: C_21  and  C_22
REMARK    7  A    between atoms: C_21  and  C_23
REMARK    8  A    between atoms: C_21  and  C_24
REMARK                            x       y       z     vdW  Elec       q    Type
REMARK                         _______ _______ _______ _____ _____    ______ ____
ROOT
ATOM      1  N   UNL     1       1.308   9.513  18.990  0.00  0.00    +0.000 N 
ATOM      2  C   UNL     1       2.038   8.569  18.306  0.00  0.00    +0.000 C 
ATOM      3  O   UNL     1       2.399   8.697  17.136  0.00  0.00    +0.000 OA
ATOM      4  N   UNL     1       2.329   7.462  19.091  0.00  0.00    +0.000 N 
ATOM      5  C   UNL     1       3.169   6.386  18.614  0.00  0.00    +0.000 C 
ATOM      6  C   UNL     1       3.311   5.431  19.807  0.00  0.00    +0.000 C 
ATOM      7  C   UNL     1       3.055   3.961  19.428  0.00  0.00    +0.000 C 
ATOM      8  C   UNL     1       3.176   2.955  20.575  0.00  0.00    +0.000 C 
ATOM      9  C   UNL     1       2.086   3.430  21.533  0.00  0.00    +0.000 C 
ATOM     10  C   UNL     1       1.329   4.439  20.665  0.00  0.00    +0.000 C 
ATOM     11  O   UNL     1       1.607   3.970  19.320  0.00  0.00    +0.000 OA
ATOM     12  C   UNL     1       2.094   5.758  20.704  0.00  0.00    +0.000 C 
ATOM     13  C   UNL     1       1.375   6.927  20.043  0.00  0.00    +0.000 C 
ATOM     14  H   UNL     1       1.609   9.585  19.944  0.00  0.00    +0.000 HD
ENDROOT
BRANCH   1  15
ATOM     15  C   UNL     1       0.842  10.789  18.434  0.00  0.00    +0.000 C 
BRANCH  15  19
ATOM     16  C   UNL     1       2.986  13.617  19.159  0.00  0.00    +0.000 A 
ATOM     17  C   UNL     1       2.531  13.444  20.447  0.00  0.00    +0.000 A 
ATOM     18  C   UNL     1       1.628  12.362  20.410  0.00  0.00    +0.000 A 
ATOM     19  C   UNL     1       1.571  11.931  19.101  0.00  0.00    +0.000 A 
ATOM     20  O   UNL     1       2.407  12.698  18.329  0.00  0.00    +0.000 OA
BRANCH  16  22
ATOM     21  C   UNL     1       3.298  15.532  17.629  0.00  0.00    +0.000 C 
ATOM     22  C   UNL     1       3.978  14.543  18.563  0.00  0.00    +0.000 C 
ENDBRANCH  16  22
ENDBRANCH  15  19
BRANCH  15  23
ATOM     23  C   UNL     1      -0.719  10.908  18.568  0.00  0.00    +0.000 C 
ATOM     24  C   UNL     1      -1.197  12.356  18.329  0.00  0.00    +0.000 C 
ATOM     25  C   UNL     1      -1.404  10.007  17.511  0.00  0.00    +0.000 C 
ATOM     26  C   UNL     1      -1.231  10.464  19.955  0.00  0.00    +0.000 C 
ENDBRANCH  15  23
ENDBRANCH   1  15
TORSDOF 4
ENDMDL
MODEL 9
REMARK VINA RESULT:      -7.1      2.220      8.235
REMARK  Name = 
REMARK  8 active torsions:
REMARK  status: ('A' for Active; 'I' for Inactive)
REMARK    1  A    between atoms: C_1  and  C_2
REMARK    2  A    between atoms: C_2  and  C_3
REMARK    3  A    between atoms: C_6  and  C_7
REMARK    4  A    between atoms: C_7  and  N_8
REMARK    5  A    between atoms: C_7  and  C_21
REMARK    6  A    between atoms: C_21  and  C_22
REMARK    7  A    between atoms: C_21  and  C_23
REMARK    8  A    between atoms: C_21  and  C_24
REMARK                            x       y       z     vdW  Elec       q    Type
REMARK                         _______ _______ _______ _____ _____    ______ ____
ROOT
ATOM      1  N   UNL     1       0.959   9.497  18.820  0.00  0.00    +0.000 N 
ATOM      2  C   UNL     1       1.490   8.543  19.657  0.00  0.00    +0.000 C 
ATOM      3  O   UNL     1       1.348   8.550  20.880  0.00  0.00    +0.000 OA
ATOM      4  N   UNL     1       2.192   7.568  18.963  0.00  0.00    +0.000 N 
ATOM      5  C   UNL     1       2.754   6.412  19.626  0.00  0.00    +0.000 C 
ATOM      6  C   UNL     1       3.348   5.556  18.499  0.00  0.00    +0.000 C 
ATOM      7  C   UNL     1       4.784   5.087  18.801  0.00  0.00    +0.000 C 
ATOM      8  C   UNL     1       5.439   4.232  17.715  0.00  0.00    +0.000 C 
ATOM      9  C   UNL     1       5.456   5.187  16.523  0.00  0.00    +0.000 C 
ATOM     10  C   UNL     1       5.081   6.515  17.185  0.00  0.00    +0.000 C 
ATOM     11  O   UNL     1       5.514   6.318  18.556  0.00  0.00    +0.000 OA
ATOM     12  C   UNL     1       3.563   6.552  17.336  0.00  0.00    +0.000 C 
ATOM     13  C   UNL     1       3.006   7.889  17.807  0.00  0.00    +0.000 C 
ATOM     14  H   UNL     1       0.626   9.088  17.967  0.00  0.00    +0.000 HD
ENDROOT
BRANCH   1  15
ATOM     15  C   UNL     1       0.171  10.657  19.251  0.00  0.00    +0.000 C 
BRANCH  15  19
ATOM     16  C   UNL     1      -3.257  11.218  18.225  0.00  0.00    +0.000 A 
ATOM     17  C   UNL     1      -2.905  10.444  17.142  0.00  0.00    +0.000 A 
ATOM     18  C   UNL     1      -1.548  10.106  17.316  0.00  0.00    +0.000 A 
ATOM     19  C   UNL     1      -1.136  10.694  18.495  0.00  0.00    +0.000 A 
ATOM     20  O   UNL     1      -2.185  11.376  19.058  0.00  0.00    +0.000 OA
BRANCH  16  22
ATOM     21  C   UNL     1      -5.693  10.860  18.432  0.00  0.00    +0.000 C 
ATOM     22  C   UNL     1      -4.540  11.829  18.644  0.00  0.00    +0.000 C 
ENDBRANCH  16  22
ENDBRANCH  15  19
BRANCH  15  23
ATOM     23  C   UNL     1       1.004  11.979  19.082  0.00  0.00    +0.000 C 
ATOM     24  C   UNL     1       1.537  12.486  20.439  0.00  0.00    +0.000 C 
ATOM     25  C   UNL     1       2.224  11.715  18.167  0.00  0.00    +0.000 C 
ATOM     26  C   UNL     1       0.183  13.119  18.441  0.00  0.00    +0.000 C 
ENDBRANCH  15  23
ENDBRANCH   1  15
TORSDOF 4
ENDMDL
