MODEL 1
REMARK VINA RESULT:      -6.5      0.000      0.000
REMARK  Name = 
REMARK  4 active torsions:
REMARK  status: ('A' for Active; 'I' for Inactive)
REMARK    1  A    between atoms: N_1  and  N_2
REMARK    2  A    between atoms: C_3  and  C_5
REMARK    3  A    between atoms: C_5  and  C_6
REMARK    4  A    between atoms: C_9  and  N_10
REMARK                            x       y       z     vdW  Elec       q    Type
REMARK                         _______ _______ _______ _____ _____    ______ ____
ROOT
ATOM      1  C   UNL     1       4.794   4.940  16.599  0.00  0.00    +0.000 A 
ATOM      2  C   UNL     1       3.981   4.345  17.567  0.00  0.00    +0.000 A 
ATOM      3  C   UNL     1       3.208   5.136  18.428  0.00  0.00    +0.000 A 
ATOM      4  C   UNL     1       3.223   6.533  18.319  0.00  0.00    +0.000 A 
ATOM      5  C   UNL     1       4.055   7.125  17.357  0.00  0.00    +0.000 A 
ATOM      6  C   UNL     1       4.832   6.334  16.508  0.00  0.00    +0.000 A 
ENDROOT
BRANCH   4   7
ATOM      7  N   UNL     1       2.399   7.346  19.161  0.00  0.00    +0.000 N 
ATOM      8  C   UNL     1       1.942   7.026  20.429  0.00  0.00    +0.000 A 
ATOM      9  C   UNL     1       1.167   8.058  20.911  0.00  0.00    +0.000 A 
ATOM     10  C   UNL     1       1.130   9.053  19.917  0.00  0.00    +0.000 A 
ATOM     11  C   UNL     1       1.887   8.597  18.860  0.00  0.00    +0.000 A 
ENDBRANCH   4   7
BRANCH   1  12
ATOM     12  C   UNL     1       5.531   4.089  15.594  0.00  0.00    +0.000 C 
BRANCH  12  14
ATOM     13  N   UNL     1       7.115   5.148  14.075  0.00  0.00    +0.000 N 
ATOM     14  C   UNL     1       6.934   4.630  15.352  0.00  0.00    +0.000 C 
ATOM     15  O   UNL     1       7.834   4.534  16.183  0.00  0.00    +0.000 OA
ATOM     16  H   UNL     1       6.308   5.339  13.484  0.00  0.00    +0.000 HD
BRANCH  13  17
ATOM     17  N   UNL     1       8.371   5.669  13.705  0.00  0.00    +0.000 NA
ATOM     18  H   UNL     1       8.238   6.583  13.270  0.00  0.00    +0.000 HD
ATOM     19  H   UNL     1       8.735   5.066  12.953  0.00  0.00    +0.000 HD
ENDBRANCH  13  17
ENDBRANCH  12  14
ENDBRANCH   1  12
TORSDOF 4
ENDMDL
MODEL 2
REMARK VINA RESULT:      -6.5      2.455      3.239
REMARK  Name = 
REMARK  4 active torsions:
REMARK  status: ('A' for Active; 'I' for Inactive)
REMARK    1  A    between atoms: N_1  and  N_2
REMARK    2  A    between atoms: C_3  and  C_5
REMARK    3  A    between atoms: C_5  and  C_6
REMARK    4  A    between atoms: C_9  and  N_10
REMARK                            x       y       z     vdW  Elec       q    Type
REMARK                         _______ _______ _______ _____ _____    ______ ____
ROOT
ATOM      1  C   UNL     1       4.819   5.273  16.539  0.00  0.00    +0.000 A 
ATOM      2  C   UNL     1       4.574   3.899  16.590  0.00  0.00    +0.000 A 
ATOM      3  C   UNL     1       3.899   3.338  17.683  0.00  0.00    +0.000 A 
ATOM      4  C   UNL     1       3.442   4.149  18.730  0.00  0.00    +0.000 A 
ATOM      5  C   UNL     1       3.707   5.525  18.683  0.00  0.00    +0.000 A 
ATOM      6  C   UNL     1       4.390   6.079  17.597  0.00  0.00    +0.000 A 
ENDROOT
BRANCH   4   7
ATOM      7  N   UNL     1       2.709   3.591  19.826  0.00  0.00    +0.000 N 
ATOM      8  C   UNL     1       3.216   2.805  20.847  0.00  0.00    +0.000 A 
ATOM      9  C   UNL     1       2.197   2.452  21.705  0.00  0.00    +0.000 A 
ATOM     10  C   UNL     1       1.013   3.027  21.206  0.00  0.00    +0.000 A 
ATOM     11  C   UNL     1       1.349   3.715  20.061  0.00  0.00    +0.000 A 
ENDBRANCH   4   7
BRANCH   1  12
ATOM     12  C   UNL     1       5.437   5.893  15.310  0.00  0.00    +0.000 C 
BRANCH  12  14
ATOM     13  N   UNL     1       5.749   4.147  13.638  0.00  0.00    +0.000 N 
ATOM     14  C   UNL     1       6.373   4.910  14.619  0.00  0.00    +0.000 C 
ATOM     15  O   UNL     1       7.542   4.755  14.963  0.00  0.00    +0.000 OA
ATOM     16  H   UNL     1       4.830   4.416  13.292  0.00  0.00    +0.000 HD
BRANCH  13  17
ATOM     17  N   UNL     1       6.492   3.184  12.927  0.00  0.00    +0.000 NA
ATOM     18  H   UNL     1       6.708   3.548  11.998  0.00  0.00    +0.000 HD
ATOM     19  H   UNL     1       5.862   2.386  12.760  0.00  0.00    +0.000 HD
ENDBRANCH  13  17
ENDBRANCH  12  14
ENDBRANCH   1  12
TORSDOF 4
ENDMDL
MODEL 3
REMARK VINA RESULT:      -6.4      0.544      1.598
REMARK  Name = 
REMARK  4 active torsions:
REMARK  status: ('A' for Active; 'I' for Inactive)
REMARK    1  A    between atoms: N_1  and  N_2
REMARK    2  A    between atoms: C_3  and  C_5
REMARK    3  A    between atoms: C_5  and  C_6
REMARK    4  A    between atoms: C_9  and  N_10
REMARK                            x       y       z     vdW  Elec       q    Type
REMARK                         _______ _______ _______ _____ _____    ______ ____
ROOT
ATOM      1  C   UNL     1       4.601   4.922  16.769  0.00  0.00    +0.000 A 
ATOM      2  C   UNL     1       4.928   6.279  16.705  0.00  0.00    +0.000 A 
ATOM      3  C   UNL     1       4.138   7.231  17.363  0.00  0.00    +0.000 A 
ATOM      4  C   UNL     1       3.021   6.837  18.111  0.00  0.00    +0.000 A 
ATOM      5  C   UNL     1       2.687   5.475  18.157  0.00  0.00    +0.000 A 
ATOM      6  C   UNL     1       3.470   4.530  17.490  0.00  0.00    +0.000 A 
ENDROOT
BRANCH   4   7
ATOM      7  N   UNL     1       2.238   7.798  18.826  0.00  0.00    +0.000 N 
ATOM      8  C   UNL     1       1.702   8.971  18.321  0.00  0.00    +0.000 A 
ATOM      9  C   UNL     1       1.024   9.634  19.319  0.00  0.00    +0.000 A 
ATOM     10  C   UNL     1       1.140   8.859  20.489  0.00  0.00    +0.000 A 
ATOM     11  C   UNL     1       1.884   7.746  20.165  0.00  0.00    +0.000 A 
ENDBRANCH   4   7
BRANCH   1  12
ATOM     12  C   UNL     1       5.517   3.887  16.163  0.00  0.00    +0.000 C 
BRANCH  12  14
ATOM     13  N   UNL     1       6.868   4.990  14.461  0.00  0.00    +0.000 N 
ATOM     14  C   UNL     1       6.850   4.509  15.766  0.00  0.00    +0.000 C 
ATOM     15  O   UNL     1       7.830   4.503  16.505  0.00  0.00    +0.000 OA
ATOM     16  H   UNL     1       5.997   5.107  13.949  0.00  0.00    +0.000 HD
BRANCH  13  17
ATOM     17  N   UNL     1       8.044   5.578  13.953  0.00  0.00    +0.000 NA
ATOM     18  H   UNL     1       7.864   5.919  13.007  0.00  0.00    +0.000 HD
ATOM     19  H   UNL     1       8.731   4.819  13.837  0.00  0.00    +0.000 HD
ENDBRANCH  13  17
ENDBRANCH  12  14
ENDBRANCH   1  12
TORSDOF 4
ENDMDL
MODEL 4
REMARK VINA RESULT:      -6.4      0.697      1.205
REMARK  Name = 
REMARK  4 active torsions:
REMARK  status: ('A' for Active; 'I' for Inactive)
REMARK    1  A    between atoms: N_1  and  N_2
REMARK    2  A    between atoms: C_3  and  C_5
REMARK    3  A    between atoms: C_5  and  C_6
REMARK    4  A    between atoms: C_9  and  N_10
REMARK                            x       y       z     vdW  Elec       q    Type
REMARK                         _______ _______ _______ _____ _____    ______ ____
ROOT
ATOM      1  C   UNL     1       4.676   5.058  16.892  0.00  0.00    +0.000 A 
ATOM      2  C   UNL     1       3.564   4.695  17.656  0.00  0.00    +0.000 A 
ATOM      3  C   UNL     1       2.754   5.678  18.242  0.00  0.00    +0.000 A 
ATOM      4  C   UNL     1       3.034   7.037  18.054  0.00  0.00    +0.000 A 
ATOM      5  C   UNL     1       4.162   7.396  17.301  0.00  0.00    +0.000 A 
ATOM      6  C   UNL     1       4.974   6.414  16.728  0.00  0.00    +0.000 A 
ENDROOT
BRANCH   4   7
ATOM      7  N   UNL     1       2.183   8.047  18.607  0.00  0.00    +0.000 N 
ATOM      8  C   UNL     1       1.616   9.114  17.930  0.00  0.00    +0.000 A 
ATOM      9  C   UNL     1       0.872   9.872  18.807  0.00  0.00    +0.000 A 
ATOM     10  C   UNL     1       0.979   9.269  20.075  0.00  0.00    +0.000 A 
ATOM     11  C   UNL     1       1.783   8.159  19.929  0.00  0.00    +0.000 A 
ENDBRANCH   4   7
BRANCH   1  12
ATOM     12  C   UNL     1       5.476   4.007  16.163  0.00  0.00    +0.000 C 
BRANCH  12  14
ATOM     13  N   UNL     1       6.866   5.041  14.449  0.00  0.00    +0.000 N 
ATOM     14  C   UNL     1       6.837   4.552  15.750  0.00  0.00    +0.000 C 
ATOM     15  O   UNL     1       7.826   4.483  16.475  0.00  0.00    +0.000 OA
ATOM     16  H   UNL     1       5.995   5.212  13.950  0.00  0.00    +0.000 HD
BRANCH  13  17
ATOM     17  N   UNL     1       8.066   5.562  13.927  0.00  0.00    +0.000 NA
ATOM     18  H   UNL     1       8.856   5.089  14.370  0.00  0.00    +0.000 HD
ATOM     19  H   UNL     1       8.130   6.540  14.244  0.00  0.00    +0.000 HD
ENDBRANCH  13  17
ENDBRANCH  12  14
ENDBRANCH   1  12
TORSDOF 4
ENDMDL
MODEL 5
REMARK VINA RESULT:      -6.4      2.362      3.360
REMARK  Name = 
REMARK  4 active torsions:
REMARK  status: ('A' for Active; 'I' for Inactive)
REMARK    1  A    between atoms: N_1  and  N_2
REMARK    2  A    between atoms: C_3  and  C_5
REMARK    3  A    between atoms: C_5  and  C_6
REMARK    4  A    between atoms: C_9  and  N_10
REMARK                            x       y       z     vdW  Elec       q    Type
REMARK                         _______ _______ _______ _____ _____    ______ ____
ROOT
ATOM      1  C   UNL     1       4.665   5.364  16.498  0.00  0.00    +0.000 A 
ATOM      2  C   UNL     1       4.046   6.171  17.456  0.00  0.00    +0.000 A 
ATOM      3  C   UNL     1       3.366   5.594  18.538  0.00  0.00    +0.000 A 
ATOM      4  C   UNL     1       3.314   4.202  18.686  0.00  0.00    +0.000 A 
ATOM      5  C   UNL     1       3.922   3.397  17.712  0.00  0.00    +0.000 A 
ATOM      6  C   UNL     1       4.589   3.974  16.629  0.00  0.00    +0.000 A 
ENDROOT
BRANCH   4   7
ATOM      7  N   UNL     1       2.665   3.606  19.815  0.00  0.00    +0.000 N 
ATOM      8  C   UNL     1       3.247   2.786  20.767  0.00  0.00    +0.000 A 
ATOM      9  C   UNL     1       2.295   2.403  21.686  0.00  0.00    +0.000 A 
ATOM     10  C   UNL     1       1.078   2.994  21.299  0.00  0.00    +0.000 A 
ATOM     11  C   UNL     1       1.327   3.721  20.156  0.00  0.00    +0.000 A 
ENDBRANCH   4   7
BRANCH   1  12
ATOM     12  C   UNL     1       5.497   5.983  15.402  0.00  0.00    +0.000 C 
BRANCH  12  14
ATOM     13  N   UNL     1       5.717   4.211  13.744  0.00  0.00    +0.000 N 
ATOM     14  C   UNL     1       6.376   4.935  14.732  0.00  0.00    +0.000 C 
ATOM     15  O   UNL     1       7.526   4.704  15.095  0.00  0.00    +0.000 OA
ATOM     16  H   UNL     1       4.824   4.538  13.382  0.00  0.00    +0.000 HD
BRANCH  13  17
ATOM     17  N   UNL     1       6.405   3.195  13.050  0.00  0.00    +0.000 NA
ATOM     18  H   UNL     1       6.973   3.619  12.315  0.00  0.00    +0.000 HD
ATOM     19  H   UNL     1       5.694   2.640  12.552  0.00  0.00    +0.000 HD
ENDBRANCH  13  17
ENDBRANCH  12  14
ENDBRANCH   1  12
TORSDOF 4
ENDMDL
MODEL 6
REMARK VINA RESULT:      -6.4      3.003      3.319
REMARK  Name = 
REMARK  4 active torsions:
REMARK  status: ('A' for Active; 'I' for Inactive)
REMARK    1  A    between atoms: N_1  and  N_2
REMARK    2  A    between atoms: C_3  and  C_5
REMARK    3  A    between atoms: C_5  and  C_6
REMARK    4  A    between atoms: C_9  and  N_10
REMARK                            x       y       z     vdW  Elec       q    Type
REMARK                         _______ _______ _______ _____ _____    ______ ____
ROOT
ATOM      1  C   UNL     1       6.019   4.391  16.963  0.00  0.00    +0.000 A 
ATOM      2  C   UNL     1       6.163   4.581  18.339  0.00  0.00    +0.000 A 
ATOM      3  C   UNL     1       5.085   4.349  19.205  0.00  0.00    +0.000 A 
ATOM      4  C   UNL     1       3.854   3.903  18.706  0.00  0.00    +0.000 A 
ATOM      5  C   UNL     1       3.710   3.731  17.321  0.00  0.00    +0.000 A 
ATOM      6  C   UNL     1       4.783   3.975  16.460  0.00  0.00    +0.000 A 
ENDROOT
BRANCH   4   7
ATOM      7  N   UNL     1       2.764   3.616  19.588  0.00  0.00    +0.000 N 
ATOM      8  C   UNL     1       2.840   2.998  20.824  0.00  0.00    +0.000 A 
ATOM      9  C   UNL     1       1.576   2.888  21.362  0.00  0.00    +0.000 A 
ATOM     10  C   UNL     1       0.678   3.448  20.435  0.00  0.00    +0.000 A 
ATOM     11  C   UNL     1       1.423   3.885  19.362  0.00  0.00    +0.000 A 
ENDBRANCH   4   7
BRANCH   1  12
ATOM     12  C   UNL     1       7.210   4.524  16.045  0.00  0.00    +0.000 C 
BRANCH  12  14
ATOM     13  N   UNL     1       6.493   3.396  14.008  0.00  0.00    +0.000 N 
ATOM     14  C   UNL     1       6.766   4.628  14.592  0.00  0.00    +0.000 C 
ATOM     15  O   UNL     1       6.737   5.694  13.983  0.00  0.00    +0.000 OA
ATOM     16  H   UNL     1       6.386   2.568  14.590  0.00  0.00    +0.000 HD
BRANCH  13  17
ATOM     17  N   UNL     1       6.086   3.340  12.660  0.00  0.00    +0.000 NA
ATOM     18  H   UNL     1       6.841   3.692  12.069  0.00  0.00    +0.000 HD
ATOM     19  H   UNL     1       5.321   4.021  12.550  0.00  0.00    +0.000 HD
ENDBRANCH  13  17
ENDBRANCH  12  14
ENDBRANCH   1  12
TORSDOF 4
ENDMDL
MODEL 7
REMARK VINA RESULT:      -6.4      2.379      3.108
REMARK  Name = 
REMARK  4 active torsions:
REMARK  status: ('A' for Active; 'I' for Inactive)
REMARK    1  A    between atoms: N_1  and  N_2
REMARK    2  A    between atoms: C_3  and  C_5
REMARK    3  A    between atoms: C_5  and  C_6
REMARK    4  A    between atoms: C_9  and  N_10
REMARK                            x       y       z     vdW  Elec       q    Type
REMARK                         _______ _______ _______ _____ _____    ______ ____
ROOT
ATOM      1  C   UNL     1       5.947   4.693  14.850  0.00  0.00    +0.000 A 
ATOM      2  C   UNL     1       5.624   3.592  15.646  0.00  0.00    +0.000 A 
ATOM      3  C   UNL     1       4.888   3.761  16.827  0.00  0.00    +0.000 A 
ATOM      4  C   UNL     1       4.447   5.033  17.216  0.00  0.00    +0.000 A 
ATOM      5  C   UNL     1       4.789   6.137  16.421  0.00  0.00    +0.000 A 
ATOM      6  C   UNL     1       5.533   5.966  15.251  0.00  0.00    +0.000 A 
ENDROOT
BRANCH   4   7
ATOM      7  N   UNL     1       3.652   5.208  18.394  0.00  0.00    +0.000 N 
ATOM      8  C   UNL     1       3.533   4.322  19.451  0.00  0.00    +0.000 A 
ATOM      9  C   UNL     1       2.667   4.839  20.389  0.00  0.00    +0.000 A 
ATOM     10  C   UNL     1       2.224   6.085  19.906  0.00  0.00    +0.000 A 
ATOM     11  C   UNL     1       2.836   6.288  18.689  0.00  0.00    +0.000 A 
ENDBRANCH   4   7
BRANCH   1  12
ATOM     12  C   UNL     1       6.633   4.498  13.520  0.00  0.00    +0.000 C 
BRANCH  12  14
ATOM     13  N   UNL     1       6.672   2.508  12.114  0.00  0.00    +0.000 N 
ATOM     14  C   UNL     1       5.868   3.504  12.656  0.00  0.00    +0.000 C 
ATOM     15  O   UNL     1       4.673   3.631  12.401  0.00  0.00    +0.000 OA
ATOM     16  H   UNL     1       7.613   2.362  12.472  0.00  0.00    +0.000 HD
BRANCH  13  17
ATOM     17  N   UNL     1       6.099   1.528  11.279  0.00  0.00    +0.000 NA
ATOM     18  H   UNL     1       6.843   0.953  10.880  0.00  0.00    +0.000 HD
ATOM     19  H   UNL     1       5.686   2.024  10.476  0.00  0.00    +0.000 HD
ENDBRANCH  13  17
ENDBRANCH  12  14
ENDBRANCH   1  12
TORSDOF 4
ENDMDL
MODEL 8
REMARK VINA RESULT:      -6.4      3.128      3.966
REMARK  Name = 
REMARK  4 active torsions:
REMARK  status: ('A' for Active; 'I' for Inactive)
REMARK    1  A    between atoms: N_1  and  N_2
REMARK    2  A    between atoms: C_3  and  C_5
REMARK    3  A    between atoms: C_5  and  C_6
REMARK    4  A    between atoms: C_9  and  N_10
REMARK                            x       y       z     vdW  Elec       q    Type
REMARK                         _______ _______ _______ _____ _____    ______ ____
ROOT
ATOM      1  C   UNL     1       5.826   5.685  17.469  0.00  0.00    +0.000 A 
ATOM      2  C   UNL     1       4.598   6.336  17.609  0.00  0.00    +0.000 A 
ATOM      3  C   UNL     1       3.548   5.729  18.312  0.00  0.00    +0.000 A 
ATOM      4  C   UNL     1       3.720   4.469  18.901  0.00  0.00    +0.000 A 
ATOM      5  C   UNL     1       4.948   3.812  18.741  0.00  0.00    +0.000 A 
ATOM      6  C   UNL     1       5.989   4.415  18.031  0.00  0.00    +0.000 A 
ENDROOT
BRANCH   4   7
ATOM      7  N   UNL     1       2.669   3.864  19.662  0.00  0.00    +0.000 N 
ATOM      8  C   UNL     1       1.313   3.911  19.385  0.00  0.00    +0.000 A 
ATOM      9  C   UNL     1       0.621   3.220  20.356  0.00  0.00    +0.000 A 
ATOM     10  C   UNL     1       1.569   2.727  21.273  0.00  0.00    +0.000 A 
ATOM     11  C   UNL     1       2.809   3.132  20.830  0.00  0.00    +0.000 A 
ENDBRANCH   4   7
BRANCH   1  12
ATOM     12  C   UNL     1       6.992   6.387  16.819  0.00  0.00    +0.000 C 
BRANCH  12  14
ATOM     13  N   UNL     1       7.812   8.603  17.415  0.00  0.00    +0.000 N 
ATOM     14  C   UNL     1       7.716   7.277  17.821  0.00  0.00    +0.000 C 
ATOM     15  O   UNL     1       8.234   6.837  18.844  0.00  0.00    +0.000 OA
ATOM     16  H   UNL     1       7.242   8.942  16.643  0.00  0.00    +0.000 HD
BRANCH  13  17
ATOM     17  N   UNL     1       8.472   9.537  18.238  0.00  0.00    +0.000 NA
ATOM     18  H   UNL     1       7.968  10.425  18.207  0.00  0.00    +0.000 HD
ATOM     19  H   UNL     1       9.382   9.732  17.798  0.00  0.00    +0.000 HD
ENDBRANCH  13  17
ENDBRANCH  12  14
ENDBRANCH   1  12
TORSDOF 4
ENDMDL
MODEL 9
REMARK VINA RESULT:      -6.4      2.982      3.932
REMARK  Name = 
REMARK  4 active torsions:
REMARK  status: ('A' for Active; 'I' for Inactive)
REMARK    1  A    between atoms: N_1  and  N_2
REMARK    2  A    between atoms: C_3  and  C_5
REMARK    3  A    between atoms: C_5  and  C_6
REMARK    4  A    between atoms: C_9  and  N_10
REMARK                            x       y       z     vdW  Elec       q    Type
REMARK                         _______ _______ _______ _____ _____    ______ ____
ROOT
ATOM      1  C   UNL     1       5.777   5.818  16.986  0.00  0.00    +0.000 A 
ATOM      2  C   UNL     1       4.704   6.560  17.486  0.00  0.00    +0.000 A 
ATOM      3  C   UNL     1       3.577   5.912  18.011  0.00  0.00    +0.000 A 
ATOM      4  C   UNL     1       3.518   4.514  18.062  0.00  0.00    +0.000 A 
ATOM      5  C   UNL     1       4.590   3.774  17.542  0.00  0.00    +0.000 A 
ATOM      6  C   UNL     1       5.707   4.422  17.008  0.00  0.00    +0.000 A 
ENDROOT
BRANCH   4   7
ATOM      7  N   UNL     1       2.393   3.846  18.642  0.00  0.00    +0.000 N 
ATOM      8  C   UNL     1       1.713   4.214  19.791  0.00  0.00    +0.000 A 
ATOM      9  C   UNL     1       0.698   3.315  20.033  0.00  0.00    +0.000 A 
ATOM     10  C   UNL     1       0.743   2.350  19.010  0.00  0.00    +0.000 A 
ATOM     11  C   UNL     1       1.783   2.693  18.175  0.00  0.00    +0.000 A 
ENDBRANCH   4   7
BRANCH   1  12
ATOM     12  C   UNL     1       7.038   6.511  16.532  0.00  0.00    +0.000 C 
BRANCH  12  14
ATOM     13  N   UNL     1       7.895   8.617  17.409  0.00  0.00    +0.000 N 
ATOM     14  C   UNL     1       7.683   7.271  17.684  0.00  0.00    +0.000 C 
ATOM     15  O   UNL     1       8.054   6.719  18.717  0.00  0.00    +0.000 OA
ATOM     16  H   UNL     1       7.439   9.052  16.610  0.00  0.00    +0.000 HD
BRANCH  13  17
ATOM     17  N   UNL     1       8.500   9.440  18.381  0.00  0.00    +0.000 NA
ATOM     18  H   UNL     1       7.775   9.962  18.874  0.00  0.00    +0.000 HD
ATOM     19  H   UNL     1       9.043  10.152  17.872  0.00  0.00    +0.000 HD
ENDBRANCH  13  17
ENDBRANCH  12  14
ENDBRANCH   1  12
TORSDOF 4
ENDMDL
