MODEL 1
REMARK VINA RESULT:      -8.5      0.000      0.000
REMARK  Name = 
REMARK  4 active torsions:
REMARK  status: ('A' for Active; 'I' for Inactive)
REMARK    1  A    between atoms: C_2  and  C_4
REMARK    2  A    between atoms: C_6  and  C_7
REMARK    3  A    between atoms: C_11  and  C_12
REMARK    4  A    between atoms: C_17  and  C_18
REMARK                            x       y       z     vdW  Elec       q    Type
REMARK                         _______ _______ _______ _____ _____    ______ ____
ROOT
ATOM      1  C   UNL     1       4.451   6.275  17.279  0.00  0.00    +0.000 A 
ATOM      2  C   UNL     1       3.853   7.537  17.275  0.00  0.00    +0.000 A 
ATOM      3  C   UNL     1       2.737   7.786  18.073  0.00  0.00    +0.000 A 
ATOM      4  C   UNL     1       2.207   6.772  18.874  0.00  0.00    +0.000 A 
ATOM      5  C   UNL     1       2.803   5.499  18.945  0.00  0.00    +0.000 A 
ATOM      6  C   UNL     1       3.943   5.291  18.151  0.00  0.00    +0.000 A 
ENDROOT
BRANCH   1   9
ATOM      7  C   UNL     1       6.646   5.152  14.715  0.00  0.00    +0.000 A 
ATOM      8  N   UNL     1       5.433   5.263  15.234  0.00  0.00    +0.000 NA
ATOM      9  C   UNL     1       5.592   5.933  16.440  0.00  0.00    +0.000 A 
ATOM     10  C   UNL     1       6.920   6.236  16.612  0.00  0.00    +0.000 A 
ATOM     11 CL   UNL     1       7.848   7.094  17.743  0.00  0.00    +0.000 Cl
ATOM     12  N   UNL     1       7.579   5.716  15.540  0.00  0.00    +0.000 N 
ATOM     13  H   UNL     1       8.572   5.770  15.356  0.00  0.00    +0.000 HD
BRANCH   7  15
ATOM     14  N   UNL     1       6.311   3.352  13.220  0.00  0.00    +0.000 N 
ATOM     15  C   UNL     1       6.953   4.535  13.445  0.00  0.00    +0.000 C 
ATOM     16  O   UNL     1       7.704   5.023  12.609  0.00  0.00    +0.000 OA
ATOM     17  H   UNL     1       6.438   2.878  12.339  0.00  0.00    +0.000 HD
ATOM     18  H   UNL     1       5.643   3.007  13.900  0.00  0.00    +0.000 HD
ENDBRANCH   7  15
ENDBRANCH   1   9
BRANCH   5  19
ATOM     19  C   UNL     1       2.304   4.462  19.890  0.00  0.00    +0.000 A 
ATOM     20  C   UNL     1       2.587   4.648  21.267  0.00  0.00    +0.000 A 
ATOM     21  C   UNL     1       2.236   3.712  22.242  0.00  0.00    +0.000 A 
ATOM     22  C   UNL     1       1.603   2.539  21.872  0.00  0.00    +0.000 A 
ATOM     23  C   UNL     1       1.296   2.327  20.532  0.00  0.00    +0.000 A 
ATOM     24  C   UNL     1       1.611   3.280  19.529  0.00  0.00    +0.000 A 
BRANCH  24  25
ATOM     25  C   UNL     1       1.173   2.899  18.129  0.00  0.00    +0.000 C 
ATOM     26  F   UNL     1       0.756   3.912  17.327  0.00  0.00    +0.000 F 
ATOM     27  F   UNL     1       2.168   2.260  17.446  0.00  0.00    +0.000 F 
ATOM     28  F   UNL     1       0.129   2.015  18.142  0.00  0.00    +0.000 F 
ENDBRANCH  24  25
ENDBRANCH   5  19
TORSDOF 4
ENDMDL
MODEL 2
REMARK VINA RESULT:      -8.5      0.911      1.230
REMARK  Name = 
REMARK  4 active torsions:
REMARK  status: ('A' for Active; 'I' for Inactive)
REMARK    1  A    between atoms: C_2  and  C_4
REMARK    2  A    between atoms: C_6  and  C_7
REMARK    3  A    between atoms: C_11  and  C_12
REMARK    4  A    between atoms: C_17  and  C_18
REMARK                            x       y       z     vdW  Elec       q    Type
REMARK                         _______ _______ _______ _____ _____    ______ ____
ROOT
ATOM      1  C   UNL     1       4.726   5.929  17.162  0.00  0.00    +0.000 A 
ATOM      2  C   UNL     1       4.221   7.228  17.080  0.00  0.00    +0.000 A 
ATOM      3  C   UNL     1       3.113   7.599  17.840  0.00  0.00    +0.000 A 
ATOM      4  C   UNL     1       2.498   6.670  18.684  0.00  0.00    +0.000 A 
ATOM      5  C   UNL     1       2.999   5.364  18.833  0.00  0.00    +0.000 A 
ATOM      6  C   UNL     1       4.134   5.033  18.074  0.00  0.00    +0.000 A 
ENDROOT
BRANCH   1   9
ATOM      7  C   UNL     1       7.024   5.084  14.582  0.00  0.00    +0.000 A 
ATOM      8  N   UNL     1       5.850   5.550  14.980  0.00  0.00    +0.000 NA
ATOM      9  C   UNL     1       5.852   5.462  16.366  0.00  0.00    +0.000 A 
ATOM     10  C   UNL     1       7.060   4.956  16.779  0.00  0.00    +0.000 A 
ATOM     11 CL   UNL     1       7.824   4.659  18.265  0.00  0.00    +0.000 Cl
ATOM     12  N   UNL     1       7.779   4.694  15.653  0.00  0.00    +0.000 N 
ATOM     13  H   UNL     1       8.716   4.319  15.607  0.00  0.00    +0.000 HD
BRANCH   7  15
ATOM     14  N   UNL     1       8.492   5.851  12.895  0.00  0.00    +0.000 N 
ATOM     15  C   UNL     1       7.465   5.008  13.208  0.00  0.00    +0.000 C 
ATOM     16  O   UNL     1       6.991   4.243  12.377  0.00  0.00    +0.000 OA
ATOM     17  H   UNL     1       8.887   5.830  11.967  0.00  0.00    +0.000 HD
ATOM     18  H   UNL     1       8.908   6.424  13.620  0.00  0.00    +0.000 HD
ENDBRANCH   7  15
ENDBRANCH   1   9
BRANCH   5  19
ATOM     19  C   UNL     1       2.411   4.418  19.821  0.00  0.00    +0.000 A 
ATOM     20  C   UNL     1       2.668   4.668  21.193  0.00  0.00    +0.000 A 
ATOM     21  C   UNL     1       2.233   3.816  22.210  0.00  0.00    +0.000 A 
ATOM     22  C   UNL     1       1.538   2.664  21.889  0.00  0.00    +0.000 A 
ATOM     23  C   UNL     1       1.254   2.390  20.556  0.00  0.00    +0.000 A 
ATOM     24  C   UNL     1       1.655   3.261  19.509  0.00  0.00    +0.000 A 
BRANCH  24  25
ATOM     25  C   UNL     1       1.232   2.824  18.121  0.00  0.00    +0.000 C 
ATOM     26  F   UNL     1       2.174   2.202  17.367  0.00  0.00    +0.000 F 
ATOM     27  F   UNL     1       0.160   1.979  18.163  0.00  0.00    +0.000 F 
ATOM     28  F   UNL     1       0.819   3.881  17.356  0.00  0.00    +0.000 F 
ENDBRANCH  24  25
ENDBRANCH   5  19
TORSDOF 4
ENDMDL
MODEL 3
REMARK VINA RESULT:      -8.5      5.112      7.491
REMARK  Name = 
REMARK  4 active torsions:
REMARK  status: ('A' for Active; 'I' for Inactive)
REMARK    1  A    between atoms: C_2  and  C_4
REMARK    2  A    between atoms: C_6  and  C_7
REMARK    3  A    between atoms: C_11  and  C_12
REMARK    4  A    between atoms: C_17  and  C_18
REMARK                            x       y       z     vdW  Elec       q    Type
REMARK                         _______ _______ _______ _____ _____    ______ ____
ROOT
ATOM      1  C   UNL     1       2.519   6.220  19.780  0.00  0.00    +0.000 A 
ATOM      2  C   UNL     1       2.277   5.081  20.549  0.00  0.00    +0.000 A 
ATOM      3  C   UNL     1       2.895   3.873  20.228  0.00  0.00    +0.000 A 
ATOM      4  C   UNL     1       3.755   3.795  19.128  0.00  0.00    +0.000 A 
ATOM      5  C   UNL     1       4.063   4.927  18.351  0.00  0.00    +0.000 A 
ATOM      6  C   UNL     1       3.446   6.134  18.722  0.00  0.00    +0.000 A 
ENDROOT
BRANCH   1   9
ATOM      7  C   UNL     1       0.907   9.064  21.180  0.00  0.00    +0.000 A 
ATOM      8  N   UNL     1       1.379   7.831  21.286  0.00  0.00    +0.000 NA
ATOM      9  C   UNL     1       1.876   7.502  20.033  0.00  0.00    +0.000 A 
ATOM     10  C   UNL     1       1.709   8.573  19.190  0.00  0.00    +0.000 A 
ATOM     11 CL   UNL     1       2.134   8.958  17.593  0.00  0.00    +0.000 Cl
ATOM     12  N   UNL     1       1.074   9.539  19.909  0.00  0.00    +0.000 N 
ATOM     13  H   UNL     1       0.808  10.459  19.585  0.00  0.00    +0.000 HD
BRANCH   7  15
ATOM     14  N   UNL     1      -0.688  10.668  21.869  0.00  0.00    +0.000 N 
ATOM     15  C   UNL     1       0.310   9.821  22.257  0.00  0.00    +0.000 C 
ATOM     16  O   UNL     1       0.634   9.713  23.433  0.00  0.00    +0.000 OA
ATOM     17  H   UNL     1      -1.185  11.202  22.565  0.00  0.00    +0.000 HD
ATOM     18  H   UNL     1      -0.980  10.686  20.898  0.00  0.00    +0.000 HD
ENDBRANCH   7  15
ENDBRANCH   1   9
BRANCH   5  19
ATOM     19  C   UNL     1       5.070   4.863  17.257  0.00  0.00    +0.000 A 
ATOM     20  C   UNL     1       4.617   4.444  15.979  0.00  0.00    +0.000 A 
ATOM     21  C   UNL     1       5.476   4.275  14.892  0.00  0.00    +0.000 A 
ATOM     22  C   UNL     1       6.833   4.500  15.048  0.00  0.00    +0.000 A 
ATOM     23  C   UNL     1       7.314   4.925  16.281  0.00  0.00    +0.000 A 
ATOM     24  C   UNL     1       6.454   5.138  17.390  0.00  0.00    +0.000 A 
BRANCH  24  25
ATOM     25  C   UNL     1       7.144   5.633  18.645  0.00  0.00    +0.000 C 
ATOM     26  F   UNL     1       6.432   5.559  19.798  0.00  0.00    +0.000 F 
ATOM     27  F   UNL     1       8.311   4.963  18.876  0.00  0.00    +0.000 F 
ATOM     28  F   UNL     1       7.505   6.949  18.545  0.00  0.00    +0.000 F 
ENDBRANCH  24  25
ENDBRANCH   5  19
TORSDOF 4
ENDMDL
MODEL 4
REMARK VINA RESULT:      -8.2      2.203      3.252
REMARK  Name = 
REMARK  4 active torsions:
REMARK  status: ('A' for Active; 'I' for Inactive)
REMARK    1  A    between atoms: C_2  and  C_4
REMARK    2  A    between atoms: C_6  and  C_7
REMARK    3  A    between atoms: C_11  and  C_12
REMARK    4  A    between atoms: C_17  and  C_18
REMARK                            x       y       z     vdW  Elec       q    Type
REMARK                         _______ _______ _______ _____ _____    ______ ____
ROOT
ATOM      1  C   UNL     1       6.539   4.559  16.079  0.00  0.00    +0.000 A 
ATOM      2  C   UNL     1       7.702   4.759  16.826  0.00  0.00    +0.000 A 
ATOM      3  C   UNL     1       7.619   5.055  18.186  0.00  0.00    +0.000 A 
ATOM      4  C   UNL     1       6.371   5.162  18.806  0.00  0.00    +0.000 A 
ATOM      5  C   UNL     1       5.175   4.925  18.104  0.00  0.00    +0.000 A 
ATOM      6  C   UNL     1       5.297   4.599  16.742  0.00  0.00    +0.000 A 
ENDROOT
BRANCH   1   9
ATOM      7  C   UNL     1       5.880   3.462  12.761  0.00  0.00    +0.000 A 
ATOM      8  N   UNL     1       5.613   3.454  14.058  0.00  0.00    +0.000 NA
ATOM      9  C   UNL     1       6.551   4.289  14.648  0.00  0.00    +0.000 A 
ATOM     10  C   UNL     1       7.365   4.808  13.671  0.00  0.00    +0.000 A 
ATOM     11 CL   UNL     1       8.631   5.935  13.597  0.00  0.00    +0.000 Cl
ATOM     12  N   UNL     1       6.956   4.261  12.493  0.00  0.00    +0.000 N 
ATOM     13  H   UNL     1       7.342   4.440  11.576  0.00  0.00    +0.000 HD
BRANCH   7  15
ATOM     14  N   UNL     1       5.699   1.558  11.371  0.00  0.00    +0.000 N 
ATOM     15  C   UNL     1       5.135   2.740  11.755  0.00  0.00    +0.000 C 
ATOM     16  O   UNL     1       4.069   3.121  11.285  0.00  0.00    +0.000 OA
ATOM     17  H   UNL     1       5.221   0.973  10.702  0.00  0.00    +0.000 HD
ATOM     18  H   UNL     1       6.546   1.236  11.825  0.00  0.00    +0.000 HD
ENDBRANCH   7  15
ENDBRANCH   1   9
BRANCH   5  19
ATOM     19  C   UNL     1       3.858   4.922  18.797  0.00  0.00    +0.000 A 
ATOM     20  C   UNL     1       3.313   6.179  19.164  0.00  0.00    +0.000 A 
ATOM     21  C   UNL     1       2.121   6.306  19.880  0.00  0.00    +0.000 A 
ATOM     22  C   UNL     1       1.436   5.171  20.278  0.00  0.00    +0.000 A 
ATOM     23  C   UNL     1       1.931   3.920  19.926  0.00  0.00    +0.000 A 
ATOM     24  C   UNL     1       3.120   3.769  19.166  0.00  0.00    +0.000 A 
BRANCH  24  25
ATOM     25  C   UNL     1       3.493   2.336  18.845  0.00  0.00    +0.000 C 
ATOM     26  F   UNL     1       3.753   2.054  17.543  0.00  0.00    +0.000 F 
ATOM     27  F   UNL     1       4.592   1.932  19.548  0.00  0.00    +0.000 F 
ATOM     28  F   UNL     1       2.505   1.459  19.199  0.00  0.00    +0.000 F 
ENDBRANCH  24  25
ENDBRANCH   5  19
TORSDOF 4
ENDMDL
MODEL 5
REMARK VINA RESULT:      -8.1      2.645      4.175
REMARK  Name = 
REMARK  4 active torsions:
REMARK  status: ('A' for Active; 'I' for Inactive)
REMARK    1  A    between atoms: C_2  and  C_4
REMARK    2  A    between atoms: C_6  and  C_7
REMARK    3  A    between atoms: C_11  and  C_12
REMARK    4  A    between atoms: C_17  and  C_18
REMARK                            x       y       z     vdW  Elec       q    Type
REMARK                         _______ _______ _______ _____ _____    ______ ____
ROOT
ATOM      1  C   UNL     1       4.059   4.975  18.732  0.00  0.00    +0.000 A 
ATOM      2  C   UNL     1       3.388   3.817  19.128  0.00  0.00    +0.000 A 
ATOM      3  C   UNL     1       2.255   3.904  19.936  0.00  0.00    +0.000 A 
ATOM      4  C   UNL     1       1.790   5.152  20.361  0.00  0.00    +0.000 A 
ATOM      5  C   UNL     1       2.407   6.348  19.950  0.00  0.00    +0.000 A 
ATOM      6  C   UNL     1       3.528   6.224  19.112  0.00  0.00    +0.000 A 
ENDROOT
BRANCH   1   9
ATOM      7  C   UNL     1       6.480   4.817  16.132  0.00  0.00    +0.000 A 
ATOM      8  N   UNL     1       5.229   4.725  16.556  0.00  0.00    +0.000 NA
ATOM      9  C   UNL     1       5.270   4.956  17.925  0.00  0.00    +0.000 A 
ATOM     10  C   UNL     1       6.568   5.207  18.297  0.00  0.00    +0.000 A 
ATOM     11 CL   UNL     1       7.373   5.654  19.722  0.00  0.00    +0.000 Cl
ATOM     12  N   UNL     1       7.325   5.089  17.171  0.00  0.00    +0.000 N 
ATOM     13  H   UNL     1       8.325   5.220  17.098  0.00  0.00    +0.000 HD
BRANCH   7  15
ATOM     14  N   UNL     1       6.314   3.632  14.093  0.00  0.00    +0.000 N 
ATOM     15  C   UNL     1       6.905   4.667  14.759  0.00  0.00    +0.000 C 
ATOM     16  O   UNL     1       7.707   5.408  14.204  0.00  0.00    +0.000 OA
ATOM     17  H   UNL     1       6.525   3.484  13.118  0.00  0.00    +0.000 HD
ATOM     18  H   UNL     1       5.604   3.078  14.558  0.00  0.00    +0.000 HD
ENDBRANCH   7  15
ENDBRANCH   1   9
BRANCH   5  19
ATOM     19  C   UNL     1       1.836   7.675  20.308  0.00  0.00    +0.000 A 
ATOM     20  C   UNL     1       1.505   7.896  21.669  0.00  0.00    +0.000 A 
ATOM     21  C   UNL     1       0.898   9.071  22.118  0.00  0.00    +0.000 A 
ATOM     22  C   UNL     1       0.578  10.067  21.212  0.00  0.00    +0.000 A 
ATOM     23  C   UNL     1       0.900   9.894  19.871  0.00  0.00    +0.000 A 
ATOM     24  C   UNL     1       1.550   8.724  19.398  0.00  0.00    +0.000 A 
BRANCH  24  25
ATOM     25  C   UNL     1       1.854   8.720  17.914  0.00  0.00    +0.000 C 
ATOM     26  F   UNL     1       1.380   7.667  17.200  0.00  0.00    +0.000 F 
ATOM     27  F   UNL     1       1.377   9.842  17.298  0.00  0.00    +0.000 F 
ATOM     28  F   UNL     1       3.200   8.727  17.668  0.00  0.00    +0.000 F 
ENDBRANCH  24  25
ENDBRANCH   5  19
TORSDOF 4
ENDMDL
MODEL 6
REMARK VINA RESULT:      -8.0      5.134      7.066
REMARK  Name = 
REMARK  4 active torsions:
REMARK  status: ('A' for Active; 'I' for Inactive)
REMARK    1  A    between atoms: C_2  and  C_4
REMARK    2  A    between atoms: C_6  and  C_7
REMARK    3  A    between atoms: C_11  and  C_12
REMARK    4  A    between atoms: C_17  and  C_18
REMARK                            x       y       z     vdW  Elec       q    Type
REMARK                         _______ _______ _______ _____ _____    ______ ____
ROOT
ATOM      1  C   UNL     1       1.114   8.937  19.212  0.00  0.00    +0.000 A 
ATOM      2  C   UNL     1       1.043   8.554  20.553  0.00  0.00    +0.000 A 
ATOM      3  C   UNL     1       1.745   7.436  21.002  0.00  0.00    +0.000 A 
ATOM      4  C   UNL     1       2.517   6.688  20.109  0.00  0.00    +0.000 A 
ATOM      5  C   UNL     1       2.655   7.061  18.760  0.00  0.00    +0.000 A 
ATOM      6  C   UNL     1       1.958   8.210  18.349  0.00  0.00    +0.000 A 
ENDROOT
BRANCH   1   9
ATOM      7  C   UNL     1      -1.296  11.130  17.788  0.00  0.00    +0.000 A 
ATOM      8  N   UNL     1      -0.905   9.918  18.153  0.00  0.00    +0.000 NA
ATOM      9  C   UNL     1       0.375  10.067  18.668  0.00  0.00    +0.000 A 
ATOM     10  C   UNL     1       0.725  11.394  18.621  0.00  0.00    +0.000 A 
ATOM     11 CL   UNL     1       2.037  12.338  19.136  0.00  0.00    +0.000 Cl
ATOM     12  N   UNL     1      -0.318  12.051  18.041  0.00  0.00    +0.000 N 
ATOM     13  H   UNL     1      -0.384  13.044  17.864  0.00  0.00    +0.000 HD
BRANCH   7  15
ATOM     14  N   UNL     1      -2.607  11.470  15.851  0.00  0.00    +0.000 N 
ATOM     15  C   UNL     1      -2.583  11.451  17.215  0.00  0.00    +0.000 C 
ATOM     16  O   UNL     1      -3.593  11.667  17.875  0.00  0.00    +0.000 OA
ATOM     17  H   UNL     1      -3.477  11.644  15.371  0.00  0.00    +0.000 HD
ATOM     18  H   UNL     1      -1.773  11.220  15.332  0.00  0.00    +0.000 HD
ENDBRANCH   7  15
ENDBRANCH   1   9
BRANCH   5  19
ATOM     19  C   UNL     1       3.574   6.330  17.845  0.00  0.00    +0.000 A 
ATOM     20  C   UNL     1       4.702   7.036  17.354  0.00  0.00    +0.000 A 
ATOM     21  C   UNL     1       5.597   6.485  16.435  0.00  0.00    +0.000 A 
ATOM     22  C   UNL     1       5.384   5.206  15.953  0.00  0.00    +0.000 A 
ATOM     23  C   UNL     1       4.297   4.475  16.421  0.00  0.00    +0.000 A 
ATOM     24  C   UNL     1       3.395   5.002  17.382  0.00  0.00    +0.000 A 
BRANCH  24  25
ATOM     25  C   UNL     1       2.288   4.057  17.803  0.00  0.00    +0.000 C 
ATOM     26  F   UNL     1       2.249   3.714  19.115  0.00  0.00    +0.000 F 
ATOM     27  F   UNL     1       1.054   4.562  17.505  0.00  0.00    +0.000 F 
ATOM     28  F   UNL     1       2.353   2.865  17.135  0.00  0.00    +0.000 F 
ENDBRANCH  24  25
ENDBRANCH   5  19
TORSDOF 4
ENDMDL
MODEL 7
REMARK VINA RESULT:      -8.0      5.008      6.424
REMARK  Name = 
REMARK  4 active torsions:
REMARK  status: ('A' for Active; 'I' for Inactive)
REMARK    1  A    between atoms: C_2  and  C_4
REMARK    2  A    between atoms: C_6  and  C_7
REMARK    3  A    between atoms: C_11  and  C_12
REMARK    4  A    between atoms: C_17  and  C_18
REMARK                            x       y       z     vdW  Elec       q    Type
REMARK                         _______ _______ _______ _____ _____    ______ ____
ROOT
ATOM      1  C   UNL     1       1.818   8.435  18.858  0.00  0.00    +0.000 A 
ATOM      2  C   UNL     1       2.766   8.609  17.848  0.00  0.00    +0.000 A 
ATOM      3  C   UNL     1       3.615   7.561  17.494  0.00  0.00    +0.000 A 
ATOM      4  C   UNL     1       3.526   6.332  18.155  0.00  0.00    +0.000 A 
ATOM      5  C   UNL     1       2.556   6.096  19.147  0.00  0.00    +0.000 A 
ATOM      6  C   UNL     1       1.698   7.165  19.457  0.00  0.00    +0.000 A 
ENDROOT
BRANCH   1   9
ATOM      7  C   UNL     1      -0.553  11.071  19.144  0.00  0.00    +0.000 A 
ATOM      8  N   UNL     1       0.161  10.229  18.411  0.00  0.00    +0.000 NA
ATOM      9  C   UNL     1       0.929   9.498  19.306  0.00  0.00    +0.000 A 
ATOM     10  C   UNL     1       0.639   9.909  20.584  0.00  0.00    +0.000 A 
ATOM     11 CL   UNL     1       1.081   9.442  22.154  0.00  0.00    +0.000 Cl
ATOM     12  N   UNL     1      -0.269  10.916  20.472  0.00  0.00    +0.000 N 
ATOM     13  H   UNL     1      -0.696  11.433  21.228  0.00  0.00    +0.000 HD
BRANCH   7  15
ATOM     14  N   UNL     1      -1.158  12.589  17.436  0.00  0.00    +0.000 N 
ATOM     15  C   UNL     1      -1.513  12.017  18.623  0.00  0.00    +0.000 C 
ATOM     16  O   UNL     1      -2.577  12.284  19.168  0.00  0.00    +0.000 OA
ATOM     17  H   UNL     1      -1.793  13.230  16.984  0.00  0.00    +0.000 HD
ATOM     18  H   UNL     1      -0.304  12.298  16.975  0.00  0.00    +0.000 HD
ENDBRANCH   7  15
ENDBRANCH   1   9
BRANCH   5  19
ATOM     19  C   UNL     1       2.389   4.751  19.761  0.00  0.00    +0.000 A 
ATOM     20  C   UNL     1       2.286   4.688  21.174  0.00  0.00    +0.000 A 
ATOM     21  C   UNL     1       2.199   3.482  21.872  0.00  0.00    +0.000 A 
ATOM     22  C   UNL     1       2.232   2.285  21.179  0.00  0.00    +0.000 A 
ATOM     23  C   UNL     1       2.318   2.304  19.791  0.00  0.00    +0.000 A 
ATOM     24  C   UNL     1       2.371   3.519  19.059  0.00  0.00    +0.000 A 
BRANCH  24  25
ATOM     25  C   UNL     1       2.428   3.354  17.554  0.00  0.00    +0.000 C 
ATOM     26  F   UNL     1       3.589   3.711  16.948  0.00  0.00    +0.000 F 
ATOM     27  F   UNL     1       2.186   2.063  17.179  0.00  0.00    +0.000 F 
ATOM     28  F   UNL     1       1.466   4.092  16.922  0.00  0.00    +0.000 F 
ENDBRANCH  24  25
ENDBRANCH   5  19
TORSDOF 4
ENDMDL
MODEL 8
REMARK VINA RESULT:      -8.0      2.411      4.044
REMARK  Name = 
REMARK  4 active torsions:
REMARK  status: ('A' for Active; 'I' for Inactive)
REMARK    1  A    between atoms: C_2  and  C_4
REMARK    2  A    between atoms: C_6  and  C_7
REMARK    3  A    between atoms: C_11  and  C_12
REMARK    4  A    between atoms: C_17  and  C_18
REMARK                            x       y       z     vdW  Elec       q    Type
REMARK                         _______ _______ _______ _____ _____    ______ ____
ROOT
ATOM      1  C   UNL     1       6.499   4.902  15.596  0.00  0.00    +0.000 A 
ATOM      2  C   UNL     1       7.540   4.730  16.511  0.00  0.00    +0.000 A 
ATOM      3  C   UNL     1       7.428   5.240  17.804  0.00  0.00    +0.000 A 
ATOM      4  C   UNL     1       6.276   5.932  18.189  0.00  0.00    +0.000 A 
ATOM      5  C   UNL     1       5.184   6.090  17.315  0.00  0.00    +0.000 A 
ATOM      6  C   UNL     1       5.319   5.538  16.030  0.00  0.00    +0.000 A 
ENDROOT
BRANCH   1   9
ATOM      7  C   UNL     1       5.974   3.338  12.446  0.00  0.00    +0.000 A 
ATOM      8  N   UNL     1       5.659   3.508  13.721  0.00  0.00    +0.000 NA
ATOM      9  C   UNL     1       6.566   4.433  14.219  0.00  0.00    +0.000 A 
ATOM     10  C   UNL     1       7.408   4.823  13.207  0.00  0.00    +0.000 A 
ATOM     11 CL   UNL     1       8.663   5.950  13.019  0.00  0.00    +0.000 Cl
ATOM     12  N   UNL     1       7.049   4.110  12.105  0.00  0.00    +0.000 N 
ATOM     13  H   UNL     1       7.467   4.164  11.186  0.00  0.00    +0.000 HD
BRANCH   7  15
ATOM     14  N   UNL     1       5.912   1.292  11.262  0.00  0.00    +0.000 N 
ATOM     15  C   UNL     1       5.274   2.469  11.526  0.00  0.00    +0.000 C 
ATOM     16  O   UNL     1       4.185   2.731  11.029  0.00  0.00    +0.000 OA
ATOM     17  H   UNL     1       5.471   0.611  10.663  0.00  0.00    +0.000 HD
ATOM     18  H   UNL     1       6.779   1.073  11.741  0.00  0.00    +0.000 HD
ENDBRANCH   7  15
ENDBRANCH   1   9
BRANCH   5  19
ATOM     19  C   UNL     1       3.916   6.722  17.770  0.00  0.00    +0.000 A 
ATOM     20  C   UNL     1       3.678   8.063  17.373  0.00  0.00    +0.000 A 
ATOM     21  C   UNL     1       2.561   8.788  17.793  0.00  0.00    +0.000 A 
ATOM     22  C   UNL     1       1.645   8.203  18.649  0.00  0.00    +0.000 A 
ATOM     23  C   UNL     1       1.836   6.885  19.049  0.00  0.00    +0.000 A 
ATOM     24  C   UNL     1       2.944   6.117  18.606  0.00  0.00    +0.000 A 
BRANCH  24  25
ATOM     25  C   UNL     1       2.975   4.690  19.115  0.00  0.00    +0.000 C 
ATOM     26  F   UNL     1       3.137   3.717  18.183  0.00  0.00    +0.000 F 
ATOM     27  F   UNL     1       3.968   4.505  20.034  0.00  0.00    +0.000 F 
ATOM     28  F   UNL     1       1.821   4.355  19.768  0.00  0.00    +0.000 F 
ENDBRANCH  24  25
ENDBRANCH   5  19
TORSDOF 4
ENDMDL
MODEL 9
REMARK VINA RESULT:      -7.9      4.937      7.065
REMARK  Name = 
REMARK  4 active torsions:
REMARK  status: ('A' for Active; 'I' for Inactive)
REMARK    1  A    between atoms: C_2  and  C_4
REMARK    2  A    between atoms: C_6  and  C_7
REMARK    3  A    between atoms: C_11  and  C_12
REMARK    4  A    between atoms: C_17  and  C_18
REMARK                            x       y       z     vdW  Elec       q    Type
REMARK                         _______ _______ _______ _____ _____    ______ ____
ROOT
ATOM      1  C   UNL     1       2.083   6.517  20.271  0.00  0.00    +0.000 A 
ATOM      2  C   UNL     1       1.487   5.390  20.841  0.00  0.00    +0.000 A 
ATOM      3  C   UNL     1       2.078   4.135  20.696  0.00  0.00    +0.000 A 
ATOM      4  C   UNL     1       3.265   3.998  19.971  0.00  0.00    +0.000 A 
ATOM      5  C   UNL     1       3.924   5.111  19.417  0.00  0.00    +0.000 A 
ATOM      6  C   UNL     1       3.317   6.364  19.609  0.00  0.00    +0.000 A 
ENDROOT
BRANCH   1   9
ATOM      7  C   UNL     1       0.558   9.573  21.263  0.00  0.00    +0.000 A 
ATOM      8  N   UNL     1       0.953   8.336  21.527  0.00  0.00    +0.000 NA
ATOM      9  C   UNL     1       1.500   7.849  20.348  0.00  0.00    +0.000 A 
ATOM     10  C   UNL     1       1.441   8.830  19.388  0.00  0.00    +0.000 A 
ATOM     11 CL   UNL     1       1.976   9.018  17.789  0.00  0.00    +0.000 Cl
ATOM     12  N   UNL     1       0.822   9.898  19.962  0.00  0.00    +0.000 N 
ATOM     13  H   UNL     1       0.627  10.790  19.527  0.00  0.00    +0.000 HD
BRANCH   7  15
ATOM     14  N   UNL     1      -0.719   9.849  23.233  0.00  0.00    +0.000 N 
ATOM     15  C   UNL     1      -0.055  10.470  22.215  0.00  0.00    +0.000 C 
ATOM     16  O   UNL     1       0.020  11.692  22.154  0.00  0.00    +0.000 OA
ATOM     17  H   UNL     1      -1.139  10.403  23.964  0.00  0.00    +0.000 HD
ATOM     18  H   UNL     1      -0.706   8.837  23.296  0.00  0.00    +0.000 HD
ENDBRANCH   7  15
ENDBRANCH   1   9
BRANCH   5  19
ATOM     19  C   UNL     1       5.248   4.973  18.751  0.00  0.00    +0.000 A 
ATOM     20  C   UNL     1       6.380   5.477  19.441  0.00  0.00    +0.000 A 
ATOM     21  C   UNL     1       7.664   5.472  18.892  0.00  0.00    +0.000 A 
ATOM     22  C   UNL     1       7.861   4.977  17.615  0.00  0.00    +0.000 A 
ATOM     23  C   UNL     1       6.779   4.460  16.912  0.00  0.00    +0.000 A 
ATOM     24  C   UNL     1       5.472   4.422  17.464  0.00  0.00    +0.000 A 
BRANCH  24  25
ATOM     25  C   UNL     1       4.421   3.794  16.572  0.00  0.00    +0.000 C 
ATOM     26  F   UNL     1       3.179   4.340  16.621  0.00  0.00    +0.000 F 
ATOM     27  F   UNL     1       4.795   3.819  15.259  0.00  0.00    +0.000 F 
ATOM     28  F   UNL     1       4.230   2.471  16.860  0.00  0.00    +0.000 F 
ENDBRANCH  24  25
ENDBRANCH   5  19
TORSDOF 4
ENDMDL
