MODEL 1
REMARK VINA RESULT:      -7.7      0.000      0.000
REMARK  Name = 
REMARK  4 active torsions:
REMARK  status: ('A' for Active; 'I' for Inactive)
REMARK    1  A    between atoms: C_7  and  N_8
REMARK    2  A    between atoms: N_8  and  C_9
REMARK    3  A    between atoms: N_21  and  C_22
REMARK    4  A    between atoms: C_22  and  C_23
REMARK                            x       y       z     vdW  Elec       q    Type
REMARK                         _______ _______ _______ _____ _____    ______ ____
ROOT
ATOM      1  C   UNL     1       3.607   6.754  17.760  0.00  0.00    +0.000 A 
ATOM      2  N   UNL     1       3.654   5.573  18.412  0.00  0.00    +0.000 NA
ATOM      3  C   UNL     1       2.885   5.408  19.484  0.00  0.00    +0.000 A 
ATOM      4  N   UNL     1       2.833   4.186  20.106  0.00  0.00    +0.000 N 
ATOM      5  C   UNL     1       1.554   3.750  20.666  0.00  0.00    +0.000 C 
ATOM      6  C   UNL     1       0.973   2.554  19.875  0.00  0.00    +0.000 C 
ATOM      7  N   UNL     1       1.925   1.439  19.715  0.00  0.00    +0.000 NA
ATOM      8  C   UNL     1       3.139   1.947  19.043  0.00  0.00    +0.000 C 
ATOM      9  C   UNL     1       3.797   3.133  19.779  0.00  0.00    +0.000 C 
ATOM     10  N   UNL     1       2.141   6.398  19.982  0.00  0.00    +0.000 NA
ATOM     11  C   UNL     1       2.180   7.609  19.383  0.00  0.00    +0.000 A 
ATOM     12  C   UNL     1       1.435   8.697  19.850  0.00  0.00    +0.000 A 
ATOM     13  N   UNL     1       0.719   8.548  21.070  0.00  0.00    +0.000 N 
ATOM     14  N   UNL     1       1.427   9.905  19.244  0.00  0.00    +0.000 NA
ATOM     15  C   UNL     1       2.170  10.028  18.143  0.00  0.00    +0.000 A 
ATOM     16  N   UNL     1       2.912   9.064  17.587  0.00  0.00    +0.000 NA
ATOM     17  C   UNL     1       2.904   7.866  18.226  0.00  0.00    +0.000 A 
ATOM     18  H   UNL     1       1.501   0.717  19.136  0.00  0.00    +0.000 HD
ATOM     19  H   UNL     1       0.506   7.560  21.198  0.00  0.00    +0.000 HD
ENDROOT
BRANCH   1  20
ATOM     20  N   UNL     1       4.271   6.869  16.511  0.00  0.00    +0.000 N 
ATOM     21  H   UNL     1       3.758   7.448  15.851  0.00  0.00    +0.000 HD
BRANCH  20  28
ATOM     22 CL   UNL     1       7.262   6.810  17.674  0.00  0.00    +0.000 Cl
ATOM     23  C   UNL     1       6.613   6.000  16.284  0.00  0.00    +0.000 A 
ATOM     24  C   UNL     1       7.516   5.184  15.587  0.00  0.00    +0.000 A 
ATOM     25  C   UNL     1       7.071   4.344  14.571  0.00  0.00    +0.000 A 
ATOM     26  C   UNL     1       5.718   4.309  14.253  0.00  0.00    +0.000 A 
ATOM     27  C   UNL     1       4.818   5.144  14.925  0.00  0.00    +0.000 A 
ATOM     28  C   UNL     1       5.246   6.024  15.939  0.00  0.00    +0.000 A 
ENDBRANCH  20  28
ENDBRANCH   1  20
BRANCH  13  29
ATOM     29  C   UNL     1      -0.444   9.415  21.182  0.00  0.00    +0.000 C 
BRANCH  29  30
ATOM     30  C   UNL     1      -0.226  10.421  22.278  0.00  0.00    +0.000 C 
ATOM     31  C   UNL     1      -0.597  11.874  22.107  0.00  0.00    +0.000 C 
ATOM     32  C   UNL     1      -1.413  10.998  23.014  0.00  0.00    +0.000 C 
ENDBRANCH  29  30
ENDBRANCH  13  29
TORSDOF 4
ENDMDL
MODEL 2
REMARK VINA RESULT:      -7.2      4.563      8.209
REMARK  Name = 
REMARK  4 active torsions:
REMARK  status: ('A' for Active; 'I' for Inactive)
REMARK    1  A    between atoms: C_7  and  N_8
REMARK    2  A    between atoms: N_8  and  C_9
REMARK    3  A    between atoms: N_21  and  C_22
REMARK    4  A    between atoms: C_22  and  C_23
REMARK                            x       y       z     vdW  Elec       q    Type
REMARK                         _______ _______ _______ _____ _____    ______ ____
ROOT
ATOM      1  C   UNL     1      -0.025  11.536  18.536  0.00  0.00    +0.000 A 
ATOM      2  N   UNL     1       0.233  12.681  19.204  0.00  0.00    +0.000 NA
ATOM      3  C   UNL     1      -0.789  13.376  19.691  0.00  0.00    +0.000 A 
ATOM      4  N   UNL     1      -0.553  14.487  20.462  0.00  0.00    +0.000 N 
ATOM      5  C   UNL     1      -1.456  14.755  21.581  0.00  0.00    +0.000 C 
ATOM      6  C   UNL     1      -0.742  14.561  22.939  0.00  0.00    +0.000 C 
ATOM      7  N   UNL     1       0.524  15.310  23.048  0.00  0.00    +0.000 NA
ATOM      8  C   UNL     1       1.415  14.895  21.945  0.00  0.00    +0.000 C 
ATOM      9  C   UNL     1       0.786  15.074  20.547  0.00  0.00    +0.000 C 
ATOM     10  N   UNL     1      -2.057  13.027  19.465  0.00  0.00    +0.000 NA
ATOM     11  C   UNL     1      -2.308  11.937  18.707  0.00  0.00    +0.000 A 
ATOM     12  C   UNL     1      -3.609  11.511  18.419  0.00  0.00    +0.000 A 
ATOM     13  N   UNL     1      -4.693  12.335  18.834  0.00  0.00    +0.000 N 
ATOM     14  N   UNL     1      -3.884  10.402  17.697  0.00  0.00    +0.000 NA
ATOM     15  C   UNL     1      -2.840   9.697  17.262  0.00  0.00    +0.000 A 
ATOM     16  N   UNL     1      -1.553   9.986  17.482  0.00  0.00    +0.000 NA
ATOM     17  C   UNL     1      -1.312  11.112  18.202  0.00  0.00    +0.000 A 
ATOM     18  H   UNL     1       0.969  15.088  23.937  0.00  0.00    +0.000 HD
ATOM     19  H   UNL     1      -4.391  12.880  19.640  0.00  0.00    +0.000 HD
ENDROOT
BRANCH   1  20
ATOM     20  N   UNL     1       1.061  10.692  18.186  0.00  0.00    +0.000 N 
ATOM     21  H   UNL     1       1.419  10.889  17.255  0.00  0.00    +0.000 HD
BRANCH  20  28
ATOM     22 CL   UNL     1       0.230   9.887  21.179  0.00  0.00    +0.000 Cl
ATOM     23  C   UNL     1       1.214   9.017  20.047  0.00  0.00    +0.000 A 
ATOM     24  C   UNL     1       1.691   7.777  20.493  0.00  0.00    +0.000 A 
ATOM     25  C   UNL     1       2.333   6.908  19.614  0.00  0.00    +0.000 A 
ATOM     26  C   UNL     1       2.494   7.274  18.283  0.00  0.00    +0.000 A 
ATOM     27  C   UNL     1       2.047   8.525  17.840  0.00  0.00    +0.000 A 
ATOM     28  C   UNL     1       1.418   9.433  18.714  0.00  0.00    +0.000 A 
ENDBRANCH  20  28
ENDBRANCH   1  20
BRANCH  13  29
ATOM     29  C   UNL     1      -5.935  11.609  19.052  0.00  0.00    +0.000 C 
BRANCH  29  30
ATOM     30  C   UNL     1      -6.386  11.790  20.476  0.00  0.00    +0.000 C 
ATOM     31  C   UNL     1      -7.586  12.636  20.827  0.00  0.00    +0.000 C 
ATOM     32  C   UNL     1      -7.668  11.140  20.944  0.00  0.00    +0.000 C 
ENDBRANCH  29  30
ENDBRANCH  13  29
TORSDOF 4
ENDMDL
MODEL 3
REMARK VINA RESULT:      -6.9      2.846      7.742
REMARK  Name = 
REMARK  4 active torsions:
REMARK  status: ('A' for Active; 'I' for Inactive)
REMARK    1  A    between atoms: C_7  and  N_8
REMARK    2  A    between atoms: N_8  and  C_9
REMARK    3  A    between atoms: N_21  and  C_22
REMARK    4  A    between atoms: C_22  and  C_23
REMARK                            x       y       z     vdW  Elec       q    Type
REMARK                         _______ _______ _______ _____ _____    ______ ____
ROOT
ATOM      1  C   UNL     1       3.196   5.500  19.318  0.00  0.00    +0.000 A 
ATOM      2  N   UNL     1       4.301   5.888  18.646  0.00  0.00    +0.000 NA
ATOM      3  C   UNL     1       5.361   5.085  18.649  0.00  0.00    +0.000 A 
ATOM      4  N   UNL     1       6.460   5.403  17.891  0.00  0.00    +0.000 N 
ATOM      5  C   UNL     1       7.198   4.313  17.254  0.00  0.00    +0.000 C 
ATOM      6  C   UNL     1       7.037   4.348  15.716  0.00  0.00    +0.000 C 
ATOM      7  N   UNL     1       7.353   5.661  15.123  0.00  0.00    +0.000 NA
ATOM      8  C   UNL     1       6.486   6.681  15.745  0.00  0.00    +0.000 C 
ATOM      9  C   UNL     1       6.599   6.729  17.284  0.00  0.00    +0.000 C 
ATOM     10  N   UNL     1       5.396   3.959  19.364  0.00  0.00    +0.000 NA
ATOM     11  C   UNL     1       4.323   3.631  20.118  0.00  0.00    +0.000 A 
ATOM     12  C   UNL     1       4.286   2.472  20.899  0.00  0.00    +0.000 A 
ATOM     13  N   UNL     1       5.471   1.689  20.999  0.00  0.00    +0.000 N 
ATOM     14  N   UNL     1       3.210   2.103  21.629  0.00  0.00    +0.000 NA
ATOM     15  C   UNL     1       2.144   2.901  21.569  0.00  0.00    +0.000 A 
ATOM     16  N   UNL     1       2.045   4.024  20.849  0.00  0.00    +0.000 NA
ATOM     17  C   UNL     1       3.148   4.370  20.136  0.00  0.00    +0.000 A 
ATOM     18  H   UNL     1       7.167   5.630  14.122  0.00  0.00    +0.000 HD
ATOM     19  H   UNL     1       6.029   1.846  20.161  0.00  0.00    +0.000 HD
ENDROOT
BRANCH   1  20
ATOM     20  N   UNL     1       2.004   6.252  19.159  0.00  0.00    +0.000 N 
ATOM     21  H   UNL     1       1.257   5.708  18.733  0.00  0.00    +0.000 HD
BRANCH  20  28
ATOM     22 CL   UNL     1       1.161   7.887  21.789  0.00  0.00    +0.000 Cl
ATOM     23  C   UNL     1       1.350   8.456  20.162  0.00  0.00    +0.000 A 
ATOM     24  C   UNL     1       1.130   9.829  19.975  0.00  0.00    +0.000 A 
ATOM     25  C   UNL     1       1.430  10.434  18.758  0.00  0.00    +0.000 A 
ATOM     26  C   UNL     1       1.959   9.671  17.724  0.00  0.00    +0.000 A 
ATOM     27  C   UNL     1       2.152   8.295  17.896  0.00  0.00    +0.000 A 
ATOM     28  C   UNL     1       1.832   7.652  19.107  0.00  0.00    +0.000 A 
ENDBRANCH  20  28
ENDBRANCH   1  20
BRANCH  13  29
ATOM     29  C   UNL     1       5.227   0.284  21.284  0.00  0.00    +0.000 C 
BRANCH  29  30
ATOM     30  C   UNL     1       6.421  -0.308  21.981  0.00  0.00    +0.000 C 
ATOM     31  C   UNL     1       6.309  -1.551  22.830  0.00  0.00    +0.000 C 
ATOM     32  C   UNL     1       6.999  -1.619  21.497  0.00  0.00    +0.000 C 
ENDBRANCH  29  30
ENDBRANCH  13  29
TORSDOF 4
ENDMDL
MODEL 4
REMARK VINA RESULT:      -6.8      4.539      8.225
REMARK  Name = 
REMARK  4 active torsions:
REMARK  status: ('A' for Active; 'I' for Inactive)
REMARK    1  A    between atoms: C_7  and  N_8
REMARK    2  A    between atoms: N_8  and  C_9
REMARK    3  A    between atoms: N_21  and  C_22
REMARK    4  A    between atoms: C_22  and  C_23
REMARK                            x       y       z     vdW  Elec       q    Type
REMARK                         _______ _______ _______ _____ _____    ______ ____
ROOT
ATOM      1  C   UNL     1      -0.132  11.322  18.627  0.00  0.00    +0.000 A 
ATOM      2  N   UNL     1       0.237  12.479  19.217  0.00  0.00    +0.000 NA
ATOM      3  C   UNL     1      -0.713  13.317  19.621  0.00  0.00    +0.000 A 
ATOM      4  N   UNL     1      -0.372  14.451  20.315  0.00  0.00    +0.000 N 
ATOM      5  C   UNL     1      -1.265  14.901  21.383  0.00  0.00    +0.000 C 
ATOM      6  C   UNL     1      -0.607  14.733  22.773  0.00  0.00    +0.000 C 
ATOM      7  N   UNL     1       0.732  15.347  22.865  0.00  0.00    +0.000 NA
ATOM      8  C   UNL     1       1.595  14.754  21.823  0.00  0.00    +0.000 C 
ATOM      9  C   UNL     1       1.021  14.894  20.397  0.00  0.00    +0.000 C 
ATOM     10  N   UNL     1      -2.006  13.091  19.382  0.00  0.00    +0.000 NA
ATOM     11  C   UNL     1      -2.360  11.981  18.699  0.00  0.00    +0.000 A 
ATOM     12  C   UNL     1      -3.693  11.678  18.404  0.00  0.00    +0.000 A 
ATOM     13  N   UNL     1      -4.689  12.643  18.724  0.00  0.00    +0.000 N 
ATOM     14  N   UNL     1      -4.073  10.554  17.758  0.00  0.00    +0.000 NA
ATOM     15  C   UNL     1      -3.105   9.708  17.407  0.00  0.00    +0.000 A 
ATOM     16  N   UNL     1      -1.798   9.871  17.644  0.00  0.00    +0.000 NA
ATOM     17  C   UNL     1      -1.450  11.016  18.287  0.00  0.00    +0.000 A 
ATOM     18  H   UNL     1       1.129  15.147  23.781  0.00  0.00    +0.000 HD
ATOM     19  H   UNL     1      -4.346  13.212  19.497  0.00  0.00    +0.000 HD
ENDROOT
BRANCH   1  20
ATOM     20  N   UNL     1       0.861  10.341  18.373  0.00  0.00    +0.000 N 
ATOM     21  H   UNL     1       1.085  10.265  17.384  0.00  0.00    +0.000 HD
BRANCH  20  28
ATOM     22 CL   UNL     1       2.995   8.213  17.269  0.00  0.00    +0.000 Cl
ATOM     23  C   UNL     1       2.082   8.181  18.743  0.00  0.00    +0.000 A 
ATOM     24  C   UNL     1       2.331   7.085  19.581  0.00  0.00    +0.000 A 
ATOM     25  C   UNL     1       1.800   7.044  20.868  0.00  0.00    +0.000 A 
ATOM     26  C   UNL     1       1.024   8.102  21.324  0.00  0.00    +0.000 A 
ATOM     27  C   UNL     1       0.747   9.184  20.480  0.00  0.00    +0.000 A 
ATOM     28  C   UNL     1       1.249   9.239  19.165  0.00  0.00    +0.000 A 
ENDBRANCH  20  28
ENDBRANCH   1  20
BRANCH  13  29
ATOM     29  C   UNL     1      -6.008  12.076  18.958  0.00  0.00    +0.000 C 
BRANCH  29  30
ATOM     30  C   UNL     1      -6.173  11.759  20.419  0.00  0.00    +0.000 C 
ATOM     31  C   UNL     1      -6.907  12.689  21.355  0.00  0.00    +0.000 C 
ATOM     32  C   UNL     1      -7.536  11.385  20.955  0.00  0.00    +0.000 C 
ENDBRANCH  29  30
ENDBRANCH  13  29
TORSDOF 4
ENDMDL
MODEL 5
REMARK VINA RESULT:      -6.8      2.108      7.105
REMARK  Name = 
REMARK  4 active torsions:
REMARK  status: ('A' for Active; 'I' for Inactive)
REMARK    1  A    between atoms: C_7  and  N_8
REMARK    2  A    between atoms: N_8  and  C_9
REMARK    3  A    between atoms: N_21  and  C_22
REMARK    4  A    between atoms: C_22  and  C_23
REMARK                            x       y       z     vdW  Elec       q    Type
REMARK                         _______ _______ _______ _____ _____    ______ ____
ROOT
ATOM      1  C   UNL     1       2.850   6.748  18.733  0.00  0.00    +0.000 A 
ATOM      2  N   UNL     1       2.272   5.667  19.300  0.00  0.00    +0.000 NA
ATOM      3  C   UNL     1       2.628   4.459  18.876  0.00  0.00    +0.000 A 
ATOM      4  N   UNL     1       2.135   3.342  19.502  0.00  0.00    +0.000 N 
ATOM      5  C   UNL     1       3.016   2.183  19.641  0.00  0.00    +0.000 C 
ATOM      6  C   UNL     1       3.405   1.946  21.119  0.00  0.00    +0.000 C 
ATOM      7  N   UNL     1       2.244   1.880  22.027  0.00  0.00    +0.000 NA
ATOM      8  C   UNL     1       1.475   3.135  21.901  0.00  0.00    +0.000 C 
ATOM      9  C   UNL     1       1.028   3.440  20.456  0.00  0.00    +0.000 C 
ATOM     10  N   UNL     1       3.468   4.286  17.852  0.00  0.00    +0.000 NA
ATOM     11  C   UNL     1       3.962   5.375  17.223  0.00  0.00    +0.000 A 
ATOM     12  C   UNL     1       4.842   5.276  16.139  0.00  0.00    +0.000 A 
ATOM     13  N   UNL     1       5.113   3.983  15.610  0.00  0.00    +0.000 N 
ATOM     14  N   UNL     1       5.380   6.350  15.520  0.00  0.00    +0.000 NA
ATOM     15  C   UNL     1       5.043   7.548  15.998  0.00  0.00    +0.000 A 
ATOM     16  N   UNL     1       4.229   7.777  17.034  0.00  0.00    +0.000 NA
ATOM     17  C   UNL     1       3.698   6.677  17.627  0.00  0.00    +0.000 A 
ATOM     18  H   UNL     1       2.573   1.785  22.986  0.00  0.00    +0.000 HD
ATOM     19  H   UNL     1       4.975   3.298  16.351  0.00  0.00    +0.000 HD
ENDROOT
BRANCH   1  20
ATOM     20  N   UNL     1       2.623   8.023  19.311  0.00  0.00    +0.000 N 
ATOM     21  H   UNL     1       3.269   8.224  20.071  0.00  0.00    +0.000 HD
BRANCH  20  28
ATOM     22 CL   UNL     1       1.253   8.995  22.046  0.00  0.00    +0.000 Cl
ATOM     23  C   UNL     1       0.705   9.204  20.414  0.00  0.00    +0.000 A 
ATOM     24  C   UNL     1      -0.492   9.920  20.269  0.00  0.00    +0.000 A 
ATOM     25  C   UNL     1      -0.934  10.310  19.008  0.00  0.00    +0.000 A 
ATOM     26  C   UNL     1      -0.177   9.992  17.886  0.00  0.00    +0.000 A 
ATOM     27  C   UNL     1       1.002   9.249  18.024  0.00  0.00    +0.000 A 
ATOM     28  C   UNL     1       1.458   8.819  19.285  0.00  0.00    +0.000 A 
ENDBRANCH  20  28
ENDBRANCH   1  20
BRANCH  13  29
ATOM     29  C   UNL     1       6.405   3.876  14.950  0.00  0.00    +0.000 C 
BRANCH  29  30
ATOM     30  C   UNL     1       6.232   3.262  13.588  0.00  0.00    +0.000 C 
ATOM     31  C   UNL     1       5.230   3.802  12.596  0.00  0.00    +0.000 C 
ATOM     32  C   UNL     1       6.699   4.012  12.362  0.00  0.00    +0.000 C 
ENDBRANCH  29  30
ENDBRANCH  13  29
TORSDOF 4
ENDMDL
MODEL 6
REMARK VINA RESULT:      -6.6      5.204      8.895
REMARK  Name = 
REMARK  4 active torsions:
REMARK  status: ('A' for Active; 'I' for Inactive)
REMARK    1  A    between atoms: C_7  and  N_8
REMARK    2  A    between atoms: N_8  and  C_9
REMARK    3  A    between atoms: N_21  and  C_22
REMARK    4  A    between atoms: C_22  and  C_23
REMARK                            x       y       z     vdW  Elec       q    Type
REMARK                         _______ _______ _______ _____ _____    ______ ____
ROOT
ATOM      1  C   UNL     1      -1.040  12.065  19.387  0.00  0.00    +0.000 A 
ATOM      2  N   UNL     1      -1.168  13.062  20.289  0.00  0.00    +0.000 NA
ATOM      3  C   UNL     1      -2.389  13.402  20.692  0.00  0.00    +0.000 A 
ATOM      4  N   UNL     1      -2.544  14.340  21.682  0.00  0.00    +0.000 N 
ATOM      5  C   UNL     1      -3.636  14.158  22.639  0.00  0.00    +0.000 C 
ATOM      6  C   UNL     1      -3.097  13.823  24.049  0.00  0.00    +0.000 C 
ATOM      7  N   UNL     1      -2.082  14.778  24.531  0.00  0.00    +0.000 NA
ATOM      8  C   UNL     1      -0.969  14.814  23.561  0.00  0.00    +0.000 C 
ATOM      9  C   UNL     1      -1.416  15.162  22.125  0.00  0.00    +0.000 C 
ATOM     10  N   UNL     1      -3.487  12.853  20.168  0.00  0.00    +0.000 NA
ATOM     11  C   UNL     1      -3.353  11.930  19.191  0.00  0.00    +0.000 A 
ATOM     12  C   UNL     1      -4.455  11.314  18.589  0.00  0.00    +0.000 A 
ATOM     13  N   UNL     1      -5.756  11.779  18.933  0.00  0.00    +0.000 N 
ATOM     14  N   UNL     1      -4.344  10.359  17.639  0.00  0.00    +0.000 NA
ATOM     15  C   UNL     1      -3.108  10.003  17.289  0.00  0.00    +0.000 A 
ATOM     16  N   UNL     1      -1.976  10.500  17.799  0.00  0.00    +0.000 NA
ATOM     17  C   UNL     1      -2.123  11.464  18.744  0.00  0.00    +0.000 A 
ATOM     18  H   UNL     1      -1.729  14.464  25.433  0.00  0.00    +0.000 HD
ATOM     19  H   UNL     1      -5.714  12.183  19.867  0.00  0.00    +0.000 HD
ENDROOT
BRANCH   1  20
ATOM     20  N   UNL     1       0.257  11.567  19.103  0.00  0.00    +0.000 N 
ATOM     21  H   UNL     1       0.731  12.110  18.385  0.00  0.00    +0.000 HD
BRANCH  20  28
ATOM     22 CL   UNL     1      -0.229  10.082  21.906  0.00  0.00    +0.000 Cl
ATOM     23  C   UNL     1       0.743   9.584  20.559  0.00  0.00    +0.000 A 
ATOM     24  C   UNL     1       1.385   8.346  20.706  0.00  0.00    +0.000 A 
ATOM     25  C   UNL     1       2.039   7.756  19.628  0.00  0.00    +0.000 A 
ATOM     26  C   UNL     1       2.047   8.398  18.396  0.00  0.00    +0.000 A 
ATOM     27  C   UNL     1       1.435   9.649  18.253  0.00  0.00    +0.000 A 
ATOM     28  C   UNL     1       0.789  10.280  19.333  0.00  0.00    +0.000 A 
ENDBRANCH  20  28
ENDBRANCH   1  20
BRANCH  13  29
ATOM     29  C   UNL     1      -6.800  10.778  18.776  0.00  0.00    +0.000 C 
BRANCH  29  30
ATOM     30  C   UNL     1      -6.735   9.793  19.911  0.00  0.00    +0.000 C 
ATOM     31  C   UNL     1      -7.916   9.551  20.820  0.00  0.00    +0.000 C 
ATOM     32  C   UNL     1      -7.512   8.500  19.826  0.00  0.00    +0.000 C 
ENDBRANCH  29  30
ENDBRANCH  13  29
TORSDOF 4
ENDMDL
MODEL 7
REMARK VINA RESULT:      -6.5      7.738      9.485
REMARK  Name = 
REMARK  4 active torsions:
REMARK  status: ('A' for Active; 'I' for Inactive)
REMARK    1  A    between atoms: C_7  and  N_8
REMARK    2  A    between atoms: N_8  and  C_9
REMARK    3  A    between atoms: N_21  and  C_22
REMARK    4  A    between atoms: C_22  and  C_23
REMARK                            x       y       z     vdW  Elec       q    Type
REMARK                         _______ _______ _______ _____ _____    ______ ____
ROOT
ATOM      1  C   UNL     1      -0.540  13.093  19.833  0.00  0.00    +0.000 A 
ATOM      2  N   UNL     1      -1.105  12.236  18.955  0.00  0.00    +0.000 NA
ATOM      3  C   UNL     1      -2.307  11.743  19.232  0.00  0.00    +0.000 A 
ATOM      4  N   UNL     1      -2.949  10.952  18.313  0.00  0.00    +0.000 N 
ATOM      5  C   UNL     1      -4.402  11.071  18.194  0.00  0.00    +0.000 C 
ATOM      6  C   UNL     1      -4.805  11.707  16.843  0.00  0.00    +0.000 C 
ATOM      7  N   UNL     1      -4.201  11.037  15.676  0.00  0.00    +0.000 NA
ATOM      8  C   UNL     1      -2.732  11.061  15.827  0.00  0.00    +0.000 C 
ATOM      9  C   UNL     1      -2.239  10.426  17.145  0.00  0.00    +0.000 C 
ATOM     10  N   UNL     1      -2.929  11.997  20.386  0.00  0.00    +0.000 NA
ATOM     11  C   UNL     1      -2.311  12.772  21.304  0.00  0.00    +0.000 A 
ATOM     12  C   UNL     1      -2.896  13.078  22.537  0.00  0.00    +0.000 A 
ATOM     13  N   UNL     1      -4.121  12.440  22.878  0.00  0.00    +0.000 N 
ATOM     14  N   UNL     1      -2.314  13.884  23.454  0.00  0.00    +0.000 NA
ATOM     15  C   UNL     1      -1.131  14.404  23.129  0.00  0.00    +0.000 A 
ATOM     16  N   UNL     1      -0.476  14.204  21.980  0.00  0.00    +0.000 NA
ATOM     17  C   UNL     1      -1.083  13.383  21.085  0.00  0.00    +0.000 A 
ATOM     18  H   UNL     1      -4.458  11.541  14.830  0.00  0.00    +0.000 HD
ATOM     19  H   UNL     1      -4.604  12.194  22.015  0.00  0.00    +0.000 HD
ENDROOT
BRANCH   1  20
ATOM     20  N   UNL     1       0.647  13.772  19.454  0.00  0.00    +0.000 N 
ATOM     21  H   UNL     1       1.466  13.420  19.943  0.00  0.00    +0.000 HD
BRANCH  20  28
ATOM     22 CL   UNL     1       3.517  14.758  18.410  0.00  0.00    +0.000 Cl
ATOM     23  C   UNL     1       2.021  15.633  18.486  0.00  0.00    +0.000 A 
ATOM     24  C   UNL     1       2.068  16.947  17.998  0.00  0.00    +0.000 A 
ATOM     25  C   UNL     1       0.897  17.683  17.836  0.00  0.00    +0.000 A 
ATOM     26  C   UNL     1      -0.327  17.105  18.153  0.00  0.00    +0.000 A 
ATOM     27  C   UNL     1      -0.374  15.805  18.671  0.00  0.00    +0.000 A 
ATOM     28  C   UNL     1       0.797  15.048  18.870  0.00  0.00    +0.000 A 
ENDBRANCH  20  28
ENDBRANCH   1  20
BRANCH  13  29
ATOM     29  C   UNL     1      -4.941  13.198  23.811  0.00  0.00    +0.000 C 
BRANCH  29  30
ATOM     30  C   UNL     1      -6.343  13.311  23.279  0.00  0.00    +0.000 C 
ATOM     31  C   UNL     1      -7.422  12.330  23.669  0.00  0.00    +0.000 C 
ATOM     32  C   UNL     1      -7.463  13.733  24.202  0.00  0.00    +0.000 C 
ENDBRANCH  29  30
ENDBRANCH  13  29
TORSDOF 4
ENDMDL
MODEL 8
REMARK VINA RESULT:      -6.4      1.254      1.542
REMARK  Name = 
REMARK  4 active torsions:
REMARK  status: ('A' for Active; 'I' for Inactive)
REMARK    1  A    between atoms: C_7  and  N_8
REMARK    2  A    between atoms: N_8  and  C_9
REMARK    3  A    between atoms: N_21  and  C_22
REMARK    4  A    between atoms: C_22  and  C_23
REMARK                            x       y       z     vdW  Elec       q    Type
REMARK                         _______ _______ _______ _____ _____    ______ ____
ROOT
ATOM      1  C   UNL     1       3.712   7.161  17.848  0.00  0.00    +0.000 A 
ATOM      2  N   UNL     1       3.619   6.030  18.582  0.00  0.00    +0.000 NA
ATOM      3  C   UNL     1       2.661   5.945  19.499  0.00  0.00    +0.000 A 
ATOM      4  N   UNL     1       2.476   4.772  20.187  0.00  0.00    +0.000 N 
ATOM      5  C   UNL     1       1.109   4.379  20.527  0.00  0.00    +0.000 C 
ATOM      6  C   UNL     1       0.669   3.129  19.729  0.00  0.00    +0.000 C 
ATOM      7  N   UNL     1       1.618   2.004  19.831  0.00  0.00    +0.000 NA
ATOM      8  C   UNL     1       2.942   2.461  19.364  0.00  0.00    +0.000 C 
ATOM      9  C   UNL     1       3.469   3.698  20.123  0.00  0.00    +0.000 C 
ATOM     10  N   UNL     1       1.851   6.970  19.776  0.00  0.00    +0.000 NA
ATOM     11  C   UNL     1       2.019   8.133  19.110  0.00  0.00    +0.000 A 
ATOM     12  C   UNL     1       1.216   9.253  19.349  0.00  0.00    +0.000 A 
ATOM     13  N   UNL     1       0.282   9.195  20.421  0.00  0.00    +0.000 N 
ATOM     14  N   UNL     1       1.339  10.414  18.667  0.00  0.00    +0.000 NA
ATOM     15  C   UNL     1       2.276  10.455  17.719  0.00  0.00    +0.000 A 
ATOM     16  N   UNL     1       3.094   9.452  17.383  0.00  0.00    +0.000 NA
ATOM     17  C   UNL     1       2.950   8.304  18.094  0.00  0.00    +0.000 A 
ATOM     18  H   UNL     1       1.299   1.242  19.236  0.00  0.00    +0.000 HD
ATOM     19  H   UNL     1       0.035   8.219  20.577  0.00  0.00    +0.000 HD
ENDROOT
BRANCH   1  20
ATOM     20  N   UNL     1       4.600   7.183  16.742  0.00  0.00    +0.000 N 
ATOM     21  H   UNL     1       4.382   7.930  16.087  0.00  0.00    +0.000 HD
BRANCH  20  28
ATOM     22 CL   UNL     1       7.415   6.483  18.114  0.00  0.00    +0.000 Cl
ATOM     23  C   UNL     1       6.711   5.831  16.670  0.00  0.00    +0.000 A 
ATOM     24  C   UNL     1       7.467   4.841  16.026  0.00  0.00    +0.000 A 
ATOM     25  C   UNL     1       6.927   4.115  14.968  0.00  0.00    +0.000 A 
ATOM     26  C   UNL     1       5.626   4.371  14.554  0.00  0.00    +0.000 A 
ATOM     27  C   UNL     1       4.879   5.381  15.173  0.00  0.00    +0.000 A 
ATOM     28  C   UNL     1       5.410   6.148  16.228  0.00  0.00    +0.000 A 
ENDBRANCH  20  28
ENDBRANCH   1  20
BRANCH  13  29
ATOM     29  C   UNL     1      -0.868  10.068  20.250  0.00  0.00    +0.000 C 
BRANCH  29  30
ATOM     30  C   UNL     1      -1.196  10.196  18.788  0.00  0.00    +0.000 C 
ATOM     31  C   UNL     1      -2.593   9.962  18.263  0.00  0.00    +0.000 C 
ATOM     32  C   UNL     1      -2.036  11.357  18.306  0.00  0.00    +0.000 C 
ENDBRANCH  29  30
ENDBRANCH  13  29
TORSDOF 4
ENDMDL
MODEL 9
REMARK VINA RESULT:      -6.4      4.753      8.465
REMARK  Name = 
REMARK  4 active torsions:
REMARK  status: ('A' for Active; 'I' for Inactive)
REMARK    1  A    between atoms: C_7  and  N_8
REMARK    2  A    between atoms: N_8  and  C_9
REMARK    3  A    between atoms: N_21  and  C_22
REMARK    4  A    between atoms: C_22  and  C_23
REMARK                            x       y       z     vdW  Elec       q    Type
REMARK                         _______ _______ _______ _____ _____    ______ ____
ROOT
ATOM      1  C   UNL     1      -0.296  11.706  19.151  0.00  0.00    +0.000 A 
ATOM      2  N   UNL     1      -0.383  12.777  19.969  0.00  0.00    +0.000 NA
ATOM      3  C   UNL     1      -1.584  13.291  20.217  0.00  0.00    +0.000 A 
ATOM      4  N   UNL     1      -1.715  14.312  21.124  0.00  0.00    +0.000 N 
ATOM      5  C   UNL     1      -2.910  14.336  21.969  0.00  0.00    +0.000 C 
ATOM      6  C   UNL     1      -2.558  14.047  23.447  0.00  0.00    +0.000 C 
ATOM      7  N   UNL     1      -1.482  14.907  23.973  0.00  0.00    +0.000 NA
ATOM      8  C   UNL     1      -0.284  14.735  23.127  0.00  0.00    +0.000 C 
ATOM      9  C   UNL     1      -0.541  15.024  21.632  0.00  0.00    +0.000 C 
ATOM     10  N   UNL     1      -2.687  12.839  19.616  0.00  0.00    +0.000 NA
ATOM     11  C   UNL     1      -2.576  11.835  18.719  0.00  0.00    +0.000 A 
ATOM     12  C   UNL     1      -3.684  11.312  18.043  0.00  0.00    +0.000 A 
ATOM     13  N   UNL     1      -4.942  11.954  18.216  0.00  0.00    +0.000 N 
ATOM     14  N   UNL     1      -3.603  10.282  17.172  0.00  0.00    +0.000 NA
ATOM     15  C   UNL     1      -2.394   9.754  16.979  0.00  0.00    +0.000 A 
ATOM     16  N   UNL     1      -1.263  10.150  17.574  0.00  0.00    +0.000 NA
ATOM     17  C   UNL     1      -1.378  11.193  18.435  0.00  0.00    +0.000 A 
ATOM     18  H   UNL     1      -1.261  14.622  24.926  0.00  0.00    +0.000 HD
ATOM     19  H   UNL     1      -4.941  12.421  19.122  0.00  0.00    +0.000 HD
ENDROOT
BRANCH   1  20
ATOM     20  N   UNL     1       0.950  11.036  19.038  0.00  0.00    +0.000 N 
ATOM     21  H   UNL     1       1.576  11.493  18.379  0.00  0.00    +0.000 HD
BRANCH  20  28
ATOM     22 CL   UNL     1      -0.067   9.708  21.777  0.00  0.00    +0.000 Cl
ATOM     23  C   UNL     1       0.987   9.049  20.567  0.00  0.00    +0.000 A 
ATOM     24  C   UNL     1       1.436   7.742  20.808  0.00  0.00    +0.000 A 
ATOM     25  C   UNL     1       2.132   7.042  19.827  0.00  0.00    +0.000 A 
ATOM     26  C   UNL     1       2.375   7.642  18.597  0.00  0.00    +0.000 A 
ATOM     27  C   UNL     1       1.956   8.958  18.364  0.00  0.00    +0.000 A 
ATOM     28  C   UNL     1       1.273   9.698  19.348  0.00  0.00    +0.000 A 
ENDBRANCH  20  28
ENDBRANCH   1  20
BRANCH  13  29
ATOM     29  C   UNL     1      -6.084  11.077  18.012  0.00  0.00    +0.000 C 
BRANCH  29  30
ATOM     30  C   UNL     1      -6.955  11.083  19.238  0.00  0.00    +0.000 C 
ATOM     31  C   UNL     1      -6.491  11.694  20.539  0.00  0.00    +0.000 C 
ATOM     32  C   UNL     1      -7.551  12.384  19.728  0.00  0.00    +0.000 C 
ENDBRANCH  29  30
ENDBRANCH  13  29
TORSDOF 4
ENDMDL
