MODEL 1
REMARK VINA RESULT:      -8.1      0.000      0.000
REMARK  Name = 
REMARK  3 active torsions:
REMARK  status: ('A' for Active; 'I' for Inactive)
REMARK    1  A    between atoms: C_3  and  C_4
REMARK    2  A    between atoms: N_12  and  C_13
REMARK    3  A    between atoms: C_21  and  N_22
REMARK                            x       y       z     vdW  Elec       q    Type
REMARK                         _______ _______ _______ _____ _____    ______ ____
ROOT
ATOM      1  C   UNL     1       1.832   7.612  19.652  0.00  0.00    +0.000 A 
ATOM      2  C   UNL     1       1.434   6.788  20.709  0.00  0.00    +0.000 A 
ATOM      3  C   UNL     1       1.918   5.481  20.829  0.00  0.00    +0.000 A 
ATOM      4  C   UNL     1       2.832   4.955  19.931  0.00  0.00    +0.000 A 
ATOM      5  N   UNL     1       3.248   3.700  20.112  0.00  0.00    +0.000 NA
ATOM      6  C   UNL     1       4.138   3.233  19.234  0.00  0.00    +0.000 A 
ATOM      7  N   UNL     1       4.674   3.911  18.220  0.00  0.00    +0.000 NA
ATOM      8  C   UNL     1       4.271   5.187  18.052  0.00  0.00    +0.000 A 
ATOM      9  N   UNL     1       4.854   5.969  17.019  0.00  0.00    +0.000 N 
ATOM     10  C   UNL     1       3.284   5.761  18.882  0.00  0.00    +0.000 A 
ATOM     11  C   UNL     1       2.749   7.071  18.735  0.00  0.00    +0.000 A 
ATOM     12  H   UNL     1       5.042   6.908  17.351  0.00  0.00    +0.000 HD
ENDROOT
BRANCH   1  15
ATOM     13  C   UNL     1       0.827  10.974  18.218  0.00  0.00    +0.000 A 
ATOM     14  C   UNL     1       1.360   9.692  18.316  0.00  0.00    +0.000 A 
ATOM     15  C   UNL     1       1.353   9.006  19.537  0.00  0.00    +0.000 A 
ATOM     16  C   UNL     1       0.828   9.684  20.660  0.00  0.00    +0.000 A 
ATOM     17  C   UNL     1       0.293  10.980  20.604  0.00  0.00    +0.000 A 
ATOM     18  C   UNL     1       0.295  11.599  19.348  0.00  0.00    +0.000 A 
BRANCH  17  19
ATOM     19  N   UNL     1      -0.249  11.593  21.713  0.00  0.00    +0.000 N 
ATOM     20  C   UNL     1      -0.791  10.858  22.867  0.00  0.00    +0.000 C 
ATOM     21  C   UNL     1      -2.127  11.498  23.288  0.00  0.00    +0.000 C 
ATOM     22  O   UNL     1      -2.001  12.910  23.534  0.00  0.00    +0.000 OA
ATOM     23  C   UNL     1      -1.512  13.581  22.358  0.00  0.00    +0.000 C 
ATOM     24  C   UNL     1      -0.134  13.041  21.950  0.00  0.00    +0.000 C 
ENDBRANCH  17  19
ENDBRANCH   1  15
BRANCH   9  25
ATOM     25  C   UNL     1       5.743   5.508  16.097  0.00  0.00    +0.000 A 
ATOM     26  C   UNL     1       7.125   5.608  16.025  0.00  0.00    +0.000 A 
ATOM     27  N   UNL     1       7.732   5.023  14.927  0.00  0.00    +0.000 NA
ATOM     28  C   UNL     1       6.807   4.472  14.176  0.00  0.00    +0.000 A 
ATOM     29  S   UNL     1       5.194   4.601  14.738  0.00  0.00    +0.000 S 
ENDBRANCH   9  25
TORSDOF 3
ENDMDL
MODEL 2
REMARK VINA RESULT:      -8.1      4.184      9.203
REMARK  Name = 
REMARK  3 active torsions:
REMARK  status: ('A' for Active; 'I' for Inactive)
REMARK    1  A    between atoms: C_3  and  C_4
REMARK    2  A    between atoms: N_12  and  C_13
REMARK    3  A    between atoms: C_21  and  N_22
REMARK                            x       y       z     vdW  Elec       q    Type
REMARK                         _______ _______ _______ _____ _____    ______ ____
ROOT
ATOM      1  C   UNL     1       0.777   9.522  20.760  0.00  0.00    +0.000 A 
ATOM      2  C   UNL     1      -0.015   9.025  21.799  0.00  0.00    +0.000 A 
ATOM      3  C   UNL     1      -0.694   9.888  22.666  0.00  0.00    +0.000 A 
ATOM      4  C   UNL     1      -0.640  11.263  22.518  0.00  0.00    +0.000 A 
ATOM      5  N   UNL     1      -1.316  12.021  23.384  0.00  0.00    +0.000 NA
ATOM      6  C   UNL     1      -1.250  13.341  23.202  0.00  0.00    +0.000 A 
ATOM      7  N   UNL     1      -0.605  13.969  22.219  0.00  0.00    +0.000 NA
ATOM      8  C   UNL     1       0.058  13.202  21.330  0.00  0.00    +0.000 A 
ATOM      9  N   UNL     1       0.716  13.820  20.233  0.00  0.00    +0.000 N 
ATOM     10  C   UNL     1       0.111  11.798  21.466  0.00  0.00    +0.000 A 
ATOM     11  C   UNL     1       0.841  10.918  20.621  0.00  0.00    +0.000 A 
ATOM     12  H   UNL     1       0.568  13.285  19.385  0.00  0.00    +0.000 HD
ENDROOT
BRANCH   1  15
ATOM     13  C   UNL     1       2.477   8.161  17.657  0.00  0.00    +0.000 A 
ATOM     14  C   UNL     1       1.751   8.998  18.499  0.00  0.00    +0.000 A 
ATOM     15  C   UNL     1       1.470   8.617  19.817  0.00  0.00    +0.000 A 
ATOM     16  C   UNL     1       1.912   7.341  20.233  0.00  0.00    +0.000 A 
ATOM     17  C   UNL     1       2.635   6.464  19.411  0.00  0.00    +0.000 A 
ATOM     18  C   UNL     1       2.917   6.917  18.116  0.00  0.00    +0.000 A 
BRANCH  17  19
ATOM     19  N   UNL     1       3.086   5.244  19.865  0.00  0.00    +0.000 N 
ATOM     20  C   UNL     1       4.381   4.659  19.482  0.00  0.00    +0.000 C 
ATOM     21  C   UNL     1       4.183   3.168  19.156  0.00  0.00    +0.000 C 
ATOM     22  O   UNL     1       3.546   2.455  20.230  0.00  0.00    +0.000 OA
ATOM     23  C   UNL     1       2.266   3.042  20.529  0.00  0.00    +0.000 C 
ATOM     24  C   UNL     1       2.419   4.510  20.952  0.00  0.00    +0.000 C 
ENDBRANCH  17  19
ENDBRANCH   1  15
BRANCH   9  25
ATOM     25  C   UNL     1       0.818  15.164  20.040  0.00  0.00    +0.000 A 
ATOM     26  C   UNL     1       1.759  16.085  20.475  0.00  0.00    +0.000 A 
ATOM     27  N   UNL     1       1.556  17.402  20.100  0.00  0.00    +0.000 NA
ATOM     28  C   UNL     1       0.466  17.471  19.370  0.00  0.00    +0.000 A 
ATOM     29  S   UNL     1      -0.350  15.994  19.080  0.00  0.00    +0.000 S 
ENDBRANCH   9  25
TORSDOF 3
ENDMDL
MODEL 3
REMARK VINA RESULT:      -7.9      4.103      9.110
REMARK  Name = 
REMARK  3 active torsions:
REMARK  status: ('A' for Active; 'I' for Inactive)
REMARK    1  A    between atoms: C_3  and  C_4
REMARK    2  A    between atoms: N_12  and  C_13
REMARK    3  A    between atoms: C_21  and  N_22
REMARK                            x       y       z     vdW  Elec       q    Type
REMARK                         _______ _______ _______ _____ _____    ______ ____
ROOT
ATOM      1  C   UNL     1       1.098   8.951  20.526  0.00  0.00    +0.000 A 
ATOM      2  C   UNL     1       0.395   8.380  21.591  0.00  0.00    +0.000 A 
ATOM      3  C   UNL     1      -0.340   9.173  22.480  0.00  0.00    +0.000 A 
ATOM      4  C   UNL     1      -0.431  10.547  22.329  0.00  0.00    +0.000 A 
ATOM      5  N   UNL     1      -1.152  11.235  23.217  0.00  0.00    +0.000 NA
ATOM      6  C   UNL     1      -1.227  12.554  23.031  0.00  0.00    +0.000 A 
ATOM      7  N   UNL     1      -0.681  13.241  22.027  0.00  0.00    +0.000 NA
ATOM      8  C   UNL     1       0.026  12.541  21.117  0.00  0.00    +0.000 A 
ATOM      9  N   UNL     1       0.582  13.219  19.998  0.00  0.00    +0.000 N 
ATOM     10  C   UNL     1       0.227  11.151  21.252  0.00  0.00    +0.000 A 
ATOM     11  C   UNL     1       1.015  10.346  20.384  0.00  0.00    +0.000 A 
ATOM     12  H   UNL     1       0.461  12.667  19.156  0.00  0.00    +0.000 HD
ENDROOT
BRANCH   1  15
ATOM     13  C   UNL     1       3.140   7.863  17.524  0.00  0.00    +0.000 A 
ATOM     14  C   UNL     1       2.367   8.648  18.374  0.00  0.00    +0.000 A 
ATOM     15  C   UNL     1       1.848   8.117  19.562  0.00  0.00    +0.000 A 
ATOM     16  C   UNL     1       2.105   6.755  19.832  0.00  0.00    +0.000 A 
ATOM     17  C   UNL     1       2.869   5.928  18.994  0.00  0.00    +0.000 A 
ATOM     18  C   UNL     1       3.390   6.526  17.840  0.00  0.00    +0.000 A 
BRANCH  17  19
ATOM     19  N   UNL     1       3.133   4.613  19.312  0.00  0.00    +0.000 N 
ATOM     20  C   UNL     1       4.118   3.785  18.598  0.00  0.00    +0.000 C 
ATOM     21  C   UNL     1       3.510   2.395  18.334  0.00  0.00    +0.000 C 
ATOM     22  O   UNL     1       3.026   1.775  19.538  0.00  0.00    +0.000 OA
ATOM     23  C   UNL     1       2.033   2.608  20.166  0.00  0.00    +0.000 C 
ATOM     24  C   UNL     1       2.619   3.977  20.535  0.00  0.00    +0.000 C 
ENDBRANCH  17  19
ENDBRANCH   1  15
BRANCH   9  25
ATOM     25  C   UNL     1       0.540  14.565  19.801  0.00  0.00    +0.000 A 
ATOM     26  C   UNL     1      -0.391  15.370  19.160  0.00  0.00    +0.000 A 
ATOM     27  N   UNL     1      -0.119  16.727  19.130  0.00  0.00    +0.000 NA
ATOM     28  C   UNL     1       1.012  16.947  19.760  0.00  0.00    +0.000 A 
ATOM     29  S   UNL     1       1.789  15.575  20.427  0.00  0.00    +0.000 S 
ENDBRANCH   9  25
TORSDOF 3
ENDMDL
MODEL 4
REMARK VINA RESULT:      -7.9      4.149      9.052
REMARK  Name = 
REMARK  3 active torsions:
REMARK  status: ('A' for Active; 'I' for Inactive)
REMARK    1  A    between atoms: C_3  and  C_4
REMARK    2  A    between atoms: N_12  and  C_13
REMARK    3  A    between atoms: C_21  and  N_22
REMARK                            x       y       z     vdW  Elec       q    Type
REMARK                         _______ _______ _______ _____ _____    ______ ____
ROOT
ATOM      1  C   UNL     1       0.947   9.104  20.672  0.00  0.00    +0.000 A 
ATOM      2  C   UNL     1       0.236   8.621  21.774  0.00  0.00    +0.000 A 
ATOM      3  C   UNL     1      -0.448   9.490  22.631  0.00  0.00    +0.000 A 
ATOM      4  C   UNL     1      -0.478  10.858  22.412  0.00  0.00    +0.000 A 
ATOM      5  N   UNL     1      -1.153  11.623  23.273  0.00  0.00    +0.000 NA
ATOM      6  C   UNL     1      -1.170  12.933  23.022  0.00  0.00    +0.000 A 
ATOM      7  N   UNL     1      -0.609  13.542  21.978  0.00  0.00    +0.000 NA
ATOM      8  C   UNL     1       0.051  12.765  21.095  0.00  0.00    +0.000 A 
ATOM      9  N   UNL     1       0.620  13.360  19.936  0.00  0.00    +0.000 N 
ATOM     10  C   UNL     1       0.189  11.376  21.298  0.00  0.00    +0.000 A 
ATOM     11  C   UNL     1       0.926  10.492  20.461  0.00  0.00    +0.000 A 
ATOM     12  H   UNL     1       0.461  12.773  19.125  0.00  0.00    +0.000 HD
ENDROOT
BRANCH   1  15
ATOM     13  C   UNL     1       2.950   7.782  17.738  0.00  0.00    +0.000 A 
ATOM     14  C   UNL     1       2.230   8.648  18.556  0.00  0.00    +0.000 A 
ATOM     15  C   UNL     1       1.643   8.189  19.741  0.00  0.00    +0.000 A 
ATOM     16  C   UNL     1       1.777   6.816  20.044  0.00  0.00    +0.000 A 
ATOM     17  C   UNL     1       2.484   5.910  19.240  0.00  0.00    +0.000 A 
ATOM     18  C   UNL     1       3.078   6.436  18.086  0.00  0.00    +0.000 A 
BRANCH  17  19
ATOM     19  N   UNL     1       2.628   4.584  19.589  0.00  0.00    +0.000 N 
ATOM     20  C   UNL     1       1.729   3.884  20.521  0.00  0.00    +0.000 C 
ATOM     21  C   UNL     1       2.572   3.037  21.492  0.00  0.00    +0.000 C 
ATOM     22  O   UNL     1       3.464   2.145  20.803  0.00  0.00    +0.000 OA
ATOM     23  C   UNL     1       4.348   2.888  19.943  0.00  0.00    +0.000 C 
ATOM     24  C   UNL     1       3.557   3.680  18.893  0.00  0.00    +0.000 C 
ENDBRANCH  17  19
ENDBRANCH   1  15
BRANCH   9  25
ATOM     25  C   UNL     1       0.637  14.695  19.671  0.00  0.00    +0.000 A 
ATOM     26  C   UNL     1      -0.278  15.515  19.027  0.00  0.00    +0.000 A 
ATOM     27  N   UNL     1       0.059  16.852  18.917  0.00  0.00    +0.000 NA
ATOM     28  C   UNL     1       1.225  17.044  19.490  0.00  0.00    +0.000 A 
ATOM     29  S   UNL     1       1.961  15.668  20.195  0.00  0.00    +0.000 S 
ENDBRANCH   9  25
TORSDOF 3
ENDMDL
MODEL 5
REMARK VINA RESULT:      -7.9      2.064      2.895
REMARK  Name = 
REMARK  3 active torsions:
REMARK  status: ('A' for Active; 'I' for Inactive)
REMARK    1  A    between atoms: C_3  and  C_4
REMARK    2  A    between atoms: N_12  and  C_13
REMARK    3  A    between atoms: C_21  and  N_22
REMARK                            x       y       z     vdW  Elec       q    Type
REMARK                         _______ _______ _______ _____ _____    ______ ____
ROOT
ATOM      1  C   UNL     1       1.666   6.379  20.176  0.00  0.00    +0.000 A 
ATOM      2  C   UNL     1       1.115   5.266  20.819  0.00  0.00    +0.000 A 
ATOM      3  C   UNL     1       1.476   3.966  20.450  0.00  0.00    +0.000 A 
ATOM      4  C   UNL     1       2.413   3.721  19.459  0.00  0.00    +0.000 A 
ATOM      5  N   UNL     1       2.706   2.453  19.164  0.00  0.00    +0.000 NA
ATOM      6  C   UNL     1       3.622   2.257  18.213  0.00  0.00    +0.000 A 
ATOM      7  N   UNL     1       4.294   3.205  17.560  0.00  0.00    +0.000 NA
ATOM      8  C   UNL     1       4.014   4.485  17.877  0.00  0.00    +0.000 A 
ATOM      9  N   UNL     1       4.743   5.531  17.248  0.00  0.00    +0.000 N 
ATOM     10  C   UNL     1       3.015   4.809  18.819  0.00  0.00    +0.000 A 
ATOM     11  C   UNL     1       2.605   6.127  19.163  0.00  0.00    +0.000 A 
ATOM     12  H   UNL     1       4.982   6.249  17.922  0.00  0.00    +0.000 HD
ENDROOT
BRANCH   1  15
ATOM     13  C   UNL     1       0.736   9.390  22.282  0.00  0.00    +0.000 A 
ATOM     14  C   UNL     1       0.979   8.073  21.906  0.00  0.00    +0.000 A 
ATOM     15  C   UNL     1       1.317   7.757  20.584  0.00  0.00    +0.000 A 
ATOM     16  C   UNL     1       1.357   8.818  19.652  0.00  0.00    +0.000 A 
ATOM     17  C   UNL     1       1.106  10.156  19.989  0.00  0.00    +0.000 A 
ATOM     18  C   UNL     1       0.809  10.413  21.333  0.00  0.00    +0.000 A 
BRANCH  17  19
ATOM     19  N   UNL     1       1.194  11.171  19.060  0.00  0.00    +0.000 N 
ATOM     20  C   UNL     1       2.323  11.327  18.129  0.00  0.00    +0.000 C 
ATOM     21  C   UNL     1       2.736  12.810  18.083  0.00  0.00    +0.000 C 
ATOM     22  O   UNL     1       1.630  13.674  17.769  0.00  0.00    +0.000 OA
ATOM     23  C   UNL     1       0.578  13.511  18.739  0.00  0.00    +0.000 C 
ATOM     24  C   UNL     1       0.066  12.065  18.757  0.00  0.00    +0.000 C 
ENDBRANCH  17  19
ENDBRANCH   1  15
BRANCH   9  25
ATOM     25  C   UNL     1       5.663   5.358  16.259  0.00  0.00    +0.000 A 
ATOM     26  C   UNL     1       7.020   5.638  16.209  0.00  0.00    +0.000 A 
ATOM     27  N   UNL     1       7.671   5.341  15.024  0.00  0.00    +0.000 NA
ATOM     28  C   UNL     1       6.804   4.825  14.183  0.00  0.00    +0.000 A 
ATOM     29  S   UNL     1       5.200   4.651  14.756  0.00  0.00    +0.000 S 
ENDBRANCH   9  25
TORSDOF 3
ENDMDL
MODEL 6
REMARK VINA RESULT:      -7.8      0.729      1.007
REMARK  Name = 
REMARK  3 active torsions:
REMARK  status: ('A' for Active; 'I' for Inactive)
REMARK    1  A    between atoms: C_3  and  C_4
REMARK    2  A    between atoms: N_12  and  C_13
REMARK    3  A    between atoms: C_21  and  N_22
REMARK                            x       y       z     vdW  Elec       q    Type
REMARK                         _______ _______ _______ _____ _____    ______ ____
ROOT
ATOM      1  C   UNL     1       1.830   7.858  19.547  0.00  0.00    +0.000 A 
ATOM      2  C   UNL     1       1.388   7.069  20.614  0.00  0.00    +0.000 A 
ATOM      3  C   UNL     1       1.826   5.750  20.767  0.00  0.00    +0.000 A 
ATOM      4  C   UNL     1       2.737   5.176  19.895  0.00  0.00    +0.000 A 
ATOM      5  N   UNL     1       3.108   3.912  20.107  0.00  0.00    +0.000 NA
ATOM      6  C   UNL     1       3.996   3.399  19.253  0.00  0.00    +0.000 A 
ATOM      7  N   UNL     1       4.571   4.039  18.235  0.00  0.00    +0.000 NA
ATOM      8  C   UNL     1       4.213   5.324  18.036  0.00  0.00    +0.000 A 
ATOM      9  N   UNL     1       4.838   6.066  16.998  0.00  0.00    +0.000 N 
ATOM     10  C   UNL     1       3.233   5.947  18.838  0.00  0.00    +0.000 A 
ATOM     11  C   UNL     1       2.743   7.270  18.657  0.00  0.00    +0.000 A 
ATOM     12  H   UNL     1       5.052   7.005  17.315  0.00  0.00    +0.000 HD
ENDROOT
BRANCH   1  15
ATOM     13  C   UNL     1       1.418  11.381  18.210  0.00  0.00    +0.000 A 
ATOM     14  C   UNL     1       1.901  10.087  18.381  0.00  0.00    +0.000 A 
ATOM     15  C   UNL     1       1.400   9.266  19.398  0.00  0.00    +0.000 A 
ATOM     16  C   UNL     1       0.426   9.818  20.260  0.00  0.00    +0.000 A 
ATOM     17  C   UNL     1      -0.077  11.121  20.128  0.00  0.00    +0.000 A 
ATOM     18  C   UNL     1       0.438  11.881  19.070  0.00  0.00    +0.000 A 
BRANCH  17  19
ATOM     19  N   UNL     1      -1.057  11.612  20.963  0.00  0.00    +0.000 N 
ATOM     20  C   UNL     1      -2.286  12.264  20.482  0.00  0.00    +0.000 C 
ATOM     21  C   UNL     1      -2.550  13.524  21.327  0.00  0.00    +0.000 C 
ATOM     22  O   UNL     1      -2.585  13.238  22.736  0.00  0.00    +0.000 OA
ATOM     23  C   UNL     1      -1.342  12.646  23.157  0.00  0.00    +0.000 C 
ATOM     24  C   UNL     1      -1.077  11.332  22.408  0.00  0.00    +0.000 C 
ENDBRANCH  17  19
ENDBRANCH   1  15
BRANCH   9  25
ATOM     25  C   UNL     1       5.727   5.558  16.101  0.00  0.00    +0.000 A 
ATOM     26  C   UNL     1       7.112   5.608  16.052  0.00  0.00    +0.000 A 
ATOM     27  N   UNL     1       7.717   4.983  14.975  0.00  0.00    +0.000 NA
ATOM     28  C   UNL     1       6.786   4.452  14.217  0.00  0.00    +0.000 A 
ATOM     29  S   UNL     1       5.170   4.647  14.746  0.00  0.00    +0.000 S 
ENDBRANCH   9  25
TORSDOF 3
ENDMDL
MODEL 7
REMARK VINA RESULT:      -7.8      4.180      9.069
REMARK  Name = 
REMARK  3 active torsions:
REMARK  status: ('A' for Active; 'I' for Inactive)
REMARK    1  A    between atoms: C_3  and  C_4
REMARK    2  A    between atoms: N_12  and  C_13
REMARK    3  A    between atoms: C_21  and  N_22
REMARK                            x       y       z     vdW  Elec       q    Type
REMARK                         _______ _______ _______ _____ _____    ______ ____
ROOT
ATOM      1  C   UNL     1       1.106   8.835  20.446  0.00  0.00    +0.000 A 
ATOM      2  C   UNL     1       0.325   8.280  21.464  0.00  0.00    +0.000 A 
ATOM      3  C   UNL     1      -0.384   9.093  22.355  0.00  0.00    +0.000 A 
ATOM      4  C   UNL     1      -0.370  10.474  22.254  0.00  0.00    +0.000 A 
ATOM      5  N   UNL     1      -1.073  11.182  23.141  0.00  0.00    +0.000 NA
ATOM      6  C   UNL     1      -1.045  12.508  23.003  0.00  0.00    +0.000 A 
ATOM      7  N   UNL     1      -0.415  13.188  22.045  0.00  0.00    +0.000 NA
ATOM      8  C   UNL     1       0.275  12.470  21.135  0.00  0.00    +0.000 A 
ATOM      9  N   UNL     1       0.919  13.145  20.062  0.00  0.00    +0.000 N 
ATOM     10  C   UNL     1       0.369  11.065  21.224  0.00  0.00    +0.000 A 
ATOM     11  C   UNL     1       1.129  10.236  20.354  0.00  0.00    +0.000 A 
ATOM     12  H   UNL     1       0.791  12.633  19.196  0.00  0.00    +0.000 HD
ENDROOT
BRANCH   1  15
ATOM     13  C   UNL     1       3.263   7.711  17.539  0.00  0.00    +0.000 A 
ATOM     14  C   UNL     1       2.521   8.526  18.388  0.00  0.00    +0.000 A 
ATOM     15  C   UNL     1       1.830   7.982  19.478  0.00  0.00    +0.000 A 
ATOM     16  C   UNL     1       1.884   6.581  19.648  0.00  0.00    +0.000 A 
ATOM     17  C   UNL     1       2.610   5.725  18.807  0.00  0.00    +0.000 A 
ATOM     18  C   UNL     1       3.309   6.332  17.756  0.00  0.00    +0.000 A 
BRANCH  17  19
ATOM     19  N   UNL     1       2.673   4.366  19.029  0.00  0.00    +0.000 N 
ATOM     20  C   UNL     1       3.249   3.764  20.242  0.00  0.00    +0.000 C 
ATOM     21  C   UNL     1       4.140   2.574  19.839  0.00  0.00    +0.000 C 
ATOM     22  O   UNL     1       3.438   1.621  19.022  0.00  0.00    +0.000 OA
ATOM     23  C   UNL     1       2.938   2.255  17.830  0.00  0.00    +0.000 C 
ATOM     24  C   UNL     1       1.969   3.393  18.179  0.00  0.00    +0.000 C 
ENDBRANCH  17  19
ENDBRANCH   1  15
BRANCH   9  25
ATOM     25  C   UNL     1       0.981  14.496  19.914  0.00  0.00    +0.000 A 
ATOM     26  C   UNL     1       1.882  15.433  20.399  0.00  0.00    +0.000 A 
ATOM     27  N   UNL     1       1.645  16.754  20.062  0.00  0.00    +0.000 NA
ATOM     28  C   UNL     1       0.569  16.812  19.311  0.00  0.00    +0.000 A 
ATOM     29  S   UNL     1      -0.193  15.320  18.956  0.00  0.00    +0.000 S 
ENDBRANCH   9  25
TORSDOF 3
ENDMDL
MODEL 8
REMARK VINA RESULT:      -7.5      0.985      1.061
REMARK  Name = 
REMARK  3 active torsions:
REMARK  status: ('A' for Active; 'I' for Inactive)
REMARK    1  A    between atoms: C_3  and  C_4
REMARK    2  A    between atoms: N_12  and  C_13
REMARK    3  A    between atoms: C_21  and  N_22
REMARK                            x       y       z     vdW  Elec       q    Type
REMARK                         _______ _______ _______ _____ _____    ______ ____
ROOT
ATOM      1  C   UNL     1       1.827   7.869  19.506  0.00  0.00    +0.000 A 
ATOM      2  C   UNL     1       1.421   7.136  20.626  0.00  0.00    +0.000 A 
ATOM      3  C   UNL     1       1.802   5.800  20.790  0.00  0.00    +0.000 A 
ATOM      4  C   UNL     1       2.618   5.154  19.876  0.00  0.00    +0.000 A 
ATOM      5  N   UNL     1       2.940   3.879  20.103  0.00  0.00    +0.000 NA
ATOM      6  C   UNL     1       3.738   3.296  19.207  0.00  0.00    +0.000 A 
ATOM      7  N   UNL     1       4.270   3.875  18.131  0.00  0.00    +0.000 NA
ATOM      8  C   UNL     1       3.965   5.171  17.916  0.00  0.00    +0.000 A 
ATOM      9  N   UNL     1       4.551   5.849  16.814  0.00  0.00    +0.000 N 
ATOM     10  C   UNL     1       3.077   5.867  18.763  0.00  0.00    +0.000 A 
ATOM     11  C   UNL     1       2.643   7.208  18.575  0.00  0.00    +0.000 A 
ATOM     12  H   UNL     1       4.834   6.784  17.084  0.00  0.00    +0.000 HD
ENDROOT
BRANCH   1  15
ATOM     13  C   UNL     1       1.441  11.351  18.058  0.00  0.00    +0.000 A 
ATOM     14  C   UNL     1       1.870  10.038  18.231  0.00  0.00    +0.000 A 
ATOM     15  C   UNL     1       1.458   9.293  19.342  0.00  0.00    +0.000 A 
ATOM     16  C   UNL     1       0.633   9.939  20.290  0.00  0.00    +0.000 A 
ATOM     17  C   UNL     1       0.191  11.264  20.157  0.00  0.00    +0.000 A 
ATOM     18  C   UNL     1       0.607  11.946  19.007  0.00  0.00    +0.000 A 
BRANCH  17  19
ATOM     19  N   UNL     1      -0.647  11.848  21.082  0.00  0.00    +0.000 N 
ATOM     20  C   UNL     1      -0.554  11.609  22.532  0.00  0.00    +0.000 C 
ATOM     21  C   UNL     1      -1.969  11.392  23.098  0.00  0.00    +0.000 C 
ATOM     22  O   UNL     1      -2.860  12.471  22.766  0.00  0.00    +0.000 OA
ATOM     23  C   UNL     1      -2.947  12.627  21.338  0.00  0.00    +0.000 C 
ATOM     24  C   UNL     1      -1.571  12.939  20.734  0.00  0.00    +0.000 C 
ENDBRANCH  17  19
ENDBRANCH   1  15
BRANCH   9  25
ATOM     25  C   UNL     1       5.347   5.270  15.874  0.00  0.00    +0.000 A 
ATOM     26  C   UNL     1       5.043   4.621  14.686  0.00  0.00    +0.000 A 
ATOM     27  N   UNL     1       6.112   4.131  13.956  0.00  0.00    +0.000 NA
ATOM     28  C   UNL     1       7.225   4.422  14.589  0.00  0.00    +0.000 A 
ATOM     29  S   UNL     1       7.062   5.296  16.052  0.00  0.00    +0.000 S 
ENDBRANCH   9  25
TORSDOF 3
ENDMDL
MODEL 9
REMARK VINA RESULT:      -7.5      4.191      8.860
REMARK  Name = 
REMARK  3 active torsions:
REMARK  status: ('A' for Active; 'I' for Inactive)
REMARK    1  A    between atoms: C_3  and  C_4
REMARK    2  A    between atoms: N_12  and  C_13
REMARK    3  A    between atoms: C_21  and  N_22
REMARK                            x       y       z     vdW  Elec       q    Type
REMARK                         _______ _______ _______ _____ _____    ______ ____
ROOT
ATOM      1  C   UNL     1       1.532   8.009  20.447  0.00  0.00    +0.000 A 
ATOM      2  C   UNL     1       1.768   8.571  21.705  0.00  0.00    +0.000 A 
ATOM      3  C   UNL     1       1.098   9.729  22.116  0.00  0.00    +0.000 A 
ATOM      4  C   UNL     1       0.154  10.350  21.316  0.00  0.00    +0.000 A 
ATOM      5  N   UNL     1      -0.443  11.451  21.778  0.00  0.00    +0.000 NA
ATOM      6  C   UNL     1      -1.356  12.013  20.983  0.00  0.00    +0.000 A 
ATOM      7  N   UNL     1      -1.750  11.561  19.793  0.00  0.00    +0.000 NA
ATOM      8  C   UNL     1      -1.163  10.436  19.338  0.00  0.00    +0.000 A 
ATOM      9  N   UNL     1      -1.588   9.883  18.099  0.00  0.00    +0.000 N 
ATOM     10  C   UNL     1      -0.138   9.795  20.066  0.00  0.00    +0.000 A 
ATOM     11  C   UNL     1       0.584   8.649  19.633  0.00  0.00    +0.000 A 
ATOM     12  H   UNL     1      -1.653   8.874  18.167  0.00  0.00    +0.000 HD
ENDROOT
BRANCH   1  15
ATOM     13  C   UNL     1       2.444   4.350  20.055  0.00  0.00    +0.000 A 
ATOM     14  C   UNL     1       1.850   5.514  20.535  0.00  0.00    +0.000 A 
ATOM     15  C   UNL     1       2.209   6.765  20.019  0.00  0.00    +0.000 A 
ATOM     16  C   UNL     1       3.220   6.796  19.032  0.00  0.00    +0.000 A 
ATOM     17  C   UNL     1       3.851   5.647  18.532  0.00  0.00    +0.000 A 
ATOM     18  C   UNL     1       3.424   4.423  19.062  0.00  0.00    +0.000 A 
BRANCH  17  19
ATOM     19  N   UNL     1       4.805   5.713  17.539  0.00  0.00    +0.000 N 
ATOM     20  C   UNL     1       5.090   4.610  16.609  0.00  0.00    +0.000 C 
ATOM     21  C   UNL     1       6.615   4.451  16.469  0.00  0.00    +0.000 C 
ATOM     22  O   UNL     1       7.258   5.680  16.091  0.00  0.00    +0.000 OA
ATOM     23  C   UNL     1       6.982   6.708  17.061  0.00  0.00    +0.000 C 
ATOM     24  C   UNL     1       5.474   6.970  17.170  0.00  0.00    +0.000 C 
ENDBRANCH  17  19
ENDBRANCH   1  15
BRANCH   9  25
ATOM     25  C   UNL     1      -2.497  10.451  17.261  0.00  0.00    +0.000 A 
ATOM     26  C   UNL     1      -2.408  10.830  15.930  0.00  0.00    +0.000 A 
ATOM     27  N   UNL     1      -3.539  11.399  15.371  0.00  0.00    +0.000 NA
ATOM     28  C   UNL     1      -4.487  11.437  16.279  0.00  0.00    +0.000 A 
ATOM     29  S   UNL     1      -4.095  10.791  17.815  0.00  0.00    +0.000 S 
ENDBRANCH   9  25
TORSDOF 3
ENDMDL
