MODEL 1
REMARK VINA RESULT:      -8.0      0.000      0.000
REMARK  Name = 
REMARK  7 active torsions:
REMARK  status: ('A' for Active; 'I' for Inactive)
REMARK    1  A    between atoms: C_1  and  C_2
REMARK    2  A    between atoms: C_2  and  C_3
REMARK    3  A    between atoms: C_3  and  S_4
REMARK    4  A    between atoms: S_4  and  N_7
REMARK    5  A    between atoms: N_7  and  C_8
REMARK    6  A    between atoms: C_13  and  C_14
REMARK    7  A    between atoms: N_16  and  C_17
REMARK                            x       y       z     vdW  Elec       q    Type
REMARK                         _______ _______ _______ _____ _____    ______ ____
ROOT
ATOM      1  C   UNL     1       4.819   4.041  18.334  0.00  0.00    +0.000 A 
ATOM      2  C   UNL     1       4.149   3.184  17.467  0.00  0.00    +0.000 A 
ATOM      3  C   UNL     1       2.756   3.228  17.406  0.00  0.00    +0.000 A 
ATOM      4  C   UNL     1       2.046   4.142  18.191  0.00  0.00    +0.000 A 
ATOM      5  F   UNL     1       0.705   4.119  18.111  0.00  0.00    +0.000 F 
ATOM      6  C   UNL     1       2.699   5.036  19.042  0.00  0.00    +0.000 A 
ATOM      7  C   UNL     1       4.100   4.974  19.098  0.00  0.00    +0.000 A 
ATOM      8  F   UNL     1       4.807   5.774  19.912  0.00  0.00    +0.000 F 
ENDROOT
BRANCH   6   9
ATOM      9  C   UNL     1       1.971   6.033  19.881  0.00  0.00    +0.000 C 
ATOM     10  O   UNL     1       1.278   5.621  20.803  0.00  0.00    +0.000 OA
ATOM     11  N   UNL     1       2.088   7.372  19.534  0.00  0.00    +0.000 N 
ATOM     12  H   UNL     1       2.587   7.603  18.680  0.00  0.00    +0.000 HD
BRANCH  11  13
ATOM     13  C   UNL     1       1.478   8.464  20.206  0.00  0.00    +0.000 A 
ATOM     14  C   UNL     1       0.832   9.514  19.558  0.00  0.00    +0.000 A 
ATOM     15  C   UNL     1       0.296  10.569  20.296  0.00  0.00    +0.000 A 
ATOM     16  C   UNL     1       0.416  10.538  21.674  0.00  0.00    +0.000 A 
ATOM     17  N   UNL     1       1.003   9.528  22.348  0.00  0.00    +0.000 NA
ATOM     18  C   UNL     1       1.511   8.516  21.598  0.00  0.00    +0.000 A 
ENDBRANCH  11  13
ENDBRANCH   6   9
BRANCH   1  19
ATOM     19  N   UNL     1       6.257   4.006  18.399  0.00  0.00    +0.000 N 
ATOM     20  H   UNL     1       6.601   4.350  19.304  0.00  0.00    +0.000 HD
BRANCH  19  21
ATOM     21  S   UNL     1       7.069   4.940  17.225  0.00  0.00    +0.000 S 
ATOM     22  O   UNL     1       6.035   5.411  16.333  0.00  0.00    +0.000 OA
ATOM     23  O   UNL     1       8.228   4.220  16.749  0.00  0.00    +0.000 OA
BRANCH  21  24
ATOM     24  C   UNL     1       7.624   6.327  18.221  0.00  0.00    +0.000 C 
BRANCH  24  26
ATOM     25  C   UNL     1       8.302   8.761  18.092  0.00  0.00    +0.000 C 
ATOM     26  C   UNL     1       7.528   7.631  17.433  0.00  0.00    +0.000 C 
ENDBRANCH  24  26
ENDBRANCH  21  24
ENDBRANCH  19  21
ENDBRANCH   1  19
TORSDOF 6
ENDMDL
MODEL 2
REMARK VINA RESULT:      -7.8      1.039      1.039
REMARK  Name = 
REMARK  7 active torsions:
REMARK  status: ('A' for Active; 'I' for Inactive)
REMARK    1  A    between atoms: C_1  and  C_2
REMARK    2  A    between atoms: C_2  and  C_3
REMARK    3  A    between atoms: C_3  and  S_4
REMARK    4  A    between atoms: S_4  and  N_7
REMARK    5  A    between atoms: N_7  and  C_8
REMARK    6  A    between atoms: C_13  and  C_14
REMARK    7  A    between atoms: N_16  and  C_17
REMARK                            x       y       z     vdW  Elec       q    Type
REMARK                         _______ _______ _______ _____ _____    ______ ____
ROOT
ATOM      1  C   UNL     1       4.898   4.337  18.454  0.00  0.00    +0.000 A 
ATOM      2  C   UNL     1       4.196   3.369  17.741  0.00  0.00    +0.000 A 
ATOM      3  C   UNL     1       2.863   3.605  17.405  0.00  0.00    +0.000 A 
ATOM      4  C   UNL     1       2.249   4.809  17.759  0.00  0.00    +0.000 A 
ATOM      5  F   UNL     1       0.956   4.967  17.433  0.00  0.00    +0.000 F 
ATOM      6  C   UNL     1       2.944   5.809  18.444  0.00  0.00    +0.000 A 
ATOM      7  C   UNL     1       4.282   5.555  18.782  0.00  0.00    +0.000 A 
ATOM      8  F   UNL     1       5.015   6.447  19.467  0.00  0.00    +0.000 F 
ENDROOT
BRANCH   6   9
ATOM      9  C   UNL     1       2.321   7.112  18.822  0.00  0.00    +0.000 C 
ATOM     10  O   UNL     1       2.263   7.996  17.976  0.00  0.00    +0.000 OA
ATOM     11  N   UNL     1       1.883   7.259  20.131  0.00  0.00    +0.000 N 
ATOM     12  H   UNL     1       2.086   6.512  20.790  0.00  0.00    +0.000 HD
BRANCH  11  13
ATOM     13  C   UNL     1       1.265   8.413  20.679  0.00  0.00    +0.000 A 
ATOM     14  C   UNL     1       0.433   9.268  19.958  0.00  0.00    +0.000 A 
ATOM     15  C   UNL     1      -0.099  10.404  20.567  0.00  0.00    +0.000 A 
ATOM     16  C   UNL     1       0.212  10.651  21.893  0.00  0.00    +0.000 A 
ATOM     17  N   UNL     1       0.985   9.836  22.640  0.00  0.00    +0.000 NA
ATOM     18  C   UNL     1       1.484   8.738  22.017  0.00  0.00    +0.000 A 
ENDBRANCH  11  13
ENDBRANCH   6   9
BRANCH   1  19
ATOM     19  N   UNL     1       6.275   4.105  18.801  0.00  0.00    +0.000 N 
ATOM     20  H   UNL     1       6.503   4.502  19.721  0.00  0.00    +0.000 HD
BRANCH  19  21
ATOM     21  S   UNL     1       7.425   4.766  17.729  0.00  0.00    +0.000 S 
ATOM     22  O   UNL     1       6.702   5.017  16.504  0.00  0.00    +0.000 OA
ATOM     23  O   UNL     1       8.632   3.973  17.762  0.00  0.00    +0.000 OA
BRANCH  21  24
ATOM     24  C   UNL     1       7.754   6.345  18.518  0.00  0.00    +0.000 C 
BRANCH  24  26
ATOM     25  C   UNL     1       8.215   8.783  18.021  0.00  0.00    +0.000 C 
ATOM     26  C   UNL     1       7.585   7.492  17.524  0.00  0.00    +0.000 C 
ENDBRANCH  24  26
ENDBRANCH  21  24
ENDBRANCH  19  21
ENDBRANCH   1  19
TORSDOF 6
ENDMDL
MODEL 3
REMARK VINA RESULT:      -7.7      1.602      2.229
REMARK  Name = 
REMARK  7 active torsions:
REMARK  status: ('A' for Active; 'I' for Inactive)
REMARK    1  A    between atoms: C_1  and  C_2
REMARK    2  A    between atoms: C_2  and  C_3
REMARK    3  A    between atoms: C_3  and  S_4
REMARK    4  A    between atoms: S_4  and  N_7
REMARK    5  A    between atoms: N_7  and  C_8
REMARK    6  A    between atoms: C_13  and  C_14
REMARK    7  A    between atoms: N_16  and  C_17
REMARK                            x       y       z     vdW  Elec       q    Type
REMARK                         _______ _______ _______ _____ _____    ______ ____
ROOT
ATOM      1  C   UNL     1       4.789   3.873  18.306  0.00  0.00    +0.000 A 
ATOM      2  C   UNL     1       4.093   3.012  17.463  0.00  0.00    +0.000 A 
ATOM      3  C   UNL     1       2.699   3.063  17.438  0.00  0.00    +0.000 A 
ATOM      4  C   UNL     1       2.013   3.986  18.232  0.00  0.00    +0.000 A 
ATOM      5  F   UNL     1       0.671   3.969  18.187  0.00  0.00    +0.000 F 
ATOM      6  C   UNL     1       2.692   4.884  19.060  0.00  0.00    +0.000 A 
ATOM      7  C   UNL     1       4.094   4.815  19.081  0.00  0.00    +0.000 A 
ATOM      8  F   UNL     1       4.824   5.618  19.870  0.00  0.00    +0.000 F 
ENDROOT
BRANCH   6   9
ATOM      9  C   UNL     1       1.990   5.891  19.908  0.00  0.00    +0.000 C 
ATOM     10  O   UNL     1       1.304   5.489  20.840  0.00  0.00    +0.000 OA
ATOM     11  N   UNL     1       2.121   7.228  19.560  0.00  0.00    +0.000 N 
ATOM     12  H   UNL     1       2.611   7.452  18.698  0.00  0.00    +0.000 HD
BRANCH  11  13
ATOM     13  C   UNL     1       1.536   8.329  20.240  0.00  0.00    +0.000 A 
ATOM     14  C   UNL     1       1.417   8.414  21.625  0.00  0.00    +0.000 A 
ATOM     15  C   UNL     1       0.790   9.515  22.208  0.00  0.00    +0.000 A 
ATOM     16  C   UNL     1       0.304  10.513  21.380  0.00  0.00    +0.000 A 
ATOM     17  N   UNL     1       0.426  10.491  20.037  0.00  0.00    +0.000 NA
ATOM     18  C   UNL     1       1.044   9.405  19.504  0.00  0.00    +0.000 A 
ENDBRANCH  11  13
ENDBRANCH   6   9
BRANCH   1  19
ATOM     19  N   UNL     1       6.227   3.830  18.335  0.00  0.00    +0.000 N 
ATOM     20  H   UNL     1       6.591   4.057  19.269  0.00  0.00    +0.000 HD
BRANCH  19  21
ATOM     21  S   UNL     1       7.015   4.907  17.273  0.00  0.00    +0.000 S 
ATOM     22  O   UNL     1       8.247   4.247  16.909  0.00  0.00    +0.000 OA
ATOM     23  O   UNL     1       6.993   6.241  17.829  0.00  0.00    +0.000 OA
BRANCH  21  24
ATOM     24  C   UNL     1       5.912   4.856  15.858  0.00  0.00    +0.000 C 
BRANCH  24  26
ATOM     25  C   UNL     1       5.642   4.018  13.486  0.00  0.00    +0.000 C 
ATOM     26  C   UNL     1       6.533   4.054  14.716  0.00  0.00    +0.000 C 
ENDBRANCH  24  26
ENDBRANCH  21  24
ENDBRANCH  19  21
ENDBRANCH   1  19
TORSDOF 6
ENDMDL
MODEL 4
REMARK VINA RESULT:      -7.6      1.876      2.561
REMARK  Name = 
REMARK  7 active torsions:
REMARK  status: ('A' for Active; 'I' for Inactive)
REMARK    1  A    between atoms: C_1  and  C_2
REMARK    2  A    between atoms: C_2  and  C_3
REMARK    3  A    between atoms: C_3  and  S_4
REMARK    4  A    between atoms: S_4  and  N_7
REMARK    5  A    between atoms: N_7  and  C_8
REMARK    6  A    between atoms: C_13  and  C_14
REMARK    7  A    between atoms: N_16  and  C_17
REMARK                            x       y       z     vdW  Elec       q    Type
REMARK                         _______ _______ _______ _____ _____    ______ ____
ROOT
ATOM      1  C   UNL     1       4.770   4.226  17.526  0.00  0.00    +0.000 A 
ATOM      2  C   UNL     1       3.976   3.240  16.949  0.00  0.00    +0.000 A 
ATOM      3  C   UNL     1       2.640   3.128  17.334  0.00  0.00    +0.000 A 
ATOM      4  C   UNL     1       2.101   4.014  18.271  0.00  0.00    +0.000 A 
ATOM      5  F   UNL     1       0.817   3.840  18.625  0.00  0.00    +0.000 F 
ATOM      6  C   UNL     1       2.869   5.034  18.838  0.00  0.00    +0.000 A 
ATOM      7  C   UNL     1       4.214   5.129  18.446  0.00  0.00    +0.000 A 
ATOM      8  F   UNL     1       5.032   6.058  18.964  0.00  0.00    +0.000 F 
ENDROOT
BRANCH   6   9
ATOM      9  C   UNL     1       2.319   6.006  19.829  0.00  0.00    +0.000 C 
ATOM     10  O   UNL     1       2.120   5.617  20.974  0.00  0.00    +0.000 OA
ATOM     11  N   UNL     1       2.023   7.285  19.380  0.00  0.00    +0.000 N 
ATOM     12  H   UNL     1       2.109   7.474  18.385  0.00  0.00    +0.000 HD
BRANCH  11  13
ATOM     13  C   UNL     1       1.499   8.344  20.165  0.00  0.00    +0.000 A 
ATOM     14  C   UNL     1       1.400   8.309  21.555  0.00  0.00    +0.000 A 
ATOM     15  C   UNL     1       0.832   9.381  22.244  0.00  0.00    +0.000 A 
ATOM     16  C   UNL     1       0.385  10.470  21.517  0.00  0.00    +0.000 A 
ATOM     17  N   UNL     1       0.490  10.565  20.176  0.00  0.00    +0.000 NA
ATOM     18  C   UNL     1       1.049   9.505  19.537  0.00  0.00    +0.000 A 
ENDBRANCH  11  13
ENDBRANCH   6   9
BRANCH   1  19
ATOM     19  N   UNL     1       6.148   4.352  17.131  0.00  0.00    +0.000 N 
ATOM     20  H   UNL     1       6.750   4.579  17.932  0.00  0.00    +0.000 HD
BRANCH  19  21
ATOM     21  S   UNL     1       6.472   5.559  15.970  0.00  0.00    +0.000 S 
ATOM     22  O   UNL     1       7.584   6.310  16.504  0.00  0.00    +0.000 OA
ATOM     23  O   UNL     1       5.236   6.192  15.569  0.00  0.00    +0.000 OA
BRANCH  21  24
ATOM     24  C   UNL     1       7.075   4.561  14.604  0.00  0.00    +0.000 C 
BRANCH  24  26
ATOM     25  C   UNL     1       6.320   3.511  12.430  0.00  0.00    +0.000 C 
ATOM     26  C   UNL     1       5.912   3.949  13.826  0.00  0.00    +0.000 C 
ENDBRANCH  24  26
ENDBRANCH  21  24
ENDBRANCH  19  21
ENDBRANCH   1  19
TORSDOF 6
ENDMDL
MODEL 5
REMARK VINA RESULT:      -7.6      2.006      2.194
REMARK  Name = 
REMARK  7 active torsions:
REMARK  status: ('A' for Active; 'I' for Inactive)
REMARK    1  A    between atoms: C_1  and  C_2
REMARK    2  A    between atoms: C_2  and  C_3
REMARK    3  A    between atoms: C_3  and  S_4
REMARK    4  A    between atoms: S_4  and  N_7
REMARK    5  A    between atoms: N_7  and  C_8
REMARK    6  A    between atoms: C_13  and  C_14
REMARK    7  A    between atoms: N_16  and  C_17
REMARK                            x       y       z     vdW  Elec       q    Type
REMARK                         _______ _______ _______ _____ _____    ______ ____
ROOT
ATOM      1  C   UNL     1       4.743   5.292  17.180  0.00  0.00    +0.000 A 
ATOM      2  C   UNL     1       4.066   4.086  17.027  0.00  0.00    +0.000 A 
ATOM      3  C   UNL     1       2.739   3.992  17.448  0.00  0.00    +0.000 A 
ATOM      4  C   UNL     1       2.092   5.104  17.993  0.00  0.00    +0.000 A 
ATOM      5  F   UNL     1       0.824   4.946  18.406  0.00  0.00    +0.000 F 
ATOM      6  C   UNL     1       2.741   6.335  18.123  0.00  0.00    +0.000 A 
ATOM      7  C   UNL     1       4.078   6.412  17.703  0.00  0.00    +0.000 A 
ATOM      8  F   UNL     1       4.787   7.545  17.821  0.00  0.00    +0.000 F 
ENDROOT
BRANCH   6   9
ATOM      9  C   UNL     1       2.073   7.545  18.687  0.00  0.00    +0.000 C 
ATOM     10  O   UNL     1       1.869   7.587  19.894  0.00  0.00    +0.000 OA
ATOM     11  N   UNL     1       1.681   8.536  17.797  0.00  0.00    +0.000 N 
ATOM     12  H   UNL     1       1.785   8.354  16.802  0.00  0.00    +0.000 HD
BRANCH  11  13
ATOM     13  C   UNL     1       1.039   9.755  18.136  0.00  0.00    +0.000 A 
ATOM     14  C   UNL     1      -0.344   9.916  18.198  0.00  0.00    +0.000 A 
ATOM     15  C   UNL     1      -0.891  11.163  18.500  0.00  0.00    +0.000 A 
ATOM     16  C   UNL     1      -0.031  12.220  18.741  0.00  0.00    +0.000 A 
ATOM     17  N   UNL     1       1.313  12.106  18.726  0.00  0.00    +0.000 NA
ATOM     18  C   UNL     1       1.811  10.877  18.431  0.00  0.00    +0.000 A 
ENDBRANCH  11  13
ENDBRANCH   6   9
BRANCH   1  19
ATOM     19  N   UNL     1       6.110   5.400  16.745  0.00  0.00    +0.000 N 
ATOM     20  H   UNL     1       6.286   4.825  15.911  0.00  0.00    +0.000 HD
BRANCH  19  21
ATOM     21  S   UNL     1       7.285   4.913  17.882  0.00  0.00    +0.000 S 
ATOM     22  O   UNL     1       8.321   4.271  17.107  0.00  0.00    +0.000 OA
ATOM     23  O   UNL     1       6.639   4.257  18.996  0.00  0.00    +0.000 OA
BRANCH  21  24
ATOM     24  C   UNL     1       7.903   6.506  18.433  0.00  0.00    +0.000 C 
BRANCH  24  26
ATOM     25  C   UNL     1       8.059   8.961  17.843  0.00  0.00    +0.000 C 
ATOM     26  C   UNL     1       7.702   7.567  17.354  0.00  0.00    +0.000 C 
ENDBRANCH  24  26
ENDBRANCH  21  24
ENDBRANCH  19  21
ENDBRANCH   1  19
TORSDOF 6
ENDMDL
MODEL 6
REMARK VINA RESULT:      -7.6      1.110      1.452
REMARK  Name = 
REMARK  7 active torsions:
REMARK  status: ('A' for Active; 'I' for Inactive)
REMARK    1  A    between atoms: C_1  and  C_2
REMARK    2  A    between atoms: C_2  and  C_3
REMARK    3  A    between atoms: C_3  and  S_4
REMARK    4  A    between atoms: S_4  and  N_7
REMARK    5  A    between atoms: N_7  and  C_8
REMARK    6  A    between atoms: C_13  and  C_14
REMARK    7  A    between atoms: N_16  and  C_17
REMARK                            x       y       z     vdW  Elec       q    Type
REMARK                         _______ _______ _______ _____ _____    ______ ____
ROOT
ATOM      1  C   UNL     1       4.537   5.100  17.315  0.00  0.00    +0.000 A 
ATOM      2  C   UNL     1       3.915   3.975  16.782  0.00  0.00    +0.000 A 
ATOM      3  C   UNL     1       2.661   3.599  17.264  0.00  0.00    +0.000 A 
ATOM      4  C   UNL     1       2.029   4.359  18.252  0.00  0.00    +0.000 A 
ATOM      5  F   UNL     1       0.835   3.931  18.697  0.00  0.00    +0.000 F 
ATOM      6  C   UNL     1       2.619   5.511  18.776  0.00  0.00    +0.000 A 
ATOM      7  C   UNL     1       3.884   5.873  18.287  0.00  0.00    +0.000 A 
ATOM      8  F   UNL     1       4.537   6.947  18.757  0.00  0.00    +0.000 F 
ENDROOT
BRANCH   6   9
ATOM      9  C   UNL     1       1.963   6.353  19.821  0.00  0.00    +0.000 C 
ATOM     10  O   UNL     1       1.579   5.808  20.849  0.00  0.00    +0.000 OA
ATOM     11  N   UNL     1       1.787   7.701  19.543  0.00  0.00    +0.000 N 
ATOM     12  H   UNL     1       2.029   8.034  18.613  0.00  0.00    +0.000 HD
BRANCH  11  13
ATOM     13  C   UNL     1       1.191   8.659  20.404  0.00  0.00    +0.000 A 
ATOM     14  C   UNL     1       1.229   8.587  21.795  0.00  0.00    +0.000 A 
ATOM     15  C   UNL     1       0.580   9.552  22.564  0.00  0.00    +0.000 A 
ATOM     16  C   UNL     1      -0.086  10.576  21.915  0.00  0.00    +0.000 A 
ATOM     17  N   UNL     1      -0.123  10.707  20.572  0.00  0.00    +0.000 NA
ATOM     18  C   UNL     1       0.521   9.751  19.854  0.00  0.00    +0.000 A 
ENDBRANCH  11  13
ENDBRANCH   6   9
BRANCH   1  19
ATOM     19  N   UNL     1       5.828   5.498  16.820  0.00  0.00    +0.000 N 
ATOM     20  H   UNL     1       5.987   5.156  15.864  0.00  0.00    +0.000 HD
BRANCH  19  21
ATOM     21  S   UNL     1       7.165   4.944  17.723  0.00  0.00    +0.000 S 
ATOM     22  O   UNL     1       8.100   4.437  16.745  0.00  0.00    +0.000 OA
ATOM     23  O   UNL     1       6.702   4.143  18.833  0.00  0.00    +0.000 OA
BRANCH  21  24
ATOM     24  C   UNL     1       7.808   6.494  18.362  0.00  0.00    +0.000 C 
BRANCH  24  26
ATOM     25  C   UNL     1       8.102   8.959  17.873  0.00  0.00    +0.000 C 
ATOM     26  C   UNL     1       7.510   7.641  17.400  0.00  0.00    +0.000 C 
ENDBRANCH  24  26
ENDBRANCH  21  24
ENDBRANCH  19  21
ENDBRANCH   1  19
TORSDOF 6
ENDMDL
MODEL 7
REMARK VINA RESULT:      -7.6      2.584      3.321
REMARK  Name = 
REMARK  7 active torsions:
REMARK  status: ('A' for Active; 'I' for Inactive)
REMARK    1  A    between atoms: C_1  and  C_2
REMARK    2  A    between atoms: C_2  and  C_3
REMARK    3  A    between atoms: C_3  and  S_4
REMARK    4  A    between atoms: S_4  and  N_7
REMARK    5  A    between atoms: N_7  and  C_8
REMARK    6  A    between atoms: C_13  and  C_14
REMARK    7  A    between atoms: N_16  and  C_17
REMARK                            x       y       z     vdW  Elec       q    Type
REMARK                         _______ _______ _______ _____ _____    ______ ____
ROOT
ATOM      1  C   UNL     1       4.915   4.803  17.166  0.00  0.00    +0.000 A 
ATOM      2  C   UNL     1       4.163   3.634  17.120  0.00  0.00    +0.000 A 
ATOM      3  C   UNL     1       2.858   3.644  17.613  0.00  0.00    +0.000 A 
ATOM      4  C   UNL     1       2.307   4.823  18.123  0.00  0.00    +0.000 A 
ATOM      5  F   UNL     1       1.056   4.765  18.610  0.00  0.00    +0.000 F 
ATOM      6  C   UNL     1       3.031   6.017  18.147  0.00  0.00    +0.000 A 
ATOM      7  C   UNL     1       4.345   5.989  17.655  0.00  0.00    +0.000 A 
ATOM      8  F   UNL     1       5.123   7.083  17.668  0.00  0.00    +0.000 F 
ENDROOT
BRANCH   6   9
ATOM      9  C   UNL     1       2.465   7.296  18.670  0.00  0.00    +0.000 C 
ATOM     10  O   UNL     1       2.326   7.416  19.881  0.00  0.00    +0.000 OA
ATOM     11  N   UNL     1       2.089   8.259  17.745  0.00  0.00    +0.000 N 
ATOM     12  H   UNL     1       2.131   8.017  16.758  0.00  0.00    +0.000 HD
BRANCH  11  13
ATOM     13  C   UNL     1       1.538   9.532  18.043  0.00  0.00    +0.000 A 
ATOM     14  C   UNL     1       2.298  10.687  18.222  0.00  0.00    +0.000 A 
ATOM     15  C   UNL     1       1.675  11.890  18.554  0.00  0.00    +0.000 A 
ATOM     16  C   UNL     1       0.298  11.905  18.691  0.00  0.00    +0.000 A 
ATOM     17  N   UNL     1      -0.482  10.822  18.495  0.00  0.00    +0.000 NA
ATOM     18  C   UNL     1       0.157   9.669  18.170  0.00  0.00    +0.000 A 
ENDBRANCH  11  13
ENDBRANCH   6   9
BRANCH   1  19
ATOM     19  N   UNL     1       6.261   4.803  16.655  0.00  0.00    +0.000 N 
ATOM     20  H   UNL     1       6.854   5.475  17.158  0.00  0.00    +0.000 HD
BRANCH  19  21
ATOM     21  S   UNL     1       6.421   5.211  15.007  0.00  0.00    +0.000 S 
ATOM     22  O   UNL     1       7.829   5.465  14.813  0.00  0.00    +0.000 OA
ATOM     23  O   UNL     1       5.408   6.176  14.644  0.00  0.00    +0.000 OA
BRANCH  21  24
ATOM     24  C   UNL     1       6.023   3.642  14.229  0.00  0.00    +0.000 C 
BRANCH  24  26
ATOM     25  C   UNL     1       5.098   3.276  11.903  0.00  0.00    +0.000 C 
ATOM     26  C   UNL     1       6.303   3.695  12.729  0.00  0.00    +0.000 C 
ENDBRANCH  24  26
ENDBRANCH  21  24
ENDBRANCH  19  21
ENDBRANCH   1  19
TORSDOF 6
ENDMDL
MODEL 8
REMARK VINA RESULT:      -7.5      1.647      1.937
REMARK  Name = 
REMARK  7 active torsions:
REMARK  status: ('A' for Active; 'I' for Inactive)
REMARK    1  A    between atoms: C_1  and  C_2
REMARK    2  A    between atoms: C_2  and  C_3
REMARK    3  A    between atoms: C_3  and  S_4
REMARK    4  A    between atoms: S_4  and  N_7
REMARK    5  A    between atoms: N_7  and  C_8
REMARK    6  A    between atoms: C_13  and  C_14
REMARK    7  A    between atoms: N_16  and  C_17
REMARK                            x       y       z     vdW  Elec       q    Type
REMARK                         _______ _______ _______ _____ _____    ______ ____
ROOT
ATOM      1  C   UNL     1       4.569   3.821  18.755  0.00  0.00    +0.000 A 
ATOM      2  C   UNL     1       4.572   2.629  19.473  0.00  0.00    +0.000 A 
ATOM      3  C   UNL     1       3.671   2.466  20.526  0.00  0.00    +0.000 A 
ATOM      4  C   UNL     1       2.760   3.479  20.836  0.00  0.00    +0.000 A 
ATOM      5  F   UNL     1       1.936   3.277  21.878  0.00  0.00    +0.000 F 
ATOM      6  C   UNL     1       2.714   4.670  20.106  0.00  0.00    +0.000 A 
ATOM      7  C   UNL     1       3.633   4.822  19.056  0.00  0.00    +0.000 A 
ATOM      8  F   UNL     1       3.680   5.945  18.322  0.00  0.00    +0.000 F 
ENDROOT
BRANCH   6   9
ATOM      9  C   UNL     1       1.743   5.764  20.403  0.00  0.00    +0.000 C 
ATOM     10  O   UNL     1       0.558   5.474  20.514  0.00  0.00    +0.000 OA
ATOM     11  N   UNL     1       2.239   7.057  20.492  0.00  0.00    +0.000 N 
ATOM     12  H   UNL     1       3.218   7.211  20.265  0.00  0.00    +0.000 HD
BRANCH  11  13
ATOM     13  C   UNL     1       1.481   8.224  20.769  0.00  0.00    +0.000 A 
ATOM     14  C   UNL     1       1.009   8.565  22.035  0.00  0.00    +0.000 A 
ATOM     15  C   UNL     1       0.234   9.711  22.209  0.00  0.00    +0.000 A 
ATOM     16  C   UNL     1      -0.041  10.496  21.103  0.00  0.00    +0.000 A 
ATOM     17  N   UNL     1       0.420  10.226  19.865  0.00  0.00    +0.000 NA
ATOM     18  C   UNL     1       1.173   9.103  19.732  0.00  0.00    +0.000 A 
ENDBRANCH  11  13
ENDBRANCH   6   9
BRANCH   1  19
ATOM     19  N   UNL     1       5.491   3.995  17.664  0.00  0.00    +0.000 N 
ATOM     20  H   UNL     1       5.816   3.092  17.297  0.00  0.00    +0.000 HD
BRANCH  19  21
ATOM     21  S   UNL     1       6.911   4.865  18.034  0.00  0.00    +0.000 S 
ATOM     22  O   UNL     1       7.927   4.323  17.163  0.00  0.00    +0.000 OA
ATOM     23  O   UNL     1       7.081   4.930  19.468  0.00  0.00    +0.000 OA
BRANCH  21  24
ATOM     24  C   UNL     1       6.472   6.500  17.435  0.00  0.00    +0.000 C 
BRANCH  24  26
ATOM     25  C   UNL     1       7.850   8.582  17.848  0.00  0.00    +0.000 C 
ATOM     26  C   UNL     1       7.722   7.291  17.056  0.00  0.00    +0.000 C 
ENDBRANCH  24  26
ENDBRANCH  21  24
ENDBRANCH  19  21
ENDBRANCH   1  19
TORSDOF 6
ENDMDL
MODEL 9
REMARK VINA RESULT:      -7.5      1.769      2.404
REMARK  Name = 
REMARK  7 active torsions:
REMARK  status: ('A' for Active; 'I' for Inactive)
REMARK    1  A    between atoms: C_1  and  C_2
REMARK    2  A    between atoms: C_2  and  C_3
REMARK    3  A    between atoms: C_3  and  S_4
REMARK    4  A    between atoms: S_4  and  N_7
REMARK    5  A    between atoms: N_7  and  C_8
REMARK    6  A    between atoms: C_13  and  C_14
REMARK    7  A    between atoms: N_16  and  C_17
REMARK                            x       y       z     vdW  Elec       q    Type
REMARK                         _______ _______ _______ _____ _____    ______ ____
ROOT
ATOM      1  C   UNL     1       4.746   4.206  17.700  0.00  0.00    +0.000 A 
ATOM      2  C   UNL     1       4.012   3.152  17.166  0.00  0.00    +0.000 A 
ATOM      3  C   UNL     1       2.674   2.999  17.532  0.00  0.00    +0.000 A 
ATOM      4  C   UNL     1       2.074   3.912  18.404  0.00  0.00    +0.000 A 
ATOM      5  F   UNL     1       0.792   3.698  18.742  0.00  0.00    +0.000 F 
ATOM      6  C   UNL     1       2.782   4.998  18.925  0.00  0.00    +0.000 A 
ATOM      7  C   UNL     1       4.129   5.133  18.554  0.00  0.00    +0.000 A 
ATOM      8  F   UNL     1       4.891   6.129  19.032  0.00  0.00    +0.000 F 
ENDROOT
BRANCH   6   9
ATOM      9  C   UNL     1       2.165   5.998  19.846  0.00  0.00    +0.000 C 
ATOM     10  O   UNL     1       1.733   5.606  20.923  0.00  0.00    +0.000 OA
ATOM     11  N   UNL     1       2.079   7.311  19.405  0.00  0.00    +0.000 N 
ATOM     12  H   UNL     1       2.355   7.513  18.448  0.00  0.00    +0.000 HD
BRANCH  11  13
ATOM     13  C   UNL     1       1.533   8.401  20.131  0.00  0.00    +0.000 A 
ATOM     14  C   UNL     1       0.911   9.499  19.539  0.00  0.00    +0.000 A 
ATOM     15  C   UNL     1       0.440  10.547  20.330  0.00  0.00    +0.000 A 
ATOM     16  C   UNL     1       0.597  10.462  21.702  0.00  0.00    +0.000 A 
ATOM     17  N   UNL     1       1.161   9.405  22.323  0.00  0.00    +0.000 NA
ATOM     18  C   UNL     1       1.607   8.402  21.523  0.00  0.00    +0.000 A 
ENDBRANCH  11  13
ENDBRANCH   6   9
BRANCH   1  19
ATOM     19  N   UNL     1       6.125   4.374  17.325  0.00  0.00    +0.000 N 
ATOM     20  H   UNL     1       6.671   4.805  18.081  0.00  0.00    +0.000 HD
BRANCH  19  21
ATOM     21  S   UNL     1       6.401   5.355  15.957  0.00  0.00    +0.000 S 
ATOM     22  O   UNL     1       7.631   6.059  16.237  0.00  0.00    +0.000 OA
ATOM     23  O   UNL     1       5.182   6.046  15.601  0.00  0.00    +0.000 OA
BRANCH  21  24
ATOM     24  C   UNL     1       6.740   4.109  14.709  0.00  0.00    +0.000 C 
BRANCH  24  26
ATOM     25  C   UNL     1       6.000   3.393  12.398  0.00  0.00    +0.000 C 
ATOM     26  C   UNL     1       5.577   3.999  13.726  0.00  0.00    +0.000 C 
ENDBRANCH  24  26
ENDBRANCH  21  24
ENDBRANCH  19  21
ENDBRANCH   1  19
TORSDOF 6
ENDMDL
