MODEL 1
REMARK VINA RESULT:      -7.5      0.000      0.000
REMARK  Name = 
REMARK  6 active torsions:
REMARK  status: ('A' for Active; 'I' for Inactive)
REMARK    1  A    between atoms: C_2  and  C_3
REMARK    2  A    between atoms: N_5  and  C_6
REMARK    3  A    between atoms: N_5  and  C_15
REMARK    4  A    between atoms: C_15  and  C_16
REMARK    5  A    between atoms: N_18  and  C_19
REMARK    6  A    between atoms: C_19  and  C_20
REMARK                            x       y       z     vdW  Elec       q    Type
REMARK                         _______ _______ _______ _____ _____    ______ ____
ROOT
ATOM      1  C   UNL     1       5.569   5.123  16.453  0.00  0.00    +0.000 C 
ATOM      2  C   UNL     1       4.850   4.115  15.514  0.00  0.00    +0.000 C 
ATOM      3  C   UNL     1       5.254   4.210  14.052  0.00  0.00    +0.000 C 
ATOM      4  O   UNL     1       6.659   4.097  13.909  0.00  0.00    +0.000 OA
ATOM      5  C   UNL     1       7.336   5.148  14.580  0.00  0.00    +0.000 C 
ATOM      6  C   UNL     1       7.081   5.062  16.078  0.00  0.00    +0.000 C 
ENDROOT
BRANCH   1   7
ATOM      7  C   UNL     1       4.928   6.536  16.205  0.00  0.00    +0.000 C 
ATOM      8  O   UNL     1       5.136   7.167  15.167  0.00  0.00    +0.000 OA
ATOM      9  N   UNL     1       4.027   6.997  17.140  0.00  0.00    +0.000 N 
ATOM     10  H   UNL     1       3.803   6.450  17.956  0.00  0.00    +0.000 HD
BRANCH   9  11
ATOM     11  C   UNL     1       3.342   8.271  17.004  0.00  0.00    +0.000 C 
BRANCH  11  12
ATOM     12  C   UNL     1       2.433   8.530  18.182  0.00  0.00    +0.000 A 
ATOM     13  C   UNL     1       1.601   9.661  18.217  0.00  0.00    +0.000 A 
ATOM     14  C   UNL     1       0.790   9.913  19.326  0.00  0.00    +0.000 A 
ATOM     15  C   UNL     1       0.786   9.031  20.403  0.00  0.00    +0.000 A 
ATOM     16  C   UNL     1       1.587   7.891  20.370  0.00  0.00    +0.000 A 
ATOM     17  C   UNL     1       2.408   7.642  19.268  0.00  0.00    +0.000 A 
ENDBRANCH  11  12
ENDBRANCH   9  11
ENDBRANCH   1   7
BRANCH   1  20
ATOM     18  C   UNL     1       6.223   5.094  19.022  0.00  0.00    +0.000 C 
ATOM     19  O   UNL     1       6.018   4.695  20.170  0.00  0.00    +0.000 OA
ATOM     20  N   UNL     1       5.371   4.786  17.935  0.00  0.00    +0.000 N 
BRANCH  20  21
ATOM     21  C   UNL     1       4.334   3.847  18.256  0.00  0.00    +0.000 A 
ATOM     22  C   UNL     1       4.587   2.477  18.101  0.00  0.00    +0.000 A 
ATOM     23  C   UNL     1       3.595   1.517  18.342  0.00  0.00    +0.000 A 
ATOM     24  C   UNL     1       2.338   1.987  18.729  0.00  0.00    +0.000 A 
ATOM     25  N   UNL     1       1.163   1.334  19.002  0.00  0.00    +0.000 N 
ATOM     26  N   UNL     1       0.151   2.148  19.350  0.00  0.00    +0.000 NA
ATOM     27  C   UNL     1       0.688   3.367  19.261  0.00  0.00    +0.000 A 
ATOM     28  C   UNL     1       2.049   3.341  18.877  0.00  0.00    +0.000 A 
ATOM     29  C   UNL     1       3.057   4.296  18.625  0.00  0.00    +0.000 A 
ATOM     30  H   UNL     1       0.987   0.338  18.963  0.00  0.00    +0.000 HD
ENDBRANCH  20  21
BRANCH  18  32
ATOM     31  C   UNL     1       8.286   6.741  18.766  0.00  0.00    +0.000 C 
ATOM     32  C   UNL     1       7.368   5.969  18.874  0.00  0.00    +0.000 C 
ENDBRANCH  18  32
ENDBRANCH   1  20
TORSDOF 6
ENDMDL
MODEL 2
REMARK VINA RESULT:      -7.4      4.786      8.812
REMARK  Name = 
REMARK  6 active torsions:
REMARK  status: ('A' for Active; 'I' for Inactive)
REMARK    1  A    between atoms: C_2  and  C_3
REMARK    2  A    between atoms: N_5  and  C_6
REMARK    3  A    between atoms: N_5  and  C_15
REMARK    4  A    between atoms: C_15  and  C_16
REMARK    5  A    between atoms: N_18  and  C_19
REMARK    6  A    between atoms: C_19  and  C_20
REMARK                            x       y       z     vdW  Elec       q    Type
REMARK                         _______ _______ _______ _____ _____    ______ ____
ROOT
ATOM      1  C   UNL     1       0.207  10.279  19.904  0.00  0.00    +0.000 C 
ATOM      2  C   UNL     1      -0.914   9.392  20.513  0.00  0.00    +0.000 C 
ATOM      3  C   UNL     1      -0.471   8.522  21.678  0.00  0.00    +0.000 C 
ATOM      4  O   UNL     1       0.139   9.305  22.689  0.00  0.00    +0.000 OA
ATOM      5  C   UNL     1       1.306   9.954  22.209  0.00  0.00    +0.000 C 
ATOM      6  C   UNL     1       0.940  10.940  21.109  0.00  0.00    +0.000 C 
ENDROOT
BRANCH   1   7
ATOM      7  C   UNL     1       1.138   9.341  19.053  0.00  0.00    +0.000 C 
ATOM      8  O   UNL     1       1.432   9.608  17.886  0.00  0.00    +0.000 OA
ATOM      9  N   UNL     1       1.712   8.266  19.695  0.00  0.00    +0.000 N 
ATOM     10  H   UNL     1       1.528   8.086  20.670  0.00  0.00    +0.000 HD
BRANCH   9  11
ATOM     11  C   UNL     1       2.619   7.348  19.026  0.00  0.00    +0.000 C 
BRANCH  11  12
ATOM     12  C   UNL     1       2.127   5.925  19.128  0.00  0.00    +0.000 A 
ATOM     13  C   UNL     1       1.695   5.396  20.356  0.00  0.00    +0.000 A 
ATOM     14  C   UNL     1       1.276   4.067  20.449  0.00  0.00    +0.000 A 
ATOM     15  C   UNL     1       1.265   3.256  19.317  0.00  0.00    +0.000 A 
ATOM     16  C   UNL     1       1.666   3.776  18.088  0.00  0.00    +0.000 A 
ATOM     17  C   UNL     1       2.097   5.101  17.993  0.00  0.00    +0.000 A 
ENDBRANCH  11  12
ENDBRANCH   9  11
ENDBRANCH   1   7
BRANCH   1  20
ATOM     18  C   UNL     1       0.227  12.603  18.628  0.00  0.00    +0.000 C 
ATOM     19  O   UNL     1      -0.345  13.439  17.926  0.00  0.00    +0.000 OA
ATOM     20  N   UNL     1      -0.345  11.352  18.959  0.00  0.00    +0.000 N 
BRANCH  20  21
ATOM     21  C   UNL     1      -1.707  11.204  18.531  0.00  0.00    +0.000 A 
ATOM     22  C   UNL     1      -1.985  10.408  17.412  0.00  0.00    +0.000 A 
ATOM     23  C   UNL     1      -3.287  10.274  16.912  0.00  0.00    +0.000 A 
ATOM     24  C   UNL     1      -4.295  10.982  17.571  0.00  0.00    +0.000 A 
ATOM     25  N   UNL     1      -5.640  11.098  17.326  0.00  0.00    +0.000 N 
ATOM     26  N   UNL     1      -6.291  11.885  18.200  0.00  0.00    +0.000 NA
ATOM     27  C   UNL     1      -5.323  12.316  19.011  0.00  0.00    +0.000 A 
ATOM     28  C   UNL     1      -4.052  11.794  18.676  0.00  0.00    +0.000 A 
ATOM     29  C   UNL     1      -2.734  11.923  19.163  0.00  0.00    +0.000 A 
ATOM     30  H   UNL     1      -6.170  10.670  16.577  0.00  0.00    +0.000 HD
ENDBRANCH  20  21
BRANCH  18  32
ATOM     31  C   UNL     1       2.688  13.299  19.332  0.00  0.00    +0.000 C 
ATOM     32  C   UNL     1       1.569  12.963  19.037  0.00  0.00    +0.000 C 
ENDBRANCH  18  32
ENDBRANCH   1  20
TORSDOF 6
ENDMDL
MODEL 3
REMARK VINA RESULT:      -7.4      7.471     10.892
REMARK  Name = 
REMARK  6 active torsions:
REMARK  status: ('A' for Active; 'I' for Inactive)
REMARK    1  A    between atoms: C_2  and  C_3
REMARK    2  A    between atoms: N_5  and  C_6
REMARK    3  A    between atoms: N_5  and  C_15
REMARK    4  A    between atoms: C_15  and  C_16
REMARK    5  A    between atoms: N_18  and  C_19
REMARK    6  A    between atoms: C_19  and  C_20
REMARK                            x       y       z     vdW  Elec       q    Type
REMARK                         _______ _______ _______ _____ _____    ______ ____
ROOT
ATOM      1  C   UNL     1      -0.464  12.342  20.270  0.00  0.00    +0.000 C 
ATOM      2  C   UNL     1       1.017  12.032  19.918  0.00  0.00    +0.000 C 
ATOM      3  C   UNL     1       1.518  12.691  18.643  0.00  0.00    +0.000 C 
ATOM      4  O   UNL     1       1.306  14.091  18.683  0.00  0.00    +0.000 OA
ATOM      5  C   UNL     1      -0.074  14.404  18.779  0.00  0.00    +0.000 C 
ATOM      6  C   UNL     1      -0.640  13.880  20.091  0.00  0.00    +0.000 C 
ENDROOT
BRANCH   1   7
ATOM      7  C   UNL     1      -1.365  11.500  19.294  0.00  0.00    +0.000 C 
ATOM      8  O   UNL     1      -1.071  10.345  18.979  0.00  0.00    +0.000 OA
ATOM      9  N   UNL     1      -2.559  12.056  18.895  0.00  0.00    +0.000 N 
ATOM     10  H   UNL     1      -2.834  12.975  19.208  0.00  0.00    +0.000 HD
BRANCH   9  11
ATOM     11  C   UNL     1      -3.493  11.363  18.024  0.00  0.00    +0.000 C 
BRANCH  11  12
ATOM     12  C   UNL     1      -4.901  11.871  18.218  0.00  0.00    +0.000 A 
ATOM     13  C   UNL     1      -5.676  12.288  17.123  0.00  0.00    +0.000 A 
ATOM     14  C   UNL     1      -6.965  12.790  17.314  0.00  0.00    +0.000 A 
ATOM     15  C   UNL     1      -7.502  12.866  18.597  0.00  0.00    +0.000 A 
ATOM     16  C   UNL     1      -6.755  12.431  19.689  0.00  0.00    +0.000 A 
ATOM     17  C   UNL     1      -5.461  11.939  19.502  0.00  0.00    +0.000 A 
ENDBRANCH  11  12
ENDBRANCH   9  11
ENDBRANCH   1   7
BRANCH   1  20
ATOM     18  C   UNL     1      -0.533  10.705  22.354  0.00  0.00    +0.000 C 
ATOM     19  O   UNL     1      -0.953  10.429  23.480  0.00  0.00    +0.000 OA
ATOM     20  N   UNL     1      -0.827  11.924  21.699  0.00  0.00    +0.000 N 
BRANCH  20  21
ATOM     21  C   UNL     1      -1.777  12.745  22.396  0.00  0.00    +0.000 A 
ATOM     22  C   UNL     1      -1.312  13.669  23.341  0.00  0.00    +0.000 A 
ATOM     23  C   UNL     1      -2.194  14.455  24.094  0.00  0.00    +0.000 A 
ATOM     24  C   UNL     1      -3.560  14.265  23.871  0.00  0.00    +0.000 A 
ATOM     25  N   UNL     1      -4.667  14.831  24.450  0.00  0.00    +0.000 N 
ATOM     26  N   UNL     1      -5.835  14.383  23.957  0.00  0.00    +0.000 NA
ATOM     27  C   UNL     1      -5.461  13.471  23.056  0.00  0.00    +0.000 A 
ATOM     28  C   UNL     1      -4.057  13.345  22.951  0.00  0.00    +0.000 A 
ATOM     29  C   UNL     1      -3.155  12.557  22.205  0.00  0.00    +0.000 A 
ATOM     30  H   UNL     1      -4.692  15.523  25.188  0.00  0.00    +0.000 HD
ENDBRANCH  20  21
BRANCH  18  32
ATOM     31  C   UNL     1       1.098   8.876  21.339  0.00  0.00    +0.000 C 
ATOM     32  C   UNL     1       0.350   9.716  21.771  0.00  0.00    +0.000 C 
ENDBRANCH  18  32
ENDBRANCH   1  20
TORSDOF 6
ENDMDL
MODEL 4
REMARK VINA RESULT:      -7.4      7.368     10.883
REMARK  Name = 
REMARK  6 active torsions:
REMARK  status: ('A' for Active; 'I' for Inactive)
REMARK    1  A    between atoms: C_2  and  C_3
REMARK    2  A    between atoms: N_5  and  C_6
REMARK    3  A    between atoms: N_5  and  C_15
REMARK    4  A    between atoms: C_15  and  C_16
REMARK    5  A    between atoms: N_18  and  C_19
REMARK    6  A    between atoms: C_19  and  C_20
REMARK                            x       y       z     vdW  Elec       q    Type
REMARK                         _______ _______ _______ _____ _____    ______ ____
ROOT
ATOM      1  C   UNL     1      -0.387  12.295  20.378  0.00  0.00    +0.000 C 
ATOM      2  C   UNL     1       1.065  11.957  19.940  0.00  0.00    +0.000 C 
ATOM      3  C   UNL     1       1.529  12.668  18.679  0.00  0.00    +0.000 C 
ATOM      4  O   UNL     1       1.368  14.070  18.803  0.00  0.00    +0.000 OA
ATOM      5  C   UNL     1       0.005  14.422  18.981  0.00  0.00    +0.000 C 
ATOM      6  C   UNL     1      -0.517  13.846  20.289  0.00  0.00    +0.000 C 
ENDROOT
BRANCH   1   7
ATOM      7  C   UNL     1      -1.360  11.537  19.403  0.00  0.00    +0.000 C 
ATOM      8  O   UNL     1      -1.220  10.339  19.153  0.00  0.00    +0.000 OA
ATOM      9  N   UNL     1      -2.450  12.232  18.928  0.00  0.00    +0.000 N 
ATOM     10  H   UNL     1      -2.604  13.194  19.188  0.00  0.00    +0.000 HD
BRANCH   9  11
ATOM     11  C   UNL     1      -3.439  11.631  18.049  0.00  0.00    +0.000 C 
BRANCH  11  12
ATOM     12  C   UNL     1      -4.811  11.650  18.678  0.00  0.00    +0.000 A 
ATOM     13  C   UNL     1      -5.197  12.691  19.539  0.00  0.00    +0.000 A 
ATOM     14  C   UNL     1      -6.455  12.683  20.145  0.00  0.00    +0.000 A 
ATOM     15  C   UNL     1      -7.349  11.647  19.886  0.00  0.00    +0.000 A 
ATOM     16  C   UNL     1      -6.990  10.622  19.014  0.00  0.00    +0.000 A 
ATOM     17  C   UNL     1      -5.728  10.621  18.415  0.00  0.00    +0.000 A 
ENDBRANCH  11  12
ENDBRANCH   9  11
ENDBRANCH   1   7
BRANCH   1  20
ATOM     18  C   UNL     1      -0.375  10.566  22.388  0.00  0.00    +0.000 C 
ATOM     19  O   UNL     1      -0.754  10.238  23.514  0.00  0.00    +0.000 OA
ATOM     20  N   UNL     1      -0.697  11.812  21.798  0.00  0.00    +0.000 N 
BRANCH  20  21
ATOM     21  C   UNL     1      -1.626  12.595  22.564  0.00  0.00    +0.000 A 
ATOM     22  C   UNL     1      -2.998  12.357  22.416  0.00  0.00    +0.000 A 
ATOM     23  C   UNL     1      -3.953  13.128  23.092  0.00  0.00    +0.000 A 
ATOM     24  C   UNL     1      -3.475  14.156  23.908  0.00  0.00    +0.000 A 
ATOM     25  N   UNL     1      -4.125  15.099  24.664  0.00  0.00    +0.000 N 
ATOM     26  N   UNL     1      -3.304  15.933  25.325  0.00  0.00    +0.000 NA
ATOM     27  C   UNL     1      -2.087  15.533  24.950  0.00  0.00    +0.000 A 
ATOM     28  C   UNL     1      -2.120  14.430  24.065  0.00  0.00    +0.000 A 
ATOM     29  C   UNL     1      -1.171  13.648  23.373  0.00  0.00    +0.000 A 
ATOM     30  H   UNL     1      -5.124  15.227  24.766  0.00  0.00    +0.000 HD
ENDBRANCH  20  21
BRANCH  18  32
ATOM     31  C   UNL     1       1.171   8.773  21.191  0.00  0.00    +0.000 C 
ATOM     32  C   UNL     1       0.491   9.609  21.730  0.00  0.00    +0.000 C 
ENDBRANCH  18  32
ENDBRANCH   1  20
TORSDOF 6
ENDMDL
MODEL 5
REMARK VINA RESULT:      -7.3      5.629      9.005
REMARK  Name = 
REMARK  6 active torsions:
REMARK  status: ('A' for Active; 'I' for Inactive)
REMARK    1  A    between atoms: C_2  and  C_3
REMARK    2  A    between atoms: N_5  and  C_6
REMARK    3  A    between atoms: N_5  and  C_15
REMARK    4  A    between atoms: C_15  and  C_16
REMARK    5  A    between atoms: N_18  and  C_19
REMARK    6  A    between atoms: C_19  and  C_20
REMARK                            x       y       z     vdW  Elec       q    Type
REMARK                         _______ _______ _______ _____ _____    ______ ____
ROOT
ATOM      1  C   UNL     1      -1.507  11.170  18.634  0.00  0.00    +0.000 C 
ATOM      2  C   UNL     1      -2.006   9.704  18.510  0.00  0.00    +0.000 C 
ATOM      3  C   UNL     1      -3.326   9.542  17.775  0.00  0.00    +0.000 C 
ATOM      4  O   UNL     1      -3.269  10.151  16.497  0.00  0.00    +0.000 OA
ATOM      5  C   UNL     1      -3.035  11.547  16.596  0.00  0.00    +0.000 C 
ATOM      6  C   UNL     1      -1.671  11.805  17.220  0.00  0.00    +0.000 C 
ENDROOT
BRANCH   1   7
ATOM      7  C   UNL     1      -2.385  11.874  19.732  0.00  0.00    +0.000 C 
ATOM      8  O   UNL     1      -2.060  11.868  20.921  0.00  0.00    +0.000 OA
ATOM      9  N   UNL     1      -3.474  12.601  19.304  0.00  0.00    +0.000 N 
ATOM     10  H   UNL     1      -3.702  12.664  18.324  0.00  0.00    +0.000 HD
BRANCH   9  11
ATOM     11  C   UNL     1      -4.340  13.325  20.219  0.00  0.00    +0.000 C 
BRANCH  11  12
ATOM     12  C   UNL     1      -5.578  12.526  20.546  0.00  0.00    +0.000 A 
ATOM     13  C   UNL     1      -6.061  11.547  19.661  0.00  0.00    +0.000 A 
ATOM     14  C   UNL     1      -7.227  10.837  19.954  0.00  0.00    +0.000 A 
ATOM     15  C   UNL     1      -7.915  11.082  21.140  0.00  0.00    +0.000 A 
ATOM     16  C   UNL     1      -7.433  12.031  22.039  0.00  0.00    +0.000 A 
ATOM     17  C   UNL     1      -6.273  12.751  21.743  0.00  0.00    +0.000 A 
ENDBRANCH  11  12
ENDBRANCH   9  11
ENDBRANCH   1   7
BRANCH   1  20
ATOM     18  C   UNL     1       0.801  12.388  19.100  0.00  0.00    +0.000 C 
ATOM     19  O   UNL     1       1.995  12.330  19.403  0.00  0.00    +0.000 OA
ATOM     20  N   UNL     1      -0.048  11.256  19.093  0.00  0.00    +0.000 N 
BRANCH  20  21
ATOM     21  C   UNL     1       0.635  10.014  19.324  0.00  0.00    +0.000 A 
ATOM     22  C   UNL     1       0.601   9.448  20.605  0.00  0.00    +0.000 A 
ATOM     23  C   UNL     1       1.297   8.270  20.904  0.00  0.00    +0.000 A 
ATOM     24  C   UNL     1       2.041   7.693  19.872  0.00  0.00    +0.000 A 
ATOM     25  N   UNL     1       2.848   6.584  19.838  0.00  0.00    +0.000 N 
ATOM     26  N   UNL     1       3.402   6.346  18.636  0.00  0.00    +0.000 NA
ATOM     27  C   UNL     1       2.962   7.358  17.885  0.00  0.00    +0.000 A 
ATOM     28  C   UNL     1       2.110   8.237  18.593  0.00  0.00    +0.000 A 
ATOM     29  C   UNL     1       1.408   9.428  18.309  0.00  0.00    +0.000 A 
ATOM     30  H   UNL     1       3.065   5.954  20.600  0.00  0.00    +0.000 HD
ENDBRANCH  20  21
BRANCH  18  32
ATOM     31  C   UNL     1      -0.083  14.844  18.631  0.00  0.00    +0.000 C 
ATOM     32  C   UNL     1       0.305  13.719  18.817  0.00  0.00    +0.000 C 
ENDBRANCH  18  32
ENDBRANCH   1  20
TORSDOF 6
ENDMDL
MODEL 6
REMARK VINA RESULT:      -7.3      7.028     10.641
REMARK  Name = 
REMARK  6 active torsions:
REMARK  status: ('A' for Active; 'I' for Inactive)
REMARK    1  A    between atoms: C_2  and  C_3
REMARK    2  A    between atoms: N_5  and  C_6
REMARK    3  A    between atoms: N_5  and  C_15
REMARK    4  A    between atoms: C_15  and  C_16
REMARK    5  A    between atoms: N_18  and  C_19
REMARK    6  A    between atoms: C_19  and  C_20
REMARK                            x       y       z     vdW  Elec       q    Type
REMARK                         _______ _______ _______ _____ _____    ______ ____
ROOT
ATOM      1  C   UNL     1      -0.763  11.516  20.385  0.00  0.00    +0.000 C 
ATOM      2  C   UNL     1      -1.987  12.401  20.018  0.00  0.00    +0.000 C 
ATOM      3  C   UNL     1      -2.346  12.407  18.541  0.00  0.00    +0.000 C 
ATOM      4  O   UNL     1      -2.535  11.086  18.064  0.00  0.00    +0.000 OA
ATOM      5  C   UNL     1      -1.350  10.316  18.184  0.00  0.00    +0.000 C 
ATOM      6  C   UNL     1      -0.975  10.158  19.650  0.00  0.00    +0.000 C 
ENDROOT
BRANCH   1   7
ATOM      7  C   UNL     1       0.527  12.279  19.912  0.00  0.00    +0.000 C 
ATOM      8  O   UNL     1       1.483  11.684  19.412  0.00  0.00    +0.000 OA
ATOM      9  N   UNL     1       0.507  13.655  19.969  0.00  0.00    +0.000 N 
ATOM     10  H   UNL     1      -0.302  14.148  20.314  0.00  0.00    +0.000 HD
BRANCH   9  11
ATOM     11  C   UNL     1       1.624  14.473  19.528  0.00  0.00    +0.000 C 
BRANCH  11  12
ATOM     12  C   UNL     1       1.144  15.711  18.810  0.00  0.00    +0.000 A 
ATOM     13  C   UNL     1      -0.225  16.014  18.728  0.00  0.00    +0.000 A 
ATOM     14  C   UNL     1      -0.663  17.142  18.032  0.00  0.00    +0.000 A 
ATOM     15  C   UNL     1       0.259  17.991  17.425  0.00  0.00    +0.000 A 
ATOM     16  C   UNL     1       1.622  17.717  17.521  0.00  0.00    +0.000 A 
ATOM     17  C   UNL     1       2.063  16.583  18.207  0.00  0.00    +0.000 A 
ENDBRANCH  11  12
ENDBRANCH   9  11
ENDBRANCH   1   7
BRANCH   1  20
ATOM     18  C   UNL     1      -0.033  10.203  22.570  0.00  0.00    +0.000 C 
ATOM     19  O   UNL     1      -0.064  10.073  23.795  0.00  0.00    +0.000 OA
ATOM     20  N   UNL     1      -0.633  11.293  21.895  0.00  0.00    +0.000 N 
BRANCH  20  21
ATOM     21  C   UNL     1      -1.407  12.150  22.748  0.00  0.00    +0.000 A 
ATOM     22  C   UNL     1      -2.700  11.755  23.116  0.00  0.00    +0.000 A 
ATOM     23  C   UNL     1      -3.524  12.576  23.898  0.00  0.00    +0.000 A 
ATOM     24  C   UNL     1      -3.004  13.815  24.281  0.00  0.00    +0.000 A 
ATOM     25  N   UNL     1      -3.546  14.850  25.000  0.00  0.00    +0.000 N 
ATOM     26  N   UNL     1      -2.718  15.895  25.166  0.00  0.00    +0.000 NA
ATOM     27  C   UNL     1      -1.620  15.532  24.498  0.00  0.00    +0.000 A 
ATOM     28  C   UNL     1      -1.730  14.246  23.920  0.00  0.00    +0.000 A 
ATOM     29  C   UNL     1      -0.915  13.409  23.127  0.00  0.00    +0.000 A 
ATOM     30  H   UNL     1      -4.475  14.904  25.399  0.00  0.00    +0.000 HD
ENDBRANCH  20  21
BRANCH  18  32
ATOM     31  C   UNL     1       1.392   8.395  21.254  0.00  0.00    +0.000 C 
ATOM     32  C   UNL     1       0.728   9.193  21.865  0.00  0.00    +0.000 C 
ENDBRANCH  18  32
ENDBRANCH   1  20
TORSDOF 6
ENDMDL
MODEL 7
REMARK VINA RESULT:      -7.2      2.338      6.320
REMARK  Name = 
REMARK  6 active torsions:
REMARK  status: ('A' for Active; 'I' for Inactive)
REMARK    1  A    between atoms: C_2  and  C_3
REMARK    2  A    between atoms: N_5  and  C_6
REMARK    3  A    between atoms: N_5  and  C_15
REMARK    4  A    between atoms: C_15  and  C_16
REMARK    5  A    between atoms: N_18  and  C_19
REMARK    6  A    between atoms: C_19  and  C_20
REMARK                            x       y       z     vdW  Elec       q    Type
REMARK                         _______ _______ _______ _____ _____    ______ ____
ROOT
ATOM      1  C   UNL     1       4.789   5.632  18.391  0.00  0.00    +0.000 C 
ATOM      2  C   UNL     1       6.020   5.158  19.213  0.00  0.00    +0.000 C 
ATOM      3  C   UNL     1       7.363   5.416  18.551  0.00  0.00    +0.000 C 
ATOM      4  O   UNL     1       7.500   6.783  18.206  0.00  0.00    +0.000 OA
ATOM      5  C   UNL     1       6.511   7.186  17.273  0.00  0.00    +0.000 C 
ATOM      6  C   UNL     1       5.127   7.070  17.895  0.00  0.00    +0.000 C 
ENDROOT
BRANCH   1   7
ATOM      7  C   UNL     1       4.585   4.606  17.217  0.00  0.00    +0.000 C 
ATOM      8  O   UNL     1       3.461   4.301  16.813  0.00  0.00    +0.000 OA
ATOM      9  N   UNL     1       5.712   4.146  16.573  0.00  0.00    +0.000 N 
ATOM     10  H   UNL     1       6.631   4.449  16.858  0.00  0.00    +0.000 HD
BRANCH   9  11
ATOM     11  C   UNL     1       5.652   3.224  15.452  0.00  0.00    +0.000 C 
BRANCH  11  12
ATOM     12  C   UNL     1       6.301   3.815  14.223  0.00  0.00    +0.000 A 
ATOM     13  C   UNL     1       6.038   3.292  12.946  0.00  0.00    +0.000 A 
ATOM     14  C   UNL     1       6.670   3.821  11.819  0.00  0.00    +0.000 A 
ATOM     15  C   UNL     1       7.555   4.888  11.949  0.00  0.00    +0.000 A 
ATOM     16  C   UNL     1       7.804   5.433  13.207  0.00  0.00    +0.000 A 
ATOM     17  C   UNL     1       7.183   4.899  14.338  0.00  0.00    +0.000 A 
ENDBRANCH  11  12
ENDBRANCH   9  11
ENDBRANCH   1   7
BRANCH   1  20
ATOM     18  C   UNL     1       2.872   4.551  19.869  0.00  0.00    +0.000 C 
ATOM     19  O   UNL     1       1.781   4.645  20.435  0.00  0.00    +0.000 OA
ATOM     20  N   UNL     1       3.500   5.640  19.218  0.00  0.00    +0.000 N 
BRANCH  20  21
ATOM     21  C   UNL     1       2.686   6.820  19.145  0.00  0.00    +0.000 A 
ATOM     22  C   UNL     1       2.474   7.422  17.897  0.00  0.00    +0.000 A 
ATOM     23  C   UNL     1       1.738   8.608  17.771  0.00  0.00    +0.000 A 
ATOM     24  C   UNL     1       1.239   9.173  18.947  0.00  0.00    +0.000 A 
ATOM     25  N   UNL     1       0.526  10.322  19.177  0.00  0.00    +0.000 N 
ATOM     26  N   UNL     1       0.221  10.529  20.470  0.00  0.00    +0.000 NA
ATOM     27  C   UNL     1       0.791   9.495  21.093  0.00  0.00    +0.000 A 
ATOM     28  C   UNL     1       1.445   8.610  20.204  0.00  0.00    +0.000 A 
ATOM     29  C   UNL     1       2.193   7.419  20.315  0.00  0.00    +0.000 A 
ATOM     30  H   UNL     1       0.221  11.006  18.497  0.00  0.00    +0.000 HD
ENDBRANCH  20  21
BRANCH  18  32
ATOM     31  C   UNL     1       4.091   2.204  20.077  0.00  0.00    +0.000 C 
ATOM     32  C   UNL     1       3.510   3.255  19.980  0.00  0.00    +0.000 C 
ENDBRANCH  18  32
ENDBRANCH   1  20
TORSDOF 6
ENDMDL
MODEL 8
REMARK VINA RESULT:      -7.2      6.341     10.566
REMARK  Name = 
REMARK  6 active torsions:
REMARK  status: ('A' for Active; 'I' for Inactive)
REMARK    1  A    between atoms: C_2  and  C_3
REMARK    2  A    between atoms: N_5  and  C_6
REMARK    3  A    between atoms: N_5  and  C_15
REMARK    4  A    between atoms: C_15  and  C_16
REMARK    5  A    between atoms: N_18  and  C_19
REMARK    6  A    between atoms: C_19  and  C_20
REMARK                            x       y       z     vdW  Elec       q    Type
REMARK                         _______ _______ _______ _____ _____    ______ ____
ROOT
ATOM      1  C   UNL     1       0.152  11.621  20.261  0.00  0.00    +0.000 C 
ATOM      2  C   UNL     1      -0.454  12.696  21.205  0.00  0.00    +0.000 C 
ATOM      3  C   UNL     1      -1.283  12.140  22.351  0.00  0.00    +0.000 C 
ATOM      4  O   UNL     1      -0.539  11.195  23.099  0.00  0.00    +0.000 OA
ATOM      5  C   UNL     1      -0.161  10.083  22.302  0.00  0.00    +0.000 C 
ATOM      6  C   UNL     1       0.772  10.532  21.187  0.00  0.00    +0.000 C 
ENDROOT
BRANCH   1   7
ATOM      7  C   UNL     1      -1.014  11.075  19.360  0.00  0.00    +0.000 C 
ATOM      8  O   UNL     1      -1.282   9.873  19.309  0.00  0.00    +0.000 OA
ATOM      9  N   UNL     1      -1.805  12.000  18.717  0.00  0.00    +0.000 N 
ATOM     10  H   UNL     1      -1.630  12.988  18.813  0.00  0.00    +0.000 HD
BRANCH   9  11
ATOM     11  C   UNL     1      -2.935  11.621  17.885  0.00  0.00    +0.000 C 
BRANCH  11  12
ATOM     12  C   UNL     1      -4.230  11.691  18.657  0.00  0.00    +0.000 A 
ATOM     13  C   UNL     1      -4.337  12.476  19.817  0.00  0.00    +0.000 A 
ATOM     14  C   UNL     1      -5.527  12.508  20.547  0.00  0.00    +0.000 A 
ATOM     15  C   UNL     1      -6.630  11.772  20.118  0.00  0.00    +0.000 A 
ATOM     16  C   UNL     1      -6.546  11.011  18.954  0.00  0.00    +0.000 A 
ATOM     17  C   UNL     1      -5.353  10.968  18.229  0.00  0.00    +0.000 A 
ENDBRANCH  11  12
ENDBRANCH   9  11
ENDBRANCH   1   7
BRANCH   1  20
ATOM     18  C   UNL     1       2.037  11.507  18.400  0.00  0.00    +0.000 C 
ATOM     19  O   UNL     1       2.935  12.055  17.757  0.00  0.00    +0.000 OA
ATOM     20  N   UNL     1       1.219  12.199  19.325  0.00  0.00    +0.000 N 
BRANCH  20  21
ATOM     21  C   UNL     1       1.625  13.556  19.559  0.00  0.00    +0.000 A 
ATOM     22  C   UNL     1       2.511  13.828  20.609  0.00  0.00    +0.000 A 
ATOM     23  C   UNL     1       2.896  15.138  20.923  0.00  0.00    +0.000 A 
ATOM     24  C   UNL     1       2.344  16.163  20.151  0.00  0.00    +0.000 A 
ATOM     25  N   UNL     1       2.479  17.527  20.213  0.00  0.00    +0.000 N 
ATOM     26  N   UNL     1       1.776  18.191  19.279  0.00  0.00    +0.000 NA
ATOM     27  C   UNL     1       1.142  17.219  18.619  0.00  0.00    +0.000 A 
ATOM     28  C   UNL     1       1.449  15.930  19.111  0.00  0.00    +0.000 A 
ATOM     29  C   UNL     1       1.067  14.604  18.812  0.00  0.00    +0.000 A 
ATOM     30  H   UNL     1       3.029  18.064  20.872  0.00  0.00    +0.000 HD
ENDBRANCH  20  21
BRANCH  18  32
ATOM     31  C   UNL     1       1.676   8.932  17.878  0.00  0.00    +0.000 C 
ATOM     32  C   UNL     1       1.826  10.109  18.088  0.00  0.00    +0.000 C 
ENDBRANCH  18  32
ENDBRANCH   1  20
TORSDOF 6
ENDMDL
MODEL 9
REMARK VINA RESULT:      -7.2      6.677     10.246
REMARK  Name = 
REMARK  6 active torsions:
REMARK  status: ('A' for Active; 'I' for Inactive)
REMARK    1  A    between atoms: C_2  and  C_3
REMARK    2  A    between atoms: N_5  and  C_6
REMARK    3  A    between atoms: N_5  and  C_15
REMARK    4  A    between atoms: C_15  and  C_16
REMARK    5  A    between atoms: N_18  and  C_19
REMARK    6  A    between atoms: C_19  and  C_20
REMARK                            x       y       z     vdW  Elec       q    Type
REMARK                         _______ _______ _______ _____ _____    ______ ____
ROOT
ATOM      1  C   UNL     1      -0.469  11.294  20.075  0.00  0.00    +0.000 C 
ATOM      2  C   UNL     1      -1.492  12.395  19.682  0.00  0.00    +0.000 C 
ATOM      3  C   UNL     1      -1.891  12.398  18.216  0.00  0.00    +0.000 C 
ATOM      4  O   UNL     1      -2.367  11.123  17.821  0.00  0.00    +0.000 OA
ATOM      5  C   UNL     1      -1.365  10.128  17.961  0.00  0.00    +0.000 C 
ATOM      6  C   UNL     1      -0.983   9.973  19.426  0.00  0.00    +0.000 C 
ENDROOT
BRANCH   1   7
ATOM      7  C   UNL     1       0.936  11.743  19.532  0.00  0.00    +0.000 C 
ATOM      8  O   UNL     1       1.621  11.004  18.822  0.00  0.00    +0.000 OA
ATOM      9  N   UNL     1       1.327  13.040  19.779  0.00  0.00    +0.000 N 
ATOM     10  H   UNL     1       0.736  13.668  20.302  0.00  0.00    +0.000 HD
BRANCH   9  11
ATOM     11  C   UNL     1       2.586  13.583  19.299  0.00  0.00    +0.000 C 
BRANCH  11  12
ATOM     12  C   UNL     1       2.385  14.924  18.636  0.00  0.00    +0.000 A 
ATOM     13  C   UNL     1       3.336  15.434  17.736  0.00  0.00    +0.000 A 
ATOM     14  C   UNL     1       3.160  16.691  17.154  0.00  0.00    +0.000 A 
ATOM     15  C   UNL     1       2.026  17.445  17.447  0.00  0.00    +0.000 A 
ATOM     16  C   UNL     1       1.062  16.939  18.317  0.00  0.00    +0.000 A 
ATOM     17  C   UNL     1       1.241  15.688  18.910  0.00  0.00    +0.000 A 
ENDBRANCH  11  12
ENDBRANCH   9  11
ENDBRANCH   1   7
BRANCH   1  20
ATOM     18  C   UNL     1       0.211  10.040  22.310  0.00  0.00    +0.000 C 
ATOM     19  O   UNL     1       0.183   9.963  23.540  0.00  0.00    +0.000 OA
ATOM     20  N   UNL     1      -0.339  11.129  21.593  0.00  0.00    +0.000 N 
BRANCH  20  21
ATOM     21  C   UNL     1      -1.063  12.059  22.412  0.00  0.00    +0.000 A 
ATOM     22  C   UNL     1      -2.359  11.731  22.830  0.00  0.00    +0.000 A 
ATOM     23  C   UNL     1      -3.136  12.623  23.582  0.00  0.00    +0.000 A 
ATOM     24  C   UNL     1      -2.565  13.862  23.883  0.00  0.00    +0.000 A 
ATOM     25  N   UNL     1      -3.054  14.954  24.554  0.00  0.00    +0.000 N 
ATOM     26  N   UNL     1      -2.187  15.978  24.642  0.00  0.00    +0.000 NA
ATOM     27  C   UNL     1      -1.119  15.538  23.972  0.00  0.00    +0.000 A 
ATOM     28  C   UNL     1      -1.286  14.227  23.470  0.00  0.00    +0.000 A 
ATOM     29  C   UNL     1      -0.519  13.319  22.709  0.00  0.00    +0.000 A 
ATOM     30  H   UNL     1      -3.971  15.064  24.969  0.00  0.00    +0.000 HD
ENDBRANCH  20  21
BRANCH  18  32
ATOM     31  C   UNL     1       1.484   8.033  21.134  0.00  0.00    +0.000 C 
ATOM     32  C   UNL     1       0.916   8.964  21.645  0.00  0.00    +0.000 C 
ENDBRANCH  18  32
ENDBRANCH   1  20
TORSDOF 6
ENDMDL
