MODEL 1
REMARK VINA RESULT:      -5.8      0.000      0.000
REMARK  Name = 
REMARK  1 active torsions:
REMARK  status: ('A' for Active; 'I' for Inactive)
REMARK    1  A    between atoms: C_1  and  N_2
REMARK                            x       y       z     vdW  Elec       q    Type
REMARK                         _______ _______ _______ _____ _____    ______ ____
ROOT
ATOM      1  C   UNL     1       4.068   4.178  16.613  0.00  0.00    +0.000 C 
ATOM      2  N   UNL     1       3.569   3.428  17.745  0.00  0.00    +0.000 N 
ATOM      3  C   UNL     1       4.359   2.332  18.297  0.00  0.00    +0.000 C 
ATOM      4  C   UNL     1       4.283   2.286  19.807  0.00  0.00    +0.000 C 
ATOM      5  O   UNL     1       5.108   1.806  20.570  0.00  0.00    +0.000 OA
ATOM      6  N   UNL     1       3.015   2.652  20.274  0.00  0.00    +0.000 N 
ATOM      7  C   UNL     1       2.549   2.580  21.570  0.00  0.00    +0.000 A 
ATOM      8  C   UNL     1       1.220   2.935  21.580  0.00  0.00    +0.000 A 
ATOM      9  C   UNL     1       0.867   3.278  20.256  0.00  0.00    +0.000 A 
ATOM     10  C   UNL     1       2.007   3.161  19.479  0.00  0.00    +0.000 A 
ATOM     11  C   UNL     1       2.239   3.576  18.118  0.00  0.00    +0.000 C 
ATOM     12  O   UNL     1       1.399   4.121  17.415  0.00  0.00    +0.000 OA
ENDROOT
TORSDOF 0
ENDMDL
MODEL 2
REMARK VINA RESULT:      -5.8      2.256      4.435
REMARK  Name = 
REMARK  1 active torsions:
REMARK  status: ('A' for Active; 'I' for Inactive)
REMARK    1  A    between atoms: C_1  and  N_2
REMARK                            x       y       z     vdW  Elec       q    Type
REMARK                         _______ _______ _______ _____ _____    ______ ____
ROOT
ATOM      1  C   UNL     1       2.440   3.118  19.566  0.00  0.00    +0.000 C 
ATOM      2  N   UNL     1       3.453   3.861  18.848  0.00  0.00    +0.000 N 
ATOM      3  C   UNL     1       4.242   4.873  19.542  0.00  0.00    +0.000 C 
ATOM      4  C   UNL     1       5.686   4.869  19.093  0.00  0.00    +0.000 C 
ATOM      5  O   UNL     1       6.655   5.258  19.729  0.00  0.00    +0.000 OA
ATOM      6  N   UNL     1       5.806   4.580  17.729  0.00  0.00    +0.000 N 
ATOM      7  C   UNL     1       6.949   4.637  16.959  0.00  0.00    +0.000 A 
ATOM      8  C   UNL     1       6.611   4.383  15.650  0.00  0.00    +0.000 A 
ATOM      9  C   UNL     1       5.224   4.116  15.618  0.00  0.00    +0.000 A 
ATOM     10  C   UNL     1       4.760   4.177  16.922  0.00  0.00    +0.000 A 
ATOM     11  C   UNL     1       3.478   3.797  17.460  0.00  0.00    +0.000 C 
ATOM     12  O   UNL     1       2.560   3.343  16.791  0.00  0.00    +0.000 OA
ENDROOT
TORSDOF 0
ENDMDL
MODEL 3
REMARK VINA RESULT:      -5.7      3.407      5.573
REMARK  Name = 
REMARK  1 active torsions:
REMARK  status: ('A' for Active; 'I' for Inactive)
REMARK    1  A    between atoms: C_1  and  N_2
REMARK                            x       y       z     vdW  Elec       q    Type
REMARK                         _______ _______ _______ _____ _____    ______ ____
ROOT
ATOM      1  C   UNL     1       3.278   3.535  17.852  0.00  0.00    +0.000 C 
ATOM      2  N   UNL     1       4.516   4.219  17.549  0.00  0.00    +0.000 N 
ATOM      3  C   UNL     1       4.811   4.616  16.176  0.00  0.00    +0.000 C 
ATOM      4  C   UNL     1       5.488   5.967  16.112  0.00  0.00    +0.000 C 
ATOM      5  O   UNL     1       5.483   6.747  15.172  0.00  0.00    +0.000 OA
ATOM      6  N   UNL     1       6.360   6.162  17.189  0.00  0.00    +0.000 N 
ATOM      7  C   UNL     1       7.244   7.205  17.371  0.00  0.00    +0.000 A 
ATOM      8  C   UNL     1       7.986   6.961  18.504  0.00  0.00    +0.000 A 
ATOM      9  C   UNL     1       7.514   5.753  19.063  0.00  0.00    +0.000 A 
ATOM     10  C   UNL     1       6.465   5.312  18.272  0.00  0.00    +0.000 A 
ATOM     11  C   UNL     1       5.522   4.248  18.507  0.00  0.00    +0.000 C 
ATOM     12  O   UNL     1       5.523   3.537  19.503  0.00  0.00    +0.000 OA
ENDROOT
TORSDOF 0
ENDMDL
MODEL 4
REMARK VINA RESULT:      -5.7      1.164      1.164
REMARK  Name = 
REMARK  1 active torsions:
REMARK  status: ('A' for Active; 'I' for Inactive)
REMARK    1  A    between atoms: C_1  and  N_2
REMARK                            x       y       z     vdW  Elec       q    Type
REMARK                         _______ _______ _______ _____ _____    ______ ____
ROOT
ATOM      1  C   UNL     1       4.636   5.944  17.568  0.00  0.00    +0.000 C 
ATOM      2  N   UNL     1       3.982   4.844  18.244  0.00  0.00    +0.000 N 
ATOM      3  C   UNL     1       4.660   3.557  18.362  0.00  0.00    +0.000 C 
ATOM      4  C   UNL     1       4.412   2.910  19.706  0.00  0.00    +0.000 C 
ATOM      5  O   UNL     1       5.126   2.095  20.271  0.00  0.00    +0.000 OA
ATOM      6  N   UNL     1       3.116   3.160  20.172  0.00  0.00    +0.000 N 
ATOM      7  C   UNL     1       2.506   2.609  21.280  0.00  0.00    +0.000 A 
ATOM      8  C   UNL     1       1.199   3.039  21.321  0.00  0.00    +0.000 A 
ATOM      9  C   UNL     1       1.011   3.918  20.231  0.00  0.00    +0.000 A 
ATOM     10  C   UNL     1       2.226   4.030  19.574  0.00  0.00    +0.000 A 
ATOM     11  C   UNL     1       2.626   4.940  18.530  0.00  0.00    +0.000 C 
ATOM     12  O   UNL     1       1.894   5.791  18.044  0.00  0.00    +0.000 OA
ENDROOT
TORSDOF 0
ENDMDL
MODEL 5
REMARK VINA RESULT:      -5.5      1.708      1.844
REMARK  Name = 
REMARK  1 active torsions:
REMARK  status: ('A' for Active; 'I' for Inactive)
REMARK    1  A    between atoms: C_1  and  N_2
REMARK                            x       y       z     vdW  Elec       q    Type
REMARK                         _______ _______ _______ _____ _____    ______ ____
ROOT
ATOM      1  C   UNL     1       4.579   5.902  17.105  0.00  0.00    +0.000 C 
ATOM      2  N   UNL     1       3.636   4.964  17.676  0.00  0.00    +0.000 N 
ATOM      3  C   UNL     1       3.531   3.616  17.128  0.00  0.00    +0.000 C 
ATOM      4  C   UNL     1       3.325   2.581  18.212  0.00  0.00    +0.000 C 
ATOM      5  O   UNL     1       3.612   1.394  18.159  0.00  0.00    +0.000 OA
ATOM      6  N   UNL     1       2.527   3.070  19.253  0.00  0.00    +0.000 N 
ATOM      7  C   UNL     1       2.020   2.361  20.321  0.00  0.00    +0.000 A 
ATOM      8  C   UNL     1       1.201   3.191  21.052  0.00  0.00    +0.000 A 
ATOM      9  C   UNL     1       1.241   4.464  20.441  0.00  0.00    +0.000 A 
ATOM     10  C   UNL     1       2.118   4.384  19.371  0.00  0.00    +0.000 A 
ATOM     11  C   UNL     1       2.662   5.434  18.548  0.00  0.00    +0.000 C 
ATOM     12  O   UNL     1       2.399   6.621  18.687  0.00  0.00    +0.000 OA
ENDROOT
TORSDOF 0
ENDMDL
MODEL 6
REMARK VINA RESULT:      -5.5      2.610      4.954
REMARK  Name = 
REMARK  1 active torsions:
REMARK  status: ('A' for Active; 'I' for Inactive)
REMARK    1  A    between atoms: C_1  and  N_2
REMARK                            x       y       z     vdW  Elec       q    Type
REMARK                         _______ _______ _______ _____ _____    ______ ____
ROOT
ATOM      1  C   UNL     1       3.708   2.946  19.550  0.00  0.00    +0.000 C 
ATOM      2  N   UNL     1       4.485   3.744  18.627  0.00  0.00    +0.000 N 
ATOM      3  C   UNL     1       5.489   4.674  19.136  0.00  0.00    +0.000 C 
ATOM      4  C   UNL     1       6.728   4.697  18.269  0.00  0.00    +0.000 C 
ATOM      5  O   UNL     1       7.858   5.010  18.612  0.00  0.00    +0.000 OA
ATOM      6  N   UNL     1       6.416   4.545  16.913  0.00  0.00    +0.000 N 
ATOM      7  C   UNL     1       7.273   4.665  15.840  0.00  0.00    +0.000 A 
ATOM      8  C   UNL     1       6.544   4.545  14.679  0.00  0.00    +0.000 A 
ATOM      9  C   UNL     1       5.204   4.298  15.049  0.00  0.00    +0.000 A 
ATOM     10  C   UNL     1       5.159   4.236  16.432  0.00  0.00    +0.000 A 
ATOM     11  C   UNL     1       4.086   3.818  17.299  0.00  0.00    +0.000 C 
ATOM     12  O   UNL     1       2.991   3.443  16.903  0.00  0.00    +0.000 OA
ENDROOT
TORSDOF 0
ENDMDL
MODEL 7
REMARK VINA RESULT:      -5.5      1.310      2.994
REMARK  Name = 
REMARK  1 active torsions:
REMARK  status: ('A' for Active; 'I' for Inactive)
REMARK    1  A    between atoms: C_1  and  N_2
REMARK                            x       y       z     vdW  Elec       q    Type
REMARK                         _______ _______ _______ _____ _____    ______ ____
ROOT
ATOM      1  C   UNL     1       5.567   4.228  17.074  0.00  0.00    +0.000 C 
ATOM      2  N   UNL     1       4.380   4.256  17.901  0.00  0.00    +0.000 N 
ATOM      3  C   UNL     1       3.196   4.979  17.449  0.00  0.00    +0.000 C 
ATOM      4  C   UNL     1       1.920   4.246  17.798  0.00  0.00    +0.000 C 
ATOM      5  O   UNL     1       0.841   4.336  17.230  0.00  0.00    +0.000 OA
ATOM      6  N   UNL     1       2.017   3.593  19.032  0.00  0.00    +0.000 N 
ATOM      7  C   UNL     1       1.007   2.958  19.724  0.00  0.00    +0.000 A 
ATOM      8  C   UNL     1       1.499   2.542  20.940  0.00  0.00    +0.000 A 
ATOM      9  C   UNL     1       2.867   2.891  20.980  0.00  0.00    +0.000 A 
ATOM     10  C   UNL     1       3.182   3.479  19.765  0.00  0.00    +0.000 A 
ATOM     11  C   UNL     1       4.469   3.832  19.221  0.00  0.00    +0.000 C 
ATOM     12  O   UNL     1       5.531   3.655  19.801  0.00  0.00    +0.000 OA
ENDROOT
TORSDOF 0
ENDMDL
MODEL 8
REMARK VINA RESULT:      -5.4      1.399      3.308
REMARK  Name = 
REMARK  1 active torsions:
REMARK  status: ('A' for Active; 'I' for Inactive)
REMARK    1  A    between atoms: C_1  and  N_2
REMARK                            x       y       z     vdW  Elec       q    Type
REMARK                         _______ _______ _______ _____ _____    ______ ____
ROOT
ATOM      1  C   UNL     1       0.693   2.115  18.731  0.00  0.00    +0.000 C 
ATOM      2  N   UNL     1       1.892   2.910  18.889  0.00  0.00    +0.000 N 
ATOM      3  C   UNL     1       2.741   2.721  20.060  0.00  0.00    +0.000 C 
ATOM      4  C   UNL     1       4.210   2.816  19.713  0.00  0.00    +0.000 C 
ATOM      5  O   UNL     1       5.143   2.312  20.320  0.00  0.00    +0.000 OA
ATOM      6  N   UNL     1       4.448   3.771  18.717  0.00  0.00    +0.000 N 
ATOM      7  C   UNL     1       5.671   4.222  18.266  0.00  0.00    +0.000 A 
ATOM      8  C   UNL     1       5.459   5.235  17.360  0.00  0.00    +0.000 A 
ATOM      9  C   UNL     1       4.062   5.383  17.214  0.00  0.00    +0.000 A 
ATOM     10  C   UNL     1       3.458   4.424  18.010  0.00  0.00    +0.000 A 
ATOM     11  C   UNL     1       2.076   4.020  18.074  0.00  0.00    +0.000 C 
ATOM     12  O   UNL     1       1.186   4.509  17.391  0.00  0.00    +0.000 OA
ENDROOT
TORSDOF 0
ENDMDL
MODEL 9
REMARK VINA RESULT:      -5.3      1.106      4.304
REMARK  Name = 
REMARK  1 active torsions:
REMARK  status: ('A' for Active; 'I' for Inactive)
REMARK    1  A    between atoms: C_1  and  N_2
REMARK                            x       y       z     vdW  Elec       q    Type
REMARK                         _______ _______ _______ _____ _____    ______ ____
ROOT
ATOM      1  C   UNL     1       1.388   2.511  21.588  0.00  0.00    +0.000 C 
ATOM      2  N   UNL     1       2.029   2.760  20.315  0.00  0.00    +0.000 N 
ATOM      3  C   UNL     1       1.244   2.721  19.086  0.00  0.00    +0.000 C 
ATOM      4  C   UNL     1       1.669   3.795  18.110  0.00  0.00    +0.000 C 
ATOM      5  O   UNL     1       0.989   4.298  17.228  0.00  0.00    +0.000 OA
ATOM      6  N   UNL     1       3.051   4.017  18.152  0.00  0.00    +0.000 N 
ATOM      7  C   UNL     1       3.796   4.811  17.305  0.00  0.00    +0.000 A 
ATOM      8  C   UNL     1       5.126   4.668  17.626  0.00  0.00    +0.000 A 
ATOM      9  C   UNL     1       5.200   3.795  18.733  0.00  0.00    +0.000 A 
ATOM     10  C   UNL     1       3.903   3.458  19.084  0.00  0.00    +0.000 A 
ATOM     11  C   UNL     1       3.417   2.762  20.248  0.00  0.00    +0.000 C 
ATOM     12  O   UNL     1       4.134   2.339  21.144  0.00  0.00    +0.000 OA
ENDROOT
TORSDOF 0
ENDMDL
