MODEL 1
REMARK VINA RESULT:      -7.5      0.000      0.000
REMARK  Name = 
REMARK  4 active torsions:
REMARK  status: ('A' for Active; 'I' for Inactive)
REMARK    1  A    between atoms: N_2  and  C_4
REMARK    2  A    between atoms: C_7  and  C_8
REMARK    3  A    between atoms: N_19  and  C_20
REMARK    4  A    between atoms: C_20  and  C_21
REMARK                            x       y       z     vdW  Elec       q    Type
REMARK                         _______ _______ _______ _____ _____    ______ ____
ROOT
ATOM      1  C   UNL     1      -2.761  11.538  18.776  0.00  0.00    +0.000 A 
ATOM      2  S   UNL     1      -3.240  10.305  17.673  0.00  0.00    +0.000 S 
ATOM      3  C   UNL     1      -1.651   9.706  17.531  0.00  0.00    +0.000 A 
ATOM      4  C   UNL     1      -0.745  10.448  18.260  0.00  0.00    +0.000 A 
ATOM      5  C   UNL     1      -1.379  11.592  18.868  0.00  0.00    +0.000 A 
ATOM      6  C   UNL     1      -0.515  12.516  19.667  0.00  0.00    +0.000 C 
ATOM      7  C   UNL     1       0.945  12.434  19.196  0.00  0.00    +0.000 C 
ATOM      8  O   UNL     1       1.522  11.128  19.077  0.00  0.00    +0.000 OA
ATOM      9  C   UNL     1       0.664  10.024  18.695  0.00  0.00    +0.000 C 
ATOM     10  C   UNL     1       0.427   9.220  19.985  0.00  0.00    +0.000 C 
ATOM     11  C   UNL     1       1.521   8.273  20.426  0.00  0.00    +0.000 C 
ATOM     12  N   UNL     1       2.272   7.570  19.401  0.00  0.00    +0.000 NA
ATOM     13  C   UNL     1       2.586   8.369  18.228  0.00  0.00    +0.000 C 
ATOM     14  C   UNL     1       1.414   9.176  17.647  0.00  0.00    +0.000 C 
ENDROOT
BRANCH   1  18
ATOM     15  C   UNL     1      -5.853  13.729  20.809  0.00  0.00    +0.000 A 
ATOM     16  C   UNL     1      -6.132  13.130  19.574  0.00  0.00    +0.000 A 
ATOM     17  C   UNL     1      -5.117  12.409  18.921  0.00  0.00    +0.000 A 
ATOM     18  C   UNL     1      -3.813  12.318  19.454  0.00  0.00    +0.000 A 
ATOM     19  C   UNL     1      -3.575  12.929  20.694  0.00  0.00    +0.000 A 
ATOM     20  C   UNL     1      -4.578  13.635  21.370  0.00  0.00    +0.000 A 
BRANCH  15  22
ATOM     21  O   UNL     1      -6.915  15.723  21.387  0.00  0.00    +0.000 OA
ATOM     22  N   UNL     1      -6.910  14.489  21.496  0.00  0.00    +0.000 N 
ATOM     23  O   UNL     1      -7.745  13.842  22.152  0.00  0.00    +0.000 OA
ENDBRANCH  15  22
ENDBRANCH   1  18
BRANCH  12  24
ATOM     24  C   UNL     1       2.043   6.128  19.230  0.00  0.00    +0.000 C 
BRANCH  24  25
ATOM     25  C   UNL     1       3.281   5.382  18.738  0.00  0.00    +0.000 A 
ATOM     26  C   UNL     1       4.490   5.489  19.459  0.00  0.00    +0.000 A 
ATOM     27  C   UNL     1       5.704   5.111  18.883  0.00  0.00    +0.000 A 
ATOM     28  C   UNL     1       5.724   4.531  17.617  0.00  0.00    +0.000 A 
ATOM     29  C   UNL     1       4.525   4.312  16.936  0.00  0.00    +0.000 A 
ATOM     30  C   UNL     1       3.313   4.743  17.488  0.00  0.00    +0.000 A 
ENDBRANCH  24  25
ENDBRANCH  12  24
TORSDOF 4
ENDMDL
MODEL 2
REMARK VINA RESULT:      -7.4      0.473      1.129
REMARK  Name = 
REMARK  4 active torsions:
REMARK  status: ('A' for Active; 'I' for Inactive)
REMARK    1  A    between atoms: N_2  and  C_4
REMARK    2  A    between atoms: C_7  and  C_8
REMARK    3  A    between atoms: N_19  and  C_20
REMARK    4  A    between atoms: C_20  and  C_21
REMARK                            x       y       z     vdW  Elec       q    Type
REMARK                         _______ _______ _______ _____ _____    ______ ____
ROOT
ATOM      1  C   UNL     1      -3.034  11.499  18.734  0.00  0.00    +0.000 A 
ATOM      2  S   UNL     1      -3.463  10.183  17.710  0.00  0.00    +0.000 S 
ATOM      3  C   UNL     1      -1.857   9.620  17.630  0.00  0.00    +0.000 A 
ATOM      4  C   UNL     1      -0.981  10.434  18.320  0.00  0.00    +0.000 A 
ATOM      5  C   UNL     1      -1.655  11.598  18.841  0.00  0.00    +0.000 A 
ATOM      6  C   UNL     1      -0.829  12.597  19.588  0.00  0.00    +0.000 C 
ATOM      7  C   UNL     1       0.641  12.523  19.143  0.00  0.00    +0.000 C 
ATOM      8  O   UNL     1       1.254  11.230  19.119  0.00  0.00    +0.000 OA
ATOM      9  C   UNL     1       0.432  10.079  18.801  0.00  0.00    +0.000 C 
ATOM     10  C   UNL     1       0.197   9.357  20.139  0.00  0.00    +0.000 C 
ATOM     11  C   UNL     1       1.308   8.471  20.656  0.00  0.00    +0.000 C 
ATOM     12  N   UNL     1       2.094   7.723  19.691  0.00  0.00    +0.000 NA
ATOM     13  C   UNL     1       2.404   8.451  18.471  0.00  0.00    +0.000 C 
ATOM     14  C   UNL     1       1.220   9.184  17.823  0.00  0.00    +0.000 C 
ENDROOT
BRANCH   1  18
ATOM     15  C   UNL     1      -6.211  13.737  20.577  0.00  0.00    +0.000 A 
ATOM     16  C   UNL     1      -6.467  13.015  19.404  0.00  0.00    +0.000 A 
ATOM     17  C   UNL     1      -5.424  12.281  18.813  0.00  0.00    +0.000 A 
ATOM     18  C   UNL     1      -4.117  12.294  19.345  0.00  0.00    +0.000 A 
ATOM     19  C   UNL     1      -3.902  13.026  20.522  0.00  0.00    +0.000 A 
ATOM     20  C   UNL     1      -4.932  13.748  21.136  0.00  0.00    +0.000 A 
BRANCH  15  22
ATOM     21  O   UNL     1      -7.915  14.006  22.146  0.00  0.00    +0.000 OA
ATOM     22  N   UNL     1      -7.298  14.511  21.199  0.00  0.00    +0.000 N 
ATOM     23  O   UNL     1      -7.535  15.639  20.732  0.00  0.00    +0.000 OA
ENDBRANCH  15  22
ENDBRANCH   1  18
BRANCH  12  24
ATOM     24  C   UNL     1       1.906   6.266  19.614  0.00  0.00    +0.000 C 
BRANCH  24  25
ATOM     25  C   UNL     1       3.000   5.566  18.813  0.00  0.00    +0.000 A 
ATOM     26  C   UNL     1       2.644   4.726  17.735  0.00  0.00    +0.000 A 
ATOM     27  C   UNL     1       3.561   3.822  17.198  0.00  0.00    +0.000 A 
ATOM     28  C   UNL     1       4.875   3.805  17.659  0.00  0.00    +0.000 A 
ATOM     29  C   UNL     1       5.275   4.708  18.645  0.00  0.00    +0.000 A 
ATOM     30  C   UNL     1       4.342   5.576  19.226  0.00  0.00    +0.000 A 
ENDBRANCH  24  25
ENDBRANCH  12  24
TORSDOF 4
ENDMDL
MODEL 3
REMARK VINA RESULT:      -7.4      3.079     10.119
REMARK  Name = 
REMARK  4 active torsions:
REMARK  status: ('A' for Active; 'I' for Inactive)
REMARK    1  A    between atoms: N_2  and  C_4
REMARK    2  A    between atoms: C_7  and  C_8
REMARK    3  A    between atoms: N_19  and  C_20
REMARK    4  A    between atoms: C_20  and  C_21
REMARK                            x       y       z     vdW  Elec       q    Type
REMARK                         _______ _______ _______ _____ _____    ______ ____
ROOT
ATOM      1  C   UNL     1       1.789   8.303  19.765  0.00  0.00    +0.000 A 
ATOM      2  S   UNL     1       1.168   8.061  21.352  0.00  0.00    +0.000 S 
ATOM      3  C   UNL     1       0.401   9.582  21.368  0.00  0.00    +0.000 A 
ATOM      4  C   UNL     1       0.642  10.303  20.216  0.00  0.00    +0.000 A 
ATOM      5  C   UNL     1       1.563   9.607  19.351  0.00  0.00    +0.000 A 
ATOM      6  C   UNL     1       1.952  10.280  18.073  0.00  0.00    +0.000 C 
ATOM      7  C   UNL     1       1.801  11.804  18.196  0.00  0.00    +0.000 C 
ATOM      8  O   UNL     1       0.558  12.300  18.708  0.00  0.00    +0.000 OA
ATOM      9  C   UNL     1      -0.153  11.505  19.690  0.00  0.00    +0.000 C 
ATOM     10  C   UNL     1      -1.329  10.868  18.932  0.00  0.00    +0.000 C 
ATOM     11  C   UNL     1      -2.548  11.730  18.686  0.00  0.00    +0.000 C 
ATOM     12  N   UNL     1      -2.930  12.683  19.712  0.00  0.00    +0.000 NA
ATOM     13  C   UNL     1      -1.815  13.362  20.352  0.00  0.00    +0.000 C 
ATOM     14  C   UNL     1      -0.659  12.454  20.796  0.00  0.00    +0.000 C 
ENDROOT
BRANCH   1  18
ATOM     15  C   UNL     1       3.570   4.979  17.697  0.00  0.00    +0.000 A 
ATOM     16  C   UNL     1       2.688   4.737  18.758  0.00  0.00    +0.000 A 
ATOM     17  C   UNL     1       2.105   5.830  19.422  0.00  0.00    +0.000 A 
ATOM     18  C   UNL     1       2.426   7.162  19.080  0.00  0.00    +0.000 A 
ATOM     19  C   UNL     1       3.310   7.361  18.010  0.00  0.00    +0.000 A 
ATOM     20  C   UNL     1       3.886   6.285  17.323  0.00  0.00    +0.000 A 
BRANCH  15  22
ATOM     21  O   UNL     1       4.001   2.701  17.451  0.00  0.00    +0.000 OA
ATOM     22  N   UNL     1       4.188   3.838  16.999  0.00  0.00    +0.000 N 
ATOM     23  O   UNL     1       4.865   4.087  15.987  0.00  0.00    +0.000 OA
ENDBRANCH  15  22
ENDBRANCH   1  18
BRANCH  12  24
ATOM     24  C   UNL     1      -4.138  12.411  20.506  0.00  0.00    +0.000 C 
BRANCH  24  25
ATOM     25  C   UNL     1      -5.428  12.622  19.720  0.00  0.00    +0.000 A 
ATOM     26  C   UNL     1      -6.036  11.524  19.072  0.00  0.00    +0.000 A 
ATOM     27  C   UNL     1      -7.006  11.719  18.088  0.00  0.00    +0.000 A 
ATOM     28  C   UNL     1      -7.457  13.005  17.799  0.00  0.00    +0.000 A 
ATOM     29  C   UNL     1      -6.949  14.093  18.511  0.00  0.00    +0.000 A 
ATOM     30  C   UNL     1      -5.935  13.905  19.458  0.00  0.00    +0.000 A 
ENDBRANCH  24  25
ENDBRANCH  12  24
TORSDOF 4
ENDMDL
MODEL 4
REMARK VINA RESULT:      -7.4      3.027     10.360
REMARK  Name = 
REMARK  4 active torsions:
REMARK  status: ('A' for Active; 'I' for Inactive)
REMARK    1  A    between atoms: N_2  and  C_4
REMARK    2  A    between atoms: C_7  and  C_8
REMARK    3  A    between atoms: N_19  and  C_20
REMARK    4  A    between atoms: C_20  and  C_21
REMARK                            x       y       z     vdW  Elec       q    Type
REMARK                         _______ _______ _______ _____ _____    ______ ____
ROOT
ATOM      1  C   UNL     1       1.533   8.282  19.830  0.00  0.00    +0.000 A 
ATOM      2  S   UNL     1       0.582   7.845  21.198  0.00  0.00    +0.000 S 
ATOM      3  C   UNL     1      -0.410   9.222  21.047  0.00  0.00    +0.000 A 
ATOM      4  C   UNL     1      -0.012  10.044  20.012  0.00  0.00    +0.000 A 
ATOM      5  C   UNL     1       1.201   9.558  19.400  0.00  0.00    +0.000 A 
ATOM      6  C   UNL     1       1.780  10.364  18.280  0.00  0.00    +0.000 C 
ATOM      7  C   UNL     1       1.347  11.835  18.393  0.00  0.00    +0.000 C 
ATOM      8  O   UNL     1      -0.049  12.094  18.576  0.00  0.00    +0.000 OA
ATOM      9  C   UNL     1      -0.840  11.137  19.324  0.00  0.00    +0.000 C 
ATOM     10  C   UNL     1      -1.663  10.371  18.274  0.00  0.00    +0.000 C 
ATOM     11  C   UNL     1      -2.908  11.044  17.740  0.00  0.00    +0.000 C 
ATOM     12  N   UNL     1      -3.691  11.858  18.652  0.00  0.00    +0.000 NA
ATOM     13  C   UNL     1      -2.904  12.662  19.572  0.00  0.00    +0.000 C 
ATOM     14  C   UNL     1      -1.760  11.921  20.282  0.00  0.00    +0.000 C 
ENDROOT
BRANCH   1  18
ATOM     15  C   UNL     1       4.289   5.380  18.256  0.00  0.00    +0.000 A 
ATOM     16  C   UNL     1       3.672   5.145  19.492  0.00  0.00    +0.000 A 
ATOM     17  C   UNL     1       2.767   6.096  19.995  0.00  0.00    +0.000 A 
ATOM     18  C   UNL     1       2.504   7.302  19.309  0.00  0.00    +0.000 A 
ATOM     19  C   UNL     1       3.139   7.498  18.074  0.00  0.00    +0.000 A 
ATOM     20  C   UNL     1       4.029   6.553  17.547  0.00  0.00    +0.000 A 
BRANCH  15  22
ATOM     21  O   UNL     1       5.073   3.969  16.574  0.00  0.00    +0.000 OA
ATOM     22  N   UNL     1       5.241   4.390  17.727  0.00  0.00    +0.000 N 
ATOM     23  O   UNL     1       6.168   4.031  18.474  0.00  0.00    +0.000 OA
ENDBRANCH  15  22
ENDBRANCH   1  18
BRANCH  12  24
ATOM     24  C   UNL     1      -4.996  11.349  19.101  0.00  0.00    +0.000 C 
BRANCH  24  25
ATOM     25  C   UNL     1      -6.162  12.233  18.669  0.00  0.00    +0.000 A 
ATOM     26  C   UNL     1      -6.279  12.619  17.316  0.00  0.00    +0.000 A 
ATOM     27  C   UNL     1      -7.112  13.673  16.940  0.00  0.00    +0.000 A 
ATOM     28  C   UNL     1      -7.917  14.299  17.890  0.00  0.00    +0.000 A 
ATOM     29  C   UNL     1      -7.899  13.854  19.212  0.00  0.00    +0.000 A 
ATOM     30  C   UNL     1      -7.021  12.835  19.603  0.00  0.00    +0.000 A 
ENDBRANCH  24  25
ENDBRANCH  12  24
TORSDOF 4
ENDMDL
MODEL 5
REMARK VINA RESULT:      -7.4      2.999      9.742
REMARK  Name = 
REMARK  4 active torsions:
REMARK  status: ('A' for Active; 'I' for Inactive)
REMARK    1  A    between atoms: N_2  and  C_4
REMARK    2  A    between atoms: C_7  and  C_8
REMARK    3  A    between atoms: N_19  and  C_20
REMARK    4  A    between atoms: C_20  and  C_21
REMARK                            x       y       z     vdW  Elec       q    Type
REMARK                         _______ _______ _______ _____ _____    ______ ____
ROOT
ATOM      1  C   UNL     1      -1.549  11.670  19.589  0.00  0.00    +0.000 A 
ATOM      2  S   UNL     1      -1.231  12.925  20.724  0.00  0.00    +0.000 S 
ATOM      3  C   UNL     1      -2.815  13.542  20.604  0.00  0.00    +0.000 A 
ATOM      4  C   UNL     1      -3.577  12.853  19.682  0.00  0.00    +0.000 A 
ATOM      5  C   UNL     1      -2.790  11.857  18.998  0.00  0.00    +0.000 A 
ATOM      6  C   UNL     1      -3.469  11.047  17.939  0.00  0.00    +0.000 C 
ATOM      7  C   UNL     1      -4.664  11.817  17.354  0.00  0.00    +0.000 C 
ATOM      8  O   UNL     1      -5.598  12.381  18.281  0.00  0.00    +0.000 OA
ATOM      9  C   UNL     1      -5.107  12.843  19.564  0.00  0.00    +0.000 C 
ATOM     10  C   UNL     1      -5.549  11.779  20.584  0.00  0.00    +0.000 C 
ATOM     11  C   UNL     1      -6.981  11.831  21.067  0.00  0.00    +0.000 C 
ATOM     12  N   UNL     1      -7.599  13.134  21.240  0.00  0.00    +0.000 NA
ATOM     13  C   UNL     1      -7.260  14.104  20.212  0.00  0.00    +0.000 C 
ATOM     14  C   UNL     1      -5.767  14.204  19.866  0.00  0.00    +0.000 C 
ENDROOT
BRANCH   1  18
ATOM     15  C   UNL     1       1.477   8.654  19.097  0.00  0.00    +0.000 A 
ATOM     16  C   UNL     1       1.020   9.361  17.977  0.00  0.00    +0.000 A 
ATOM     17  C   UNL     1       0.037  10.350  18.149  0.00  0.00    +0.000 A 
ATOM     18  C   UNL     1      -0.536  10.612  19.413  0.00  0.00    +0.000 A 
ATOM     19  C   UNL     1      -0.050   9.886  20.509  0.00  0.00    +0.000 A 
ATOM     20  C   UNL     1       0.943   8.910  20.361  0.00  0.00    +0.000 A 
BRANCH  15  22
ATOM     21  O   UNL     1       3.223   7.658  17.916  0.00  0.00    +0.000 OA
ATOM     22  N   UNL     1       2.504   7.613  18.923  0.00  0.00    +0.000 N 
ATOM     23  O   UNL     1       2.590   6.743  19.806  0.00  0.00    +0.000 OA
ENDBRANCH  15  22
ENDBRANCH   1  18
BRANCH  12  24
ATOM     24  C   UNL     1      -7.847  13.614  22.608  0.00  0.00    +0.000 C 
BRANCH  24  25
ATOM     25  C   UNL     1      -6.597  13.594  23.483  0.00  0.00    +0.000 A 
ATOM     26  C   UNL     1      -5.663  14.648  23.387  0.00  0.00    +0.000 A 
ATOM     27  C   UNL     1      -4.374  14.514  23.905  0.00  0.00    +0.000 A 
ATOM     28  C   UNL     1      -4.023  13.366  24.611  0.00  0.00    +0.000 A 
ATOM     29  C   UNL     1      -4.971  12.362  24.815  0.00  0.00    +0.000 A 
ATOM     30  C   UNL     1      -6.246  12.469  24.247  0.00  0.00    +0.000 A 
ENDBRANCH  24  25
ENDBRANCH  12  24
TORSDOF 4
ENDMDL
MODEL 6
REMARK VINA RESULT:      -7.3      3.279     10.233
REMARK  Name = 
REMARK  4 active torsions:
REMARK  status: ('A' for Active; 'I' for Inactive)
REMARK    1  A    between atoms: N_2  and  C_4
REMARK    2  A    between atoms: C_7  and  C_8
REMARK    3  A    between atoms: N_19  and  C_20
REMARK    4  A    between atoms: C_20  and  C_21
REMARK                            x       y       z     vdW  Elec       q    Type
REMARK                         _______ _______ _______ _____ _____    ______ ____
ROOT
ATOM      1  C   UNL     1       1.648   7.780  20.405  0.00  0.00    +0.000 A 
ATOM      2  S   UNL     1       1.036   8.076  21.988  0.00  0.00    +0.000 S 
ATOM      3  C   UNL     1       0.360   9.572  21.532  0.00  0.00    +0.000 A 
ATOM      4  C   UNL     1       0.627   9.888  20.215  0.00  0.00    +0.000 A 
ATOM      5  C   UNL     1       1.493   8.906  19.610  0.00  0.00    +0.000 A 
ATOM      6  C   UNL     1       1.902   9.129  18.188  0.00  0.00    +0.000 C 
ATOM      7  C   UNL     1       1.842  10.624  17.837  0.00  0.00    +0.000 C 
ATOM      8  O   UNL     1       0.638  11.327  18.166  0.00  0.00    +0.000 OA
ATOM      9  C   UNL     1      -0.104  10.917  19.342  0.00  0.00    +0.000 C 
ATOM     10  C   UNL     1      -1.327  10.150  18.812  0.00  0.00    +0.000 C 
ATOM     11  C   UNL     1      -2.496  10.967  18.308  0.00  0.00    +0.000 C 
ATOM     12  N   UNL     1      -2.807  12.210  18.990  0.00  0.00    +0.000 NA
ATOM     13  C   UNL     1      -1.644  12.984  19.394  0.00  0.00    +0.000 C 
ATOM     14  C   UNL     1      -0.537  12.188  20.101  0.00  0.00    +0.000 C 
ENDROOT
BRANCH   1  18
ATOM     15  C   UNL     1       3.327   3.899  19.624  0.00  0.00    +0.000 A 
ATOM     16  C   UNL     1       3.945   5.037  19.090  0.00  0.00    +0.000 A 
ATOM     17  C   UNL     1       3.393   6.302  19.357  0.00  0.00    +0.000 A 
ATOM     18  C   UNL     1       2.206   6.448  20.107  0.00  0.00    +0.000 A 
ATOM     19  C   UNL     1       1.619   5.285  20.626  0.00  0.00    +0.000 A 
ATOM     20  C   UNL     1       2.165   4.017  20.387  0.00  0.00    +0.000 A 
BRANCH  15  22
ATOM     21  O   UNL     1       4.893   2.211  19.985  0.00  0.00    +0.000 OA
ATOM     22  N   UNL     1       3.897   2.571  19.344  0.00  0.00    +0.000 N 
ATOM     23  O   UNL     1       3.340   1.882  18.472  0.00  0.00    +0.000 OA
ENDBRANCH  15  22
ENDBRANCH   1  18
BRANCH  12  24
ATOM     24  C   UNL     1      -4.016  12.268  19.824  0.00  0.00    +0.000 C 
BRANCH  24  25
ATOM     25  C   UNL     1      -5.229  12.819  19.079  0.00  0.00    +0.000 A 
ATOM     26  C   UNL     1      -6.086  13.736  19.725  0.00  0.00    +0.000 A 
ATOM     27  C   UNL     1      -7.360  14.005  19.222  0.00  0.00    +0.000 A 
ATOM     28  C   UNL     1      -7.766  13.438  18.016  0.00  0.00    +0.000 A 
ATOM     29  C   UNL     1      -6.888  12.619  17.305  0.00  0.00    +0.000 A 
ATOM     30  C   UNL     1      -5.632  12.303  17.836  0.00  0.00    +0.000 A 
ENDBRANCH  24  25
ENDBRANCH  12  24
TORSDOF 4
ENDMDL
MODEL 7
REMARK VINA RESULT:      -7.3      1.485      1.930
REMARK  Name = 
REMARK  4 active torsions:
REMARK  status: ('A' for Active; 'I' for Inactive)
REMARK    1  A    between atoms: N_2  and  C_4
REMARK    2  A    between atoms: C_7  and  C_8
REMARK    3  A    between atoms: N_19  and  C_20
REMARK    4  A    between atoms: C_20  and  C_21
REMARK                            x       y       z     vdW  Elec       q    Type
REMARK                         _______ _______ _______ _____ _____    ______ ____
ROOT
ATOM      1  C   UNL     1      -2.237  11.722  19.392  0.00  0.00    +0.000 A 
ATOM      2  S   UNL     1      -2.856  10.788  18.084  0.00  0.00    +0.000 S 
ATOM      3  C   UNL     1      -1.330  10.109  17.745  0.00  0.00    +0.000 A 
ATOM      4  C   UNL     1      -0.340  10.609  18.566  0.00  0.00    +0.000 A 
ATOM      5  C   UNL     1      -0.853  11.647  19.426  0.00  0.00    +0.000 A 
ATOM      6  C   UNL     1       0.112  12.314  20.354  0.00  0.00    +0.000 C 
ATOM      7  C   UNL     1       1.545  12.217  19.806  0.00  0.00    +0.000 C 
ATOM      8  O   UNL     1       2.002  10.924  19.393  0.00  0.00    +0.000 OA
ATOM      9  C   UNL     1       1.040   9.995  18.836  0.00  0.00    +0.000 C 
ATOM     10  C   UNL     1       0.775   8.960  19.943  0.00  0.00    +0.000 C 
ATOM     11  C   UNL     1       1.795   7.859  20.125  0.00  0.00    +0.000 C 
ATOM     12  N   UNL     1       2.450   7.329  18.943  0.00  0.00    +0.000 NA
ATOM     13  C   UNL     1       2.795   8.328  17.945  0.00  0.00    +0.000 C 
ATOM     14  C   UNL     1       1.680   9.328  17.601  0.00  0.00    +0.000 C 
ENDROOT
BRANCH   1  18
ATOM     15  C   UNL     1      -5.070  13.676  21.971  0.00  0.00    +0.000 A 
ATOM     16  C   UNL     1      -5.378  13.502  20.615  0.00  0.00    +0.000 A 
ATOM     17  C   UNL     1      -4.449  12.856  19.782  0.00  0.00    +0.000 A 
ATOM     18  C   UNL     1      -3.196  12.423  20.267  0.00  0.00    +0.000 A 
ATOM     19  C   UNL     1      -2.926  12.612  21.630  0.00  0.00    +0.000 A 
ATOM     20  C   UNL     1      -3.847  13.237  22.480  0.00  0.00    +0.000 A 
BRANCH  15  22
ATOM     21  O   UNL     1      -5.610  14.949  23.848  0.00  0.00    +0.000 OA
ATOM     22  N   UNL     1      -6.037  14.356  22.848  0.00  0.00    +0.000 N 
ATOM     23  O   UNL     1      -7.237  14.297  22.530  0.00  0.00    +0.000 OA
ENDBRANCH  15  22
ENDBRANCH   1  18
BRANCH  12  24
ATOM     24  C   UNL     1       2.092   5.976  18.490  0.00  0.00    +0.000 C 
BRANCH  24  25
ATOM     25  C   UNL     1       2.266   4.919  19.577  0.00  0.00    +0.000 A 
ATOM     26  C   UNL     1       3.491   4.224  19.682  0.00  0.00    +0.000 A 
ATOM     27  C   UNL     1       3.585   3.044  20.420  0.00  0.00    +0.000 A 
ATOM     28  C   UNL     1       2.487   2.586  21.145  0.00  0.00    +0.000 A 
ATOM     29  C   UNL     1       1.301   3.323  21.145  0.00  0.00    +0.000 A 
ATOM     30  C   UNL     1       1.187   4.475  20.359  0.00  0.00    +0.000 A 
ENDBRANCH  24  25
ENDBRANCH  12  24
TORSDOF 4
ENDMDL
MODEL 8
REMARK VINA RESULT:      -7.3      3.195     10.006
REMARK  Name = 
REMARK  4 active torsions:
REMARK  status: ('A' for Active; 'I' for Inactive)
REMARK    1  A    between atoms: N_2  and  C_4
REMARK    2  A    between atoms: C_7  and  C_8
REMARK    3  A    between atoms: N_19  and  C_20
REMARK    4  A    between atoms: C_20  and  C_21
REMARK                            x       y       z     vdW  Elec       q    Type
REMARK                         _______ _______ _______ _____ _____    ______ ____
ROOT
ATOM      1  C   UNL     1       1.687   8.147  20.024  0.00  0.00    +0.000 A 
ATOM      2  S   UNL     1       1.071   8.115  21.631  0.00  0.00    +0.000 S 
ATOM      3  C   UNL     1       0.396   9.673  21.487  0.00  0.00    +0.000 A 
ATOM      4  C   UNL     1       0.666  10.250  20.262  0.00  0.00    +0.000 A 
ATOM      5  C   UNL     1       1.534   9.410  19.473  0.00  0.00    +0.000 A 
ATOM      6  C   UNL     1       1.947   9.917  18.127  0.00  0.00    +0.000 C 
ATOM      7  C   UNL     1       1.888  11.452  18.086  0.00  0.00    +0.000 C 
ATOM      8  O   UNL     1       0.683  12.074  18.548  0.00  0.00    +0.000 OA
ATOM      9  C   UNL     1      -0.062  11.434  19.613  0.00  0.00    +0.000 C 
ATOM     10  C   UNL     1      -1.284  10.791  18.935  0.00  0.00    +0.000 C 
ATOM     11  C   UNL     1      -2.451  11.694  18.605  0.00  0.00    +0.000 C 
ATOM     12  N   UNL     1      -2.764  12.773  19.524  0.00  0.00    +0.000 NA
ATOM     13  C   UNL     1      -1.603  13.449  20.080  0.00  0.00    +0.000 C 
ATOM     14  C   UNL     1      -0.497  12.525  20.614  0.00  0.00    +0.000 C 
ENDROOT
BRANCH   1  18
ATOM     15  C   UNL     1       3.400   4.531  18.447  0.00  0.00    +0.000 A 
ATOM     16  C   UNL     1       3.572   5.735  17.752  0.00  0.00    +0.000 A 
ATOM     17  C   UNL     1       3.015   6.913  18.279  0.00  0.00    +0.000 A 
ATOM     18  C   UNL     1       2.246   6.902  19.463  0.00  0.00    +0.000 A 
ATOM     19  C   UNL     1       2.099   5.678  20.131  0.00  0.00    +0.000 A 
ATOM     20  C   UNL     1       2.663   4.497  19.631  0.00  0.00    +0.000 A 
BRANCH  15  22
ATOM     21  O   UNL     1       3.834   2.242  18.537  0.00  0.00    +0.000 OA
ATOM     22  N   UNL     1       3.977   3.293  17.898  0.00  0.00    +0.000 N 
ATOM     23  O   UNL     1       4.580   3.375  16.814  0.00  0.00    +0.000 OA
ENDBRANCH  15  22
ENDBRANCH   1  18
BRANCH  12  24
ATOM     24  C   UNL     1      -3.976  12.662  20.349  0.00  0.00    +0.000 C 
BRANCH  24  25
ATOM     25  C   UNL     1      -3.808  13.266  21.740  0.00  0.00    +0.000 A 
ATOM     26  C   UNL     1      -3.499  12.425  22.832  0.00  0.00    +0.000 A 
ATOM     27  C   UNL     1      -3.662  12.866  24.146  0.00  0.00    +0.000 A 
ATOM     28  C   UNL     1      -4.044  14.182  24.397  0.00  0.00    +0.000 A 
ATOM     29  C   UNL     1      -4.243  15.060  23.331  0.00  0.00    +0.000 A 
ATOM     30  C   UNL     1      -4.136  14.604  22.011  0.00  0.00    +0.000 A 
ENDBRANCH  24  25
ENDBRANCH  12  24
TORSDOF 4
ENDMDL
MODEL 9
REMARK VINA RESULT:      -7.3      3.218      9.944
REMARK  Name = 
REMARK  4 active torsions:
REMARK  status: ('A' for Active; 'I' for Inactive)
REMARK    1  A    between atoms: N_2  and  C_4
REMARK    2  A    between atoms: C_7  and  C_8
REMARK    3  A    between atoms: N_19  and  C_20
REMARK    4  A    between atoms: C_20  and  C_21
REMARK                            x       y       z     vdW  Elec       q    Type
REMARK                         _______ _______ _______ _____ _____    ______ ____
ROOT
ATOM      1  C   UNL     1       1.632   8.118  20.135  0.00  0.00    +0.000 A 
ATOM      2  S   UNL     1       1.023   8.154  21.745  0.00  0.00    +0.000 S 
ATOM      3  C   UNL     1       0.365   9.713  21.545  0.00  0.00    +0.000 A 
ATOM      4  C   UNL     1       0.636  10.240  20.299  0.00  0.00    +0.000 A 
ATOM      5  C   UNL     1       1.491   9.362  19.537  0.00  0.00    +0.000 A 
ATOM      6  C   UNL     1       1.904   9.813  18.172  0.00  0.00    +0.000 C 
ATOM      7  C   UNL     1       1.862  11.346  18.074  0.00  0.00    +0.000 C 
ATOM      8  O   UNL     1       0.667  11.999  18.517  0.00  0.00    +0.000 OA
ATOM      9  C   UNL     1      -0.081  11.408  19.609  0.00  0.00    +0.000 C 
ATOM     10  C   UNL     1      -1.313  10.754  18.960  0.00  0.00    +0.000 C 
ATOM     11  C   UNL     1      -2.472  11.657  18.601  0.00  0.00    +0.000 C 
ATOM     12  N   UNL     1      -2.768  12.774  19.480  0.00  0.00    +0.000 NA
ATOM     13  C   UNL     1      -1.597  13.456  20.006  0.00  0.00    +0.000 C 
ATOM     14  C   UNL     1      -0.499  12.540  20.570  0.00  0.00    +0.000 C 
ENDROOT
BRANCH   1  18
ATOM     15  C   UNL     1       3.125   4.398  18.578  0.00  0.00    +0.000 A 
ATOM     16  C   UNL     1       2.504   4.419  19.833  0.00  0.00    +0.000 A 
ATOM     17  C   UNL     1       2.012   5.639  20.330  0.00  0.00    +0.000 A 
ATOM     18  C   UNL     1       2.174   6.847  19.618  0.00  0.00    +0.000 A 
ATOM     19  C   UNL     1       2.798   6.783  18.364  0.00  0.00    +0.000 A 
ATOM     20  C   UNL     1       3.277   5.574  17.843  0.00  0.00    +0.000 A 
BRANCH  15  22
ATOM     21  O   UNL     1       4.421   3.157  17.088  0.00  0.00    +0.000 OA
ATOM     22  N   UNL     1       3.646   3.124  18.054  0.00  0.00    +0.000 N 
ATOM     23  O   UNL     1       3.276   2.080  18.617  0.00  0.00    +0.000 OA
ENDBRANCH  15  22
ENDBRANCH   1  18
BRANCH  12  24
ATOM     24  C   UNL     1      -3.978  12.707  20.314  0.00  0.00    +0.000 C 
BRANCH  24  25
ATOM     25  C   UNL     1      -3.769  13.276  21.714  0.00  0.00    +0.000 A 
ATOM     26  C   UNL     1      -3.429  12.408  22.775  0.00  0.00    +0.000 A 
ATOM     27  C   UNL     1      -3.553  12.815  24.104  0.00  0.00    +0.000 A 
ATOM     28  C   UNL     1      -3.926  14.124  24.399  0.00  0.00    +0.000 A 
ATOM     29  C   UNL     1      -4.155  15.030  23.362  0.00  0.00    +0.000 A 
ATOM     30  C   UNL     1      -4.087  14.607  22.029  0.00  0.00    +0.000 A 
ENDBRANCH  24  25
ENDBRANCH  12  24
TORSDOF 4
ENDMDL
