MODEL 1
REMARK VINA RESULT:      -7.0      0.000      0.000
REMARK  Name = 
REMARK  6 active torsions:
REMARK  status: ('A' for Active; 'I' for Inactive)
REMARK    1  A    between atoms: C_2  and  C_3
REMARK    2  A    between atoms: C_12  and  N_13
REMARK    3  A    between atoms: N_16  and  C_17
REMARK    4  A    between atoms: C_17  and  C_18
REMARK    5  A    between atoms: C_18  and  C_19
REMARK    6  A    between atoms: C_19  and  O_21
REMARK                            x       y       z     vdW  Elec       q    Type
REMARK                         _______ _______ _______ _____ _____    ______ ____
ROOT
ATOM      1  C   UNL     1       6.120   5.021  17.512  0.00  0.00    +0.000 A 
ATOM      2  C   UNL     1       7.289   5.556  16.986  0.00  0.00    +0.000 A 
ATOM      3  N   UNL     1       7.655   5.482  15.694  0.00  0.00    +0.000 NA
ATOM      4  C   UNL     1       6.832   4.853  14.851  0.00  0.00    +0.000 A 
ATOM      5  C   UNL     1       7.242   4.780  13.527  0.00  0.00    +0.000 A 
ATOM      6  C   UNL     1       6.478   4.146  12.551  0.00  0.00    +0.000 A 
ATOM      7  C   UNL     1       5.252   3.604  12.899  0.00  0.00    +0.000 A 
ATOM      8  C   UNL     1       4.805   3.706  14.219  0.00  0.00    +0.000 A 
ATOM      9  C   UNL     1       5.592   4.289  15.250  0.00  0.00    +0.000 A 
ATOM     10  C   UNL     1       5.210   4.375  16.646  0.00  0.00    +0.000 A 
ENDROOT
BRANCH  10  11
ATOM     11  N   UNL     1       3.959   3.869  17.055  0.00  0.00    +0.000 N 
ATOM     12  C   UNL     1       2.958   4.736  17.718  0.00  0.00    +0.000 C 
ATOM     13  C   UNL     1       1.539   4.139  17.569  0.00  0.00    +0.000 C 
ATOM     14  N   UNL     1       1.393   2.736  18.031  0.00  0.00    +0.000 NA
ATOM     15  C   UNL     1       2.452   1.935  17.355  0.00  0.00    +0.000 C 
ATOM     16  C   UNL     1       3.898   2.474  17.554  0.00  0.00    +0.000 C 
BRANCH  14  17
ATOM     17  C   UNL     1       1.505   2.578  19.496  0.00  0.00    +0.000 C 
BRANCH  17  18
ATOM     18  C   UNL     1       1.079   3.811  20.293  0.00  0.00    +0.000 C 
BRANCH  18  19
ATOM     19  C   UNL     1       2.096   4.120  21.364  0.00  0.00    +0.000 C 
ATOM     20  O   UNL     1       2.420   3.369  22.270  0.00  0.00    +0.000 OA
BRANCH  19  21
ATOM     21  O   UNL     1       2.646   5.347  21.209  0.00  0.00    +0.000 OA
ATOM     22  H   UNL     1       3.281   5.403  20.470  0.00  0.00    +0.000 HD
ENDBRANCH  19  21
ENDBRANCH  18  19
ENDBRANCH  17  18
ENDBRANCH  14  17
ENDBRANCH  10  11
BRANCH   1  24
ATOM     23  N   UNL     1       5.816   5.245  20.073  0.00  0.00    +0.000 NA
ATOM     24  C   UNL     1       5.965   5.160  18.928  0.00  0.00    +0.000 C 
ENDBRANCH   1  24
TORSDOF 6
ENDMDL
MODEL 2
REMARK VINA RESULT:      -6.7      3.852      6.652
REMARK  Name = 
REMARK  6 active torsions:
REMARK  status: ('A' for Active; 'I' for Inactive)
REMARK    1  A    between atoms: C_2  and  C_3
REMARK    2  A    between atoms: C_12  and  N_13
REMARK    3  A    between atoms: N_16  and  C_17
REMARK    4  A    between atoms: C_17  and  C_18
REMARK    5  A    between atoms: C_18  and  C_19
REMARK    6  A    between atoms: C_19  and  O_21
REMARK                            x       y       z     vdW  Elec       q    Type
REMARK                         _______ _______ _______ _____ _____    ______ ____
ROOT
ATOM      1  C   UNL     1       3.601   4.196  19.885  0.00  0.00    +0.000 A 
ATOM      2  C   UNL     1       2.609   4.568  20.784  0.00  0.00    +0.000 A 
ATOM      3  N   UNL     1       1.936   5.731  20.749  0.00  0.00    +0.000 NA
ATOM      4  C   UNL     1       2.238   6.593  19.774  0.00  0.00    +0.000 A 
ATOM      5  C   UNL     1       1.537   7.792  19.770  0.00  0.00    +0.000 A 
ATOM      6  C   UNL     1       1.762   8.776  18.812  0.00  0.00    +0.000 A 
ATOM      7  C   UNL     1       2.685   8.541  17.806  0.00  0.00    +0.000 A 
ATOM      8  C   UNL     1       3.369   7.324  17.771  0.00  0.00    +0.000 A 
ATOM      9  C   UNL     1       3.208   6.326  18.772  0.00  0.00    +0.000 A 
ATOM     10  C   UNL     1       3.927   5.069  18.823  0.00  0.00    +0.000 A 
ENDROOT
BRANCH  10  11
ATOM     11  N   UNL     1       4.856   4.760  17.808  0.00  0.00    +0.000 N 
ATOM     12  C   UNL     1       5.896   5.731  17.396  0.00  0.00    +0.000 C 
ATOM     13  C   UNL     1       7.076   5.002  16.710  0.00  0.00    +0.000 C 
ATOM     14  N   UNL     1       6.702   4.130  15.568  0.00  0.00    +0.000 NA
ATOM     15  C   UNL     1       5.630   3.212  16.045  0.00  0.00    +0.000 C 
ATOM     16  C   UNL     1       4.396   3.926  16.671  0.00  0.00    +0.000 C 
BRANCH  14  17
ATOM     17  C   UNL     1       6.232   4.874  14.381  0.00  0.00    +0.000 C 
BRANCH  17  18
ATOM     18  C   UNL     1       5.502   4.012  13.351  0.00  0.00    +0.000 C 
BRANCH  18  19
ATOM     19  C   UNL     1       6.461   3.549  12.281  0.00  0.00    +0.000 C 
ATOM     20  O   UNL     1       7.322   4.237  11.756  0.00  0.00    +0.000 OA
BRANCH  19  21
ATOM     21  O   UNL     1       6.281   2.247  11.961  0.00  0.00    +0.000 OA
ATOM     22  H   UNL     1       6.582   1.626  12.651  0.00  0.00    +0.000 HD
ENDBRANCH  19  21
ENDBRANCH  18  19
ENDBRANCH  17  18
ENDBRANCH  14  17
ENDBRANCH  10  11
BRANCH   1  24
ATOM     23  N   UNL     1       4.742   1.931  20.403  0.00  0.00    +0.000 NA
ATOM     24  C   UNL     1       4.231   2.940  20.152  0.00  0.00    +0.000 C 
ENDBRANCH   1  24
TORSDOF 6
ENDMDL
MODEL 3
REMARK VINA RESULT:      -6.6      3.672      6.870
REMARK  Name = 
REMARK  6 active torsions:
REMARK  status: ('A' for Active; 'I' for Inactive)
REMARK    1  A    between atoms: C_2  and  C_3
REMARK    2  A    between atoms: C_12  and  N_13
REMARK    3  A    between atoms: N_16  and  C_17
REMARK    4  A    between atoms: C_17  and  C_18
REMARK    5  A    between atoms: C_18  and  C_19
REMARK    6  A    between atoms: C_19  and  O_21
REMARK                            x       y       z     vdW  Elec       q    Type
REMARK                         _______ _______ _______ _____ _____    ______ ____
ROOT
ATOM      1  C   UNL     1       2.533   7.023  19.158  0.00  0.00    +0.000 A 
ATOM      2  C   UNL     1       1.614   6.885  20.191  0.00  0.00    +0.000 A 
ATOM      3  N   UNL     1       1.478   5.790  20.959  0.00  0.00    +0.000 NA
ATOM      4  C   UNL     1       2.290   4.757  20.716  0.00  0.00    +0.000 A 
ATOM      5  C   UNL     1       2.119   3.635  21.514  0.00  0.00    +0.000 A 
ATOM      6  C   UNL     1       2.897   2.491  21.358  0.00  0.00    +0.000 A 
ATOM      7  C   UNL     1       3.901   2.482  20.405  0.00  0.00    +0.000 A 
ATOM      8  C   UNL     1       4.114   3.619  19.621  0.00  0.00    +0.000 A 
ATOM      9  C   UNL     1       3.294   4.777  19.712  0.00  0.00    +0.000 A 
ATOM     10  C   UNL     1       3.428   5.964  18.891  0.00  0.00    +0.000 A 
ENDROOT
BRANCH  10  11
ATOM     11  N   UNL     1       4.454   6.026  17.925  0.00  0.00    +0.000 N 
ATOM     12  C   UNL     1       4.200   5.667  16.510  0.00  0.00    +0.000 C 
ATOM     13  C   UNL     1       5.260   6.316  15.588  0.00  0.00    +0.000 C 
ATOM     14  N   UNL     1       6.671   6.029  15.948  0.00  0.00    +0.000 NA
ATOM     15  C   UNL     1       6.840   6.376  17.388  0.00  0.00    +0.000 C 
ATOM     16  C   UNL     1       5.832   5.675  18.345  0.00  0.00    +0.000 C 
BRANCH  14  17
ATOM     17  C   UNL     1       7.068   4.624  15.722  0.00  0.00    +0.000 C 
BRANCH  17  18
ATOM     18  C   UNL     1       6.327   3.941  14.572  0.00  0.00    +0.000 C 
BRANCH  18  19
ATOM     19  C   UNL     1       6.956   4.311  13.251  0.00  0.00    +0.000 C 
ATOM     20  O   UNL     1       6.786   3.720  12.196  0.00  0.00    +0.000 OA
BRANCH  19  21
ATOM     21  O   UNL     1       7.742   5.408  13.347  0.00  0.00    +0.000 OA
ATOM     22  H   UNL     1       8.684   5.236  13.160  0.00  0.00    +0.000 HD
ENDBRANCH  19  21
ENDBRANCH  18  19
ENDBRANCH  17  18
ENDBRANCH  14  17
ENDBRANCH  10  11
BRANCH   1  24
ATOM     23  N   UNL     1       2.422   9.236  17.819  0.00  0.00    +0.000 NA
ATOM     24  C   UNL     1       2.456   8.252  18.429  0.00  0.00    +0.000 C 
ENDBRANCH   1  24
TORSDOF 6
ENDMDL
MODEL 4
REMARK VINA RESULT:      -6.4      3.844      6.584
REMARK  Name = 
REMARK  6 active torsions:
REMARK  status: ('A' for Active; 'I' for Inactive)
REMARK    1  A    between atoms: C_2  and  C_3
REMARK    2  A    between atoms: C_12  and  N_13
REMARK    3  A    between atoms: N_16  and  C_17
REMARK    4  A    between atoms: C_17  and  C_18
REMARK    5  A    between atoms: C_18  and  C_19
REMARK    6  A    between atoms: C_19  and  O_21
REMARK                            x       y       z     vdW  Elec       q    Type
REMARK                         _______ _______ _______ _____ _____    ______ ____
ROOT
ATOM      1  C   UNL     1       1.963   5.716  20.695  0.00  0.00    +0.000 A 
ATOM      2  C   UNL     1       1.100   6.570  21.370  0.00  0.00    +0.000 A 
ATOM      3  N   UNL     1       0.803   7.824  20.986  0.00  0.00    +0.000 NA
ATOM      4  C   UNL     1       1.376   8.283  19.869  0.00  0.00    +0.000 A 
ATOM      5  C   UNL     1       1.062   9.585  19.504  0.00  0.00    +0.000 A 
ATOM      6  C   UNL     1       1.597  10.182  18.366  0.00  0.00    +0.000 A 
ATOM      7  C   UNL     1       2.437   9.446  17.548  0.00  0.00    +0.000 A 
ATOM      8  C   UNL     1       2.730   8.120  17.879  0.00  0.00    +0.000 A 
ATOM      9  C   UNL     1       2.252   7.504  19.068  0.00  0.00    +0.000 A 
ATOM     10  C   UNL     1       2.564   6.155  19.494  0.00  0.00    +0.000 A 
ENDROOT
BRANCH  10  11
ATOM     11  N   UNL     1       3.389   5.346  18.686  0.00  0.00    +0.000 N 
ATOM     12  C   UNL     1       4.793   5.720  18.402  0.00  0.00    +0.000 C 
ATOM     13  C   UNL     1       5.613   4.474  17.990  0.00  0.00    +0.000 C 
ATOM     14  N   UNL     1       5.050   3.692  16.862  0.00  0.00    +0.000 NA
ATOM     15  C   UNL     1       3.631   3.387  17.199  0.00  0.00    +0.000 C 
ATOM     16  C   UNL     1       2.765   4.634  17.544  0.00  0.00    +0.000 C 
BRANCH  14  17
ATOM     17  C   UNL     1       5.116   4.392  15.562  0.00  0.00    +0.000 C 
BRANCH  17  18
ATOM     18  C   UNL     1       6.308   3.990  14.694  0.00  0.00    +0.000 C 
BRANCH  18  19
ATOM     19  C   UNL     1       7.296   5.127  14.601  0.00  0.00    +0.000 C 
ATOM     20  O   UNL     1       7.901   5.458  13.594  0.00  0.00    +0.000 OA
BRANCH  19  21
ATOM     21  O   UNL     1       7.439   5.779  15.778  0.00  0.00    +0.000 OA
ATOM     22  H   UNL     1       6.872   6.569  15.862  0.00  0.00    +0.000 HD
ENDBRANCH  19  21
ENDBRANCH  18  19
ENDBRANCH  17  18
ENDBRANCH  14  17
ENDBRANCH  10  11
BRANCH   1  24
ATOM     23  N   UNL     1       2.394   3.419  21.810  0.00  0.00    +0.000 NA
ATOM     24  C   UNL     1       2.184   4.448  21.321  0.00  0.00    +0.000 C 
ENDBRANCH   1  24
TORSDOF 6
ENDMDL
MODEL 5
REMARK VINA RESULT:      -6.3      3.876      6.819
REMARK  Name = 
REMARK  6 active torsions:
REMARK  status: ('A' for Active; 'I' for Inactive)
REMARK    1  A    between atoms: C_2  and  C_3
REMARK    2  A    between atoms: C_12  and  N_13
REMARK    3  A    between atoms: N_16  and  C_17
REMARK    4  A    between atoms: C_17  and  C_18
REMARK    5  A    between atoms: C_18  and  C_19
REMARK    6  A    between atoms: C_19  and  O_21
REMARK                            x       y       z     vdW  Elec       q    Type
REMARK                         _______ _______ _______ _____ _____    ______ ____
ROOT
ATOM      1  C   UNL     1       3.635   4.039  19.908  0.00  0.00    +0.000 A 
ATOM      2  C   UNL     1       2.603   4.386  20.770  0.00  0.00    +0.000 A 
ATOM      3  N   UNL     1       1.919   5.544  20.725  0.00  0.00    +0.000 NA
ATOM      4  C   UNL     1       2.252   6.424  19.777  0.00  0.00    +0.000 A 
ATOM      5  C   UNL     1       1.539   7.615  19.762  0.00  0.00    +0.000 A 
ATOM      6  C   UNL     1       1.793   8.616  18.829  0.00  0.00    +0.000 A 
ATOM      7  C   UNL     1       2.759   8.407  17.859  0.00  0.00    +0.000 A 
ATOM      8  C   UNL     1       3.457   7.197  17.834  0.00  0.00    +0.000 A 
ATOM      9  C   UNL     1       3.265   6.183  18.813  0.00  0.00    +0.000 A 
ATOM     10  C   UNL     1       3.995   4.932  18.874  0.00  0.00    +0.000 A 
ENDROOT
BRANCH  10  11
ATOM     11  N   UNL     1       4.969   4.649  17.894  0.00  0.00    +0.000 N 
ATOM     12  C   UNL     1       6.234   5.416  17.822  0.00  0.00    +0.000 C 
ATOM     13  C   UNL     1       7.319   4.603  17.076  0.00  0.00    +0.000 C 
ATOM     14  N   UNL     1       6.931   4.120  15.727  0.00  0.00    +0.000 NA
ATOM     15  C   UNL     1       5.636   3.395  15.872  0.00  0.00    +0.000 C 
ATOM     16  C   UNL     1       4.505   4.220  16.552  0.00  0.00    +0.000 C 
BRANCH  14  17
ATOM     17  C   UNL     1       6.791   5.199  14.727  0.00  0.00    +0.000 C 
BRANCH  17  18
ATOM     18  C   UNL     1       7.141   4.778  13.299  0.00  0.00    +0.000 C 
BRANCH  18  19
ATOM     19  C   UNL     1       8.178   5.707  12.718  0.00  0.00    +0.000 C 
ATOM     20  O   UNL     1       9.188   6.086  13.289  0.00  0.00    +0.000 OA
BRANCH  19  21
ATOM     21  O   UNL     1       7.879   6.080  11.452  0.00  0.00    +0.000 OA
ATOM     22  H   UNL     1       7.336   6.888  11.397  0.00  0.00    +0.000 HD
ENDBRANCH  19  21
ENDBRANCH  18  19
ENDBRANCH  17  18
ENDBRANCH  14  17
ENDBRANCH  10  11
BRANCH   1  24
ATOM     23  N   UNL     1       4.806   1.787  20.417  0.00  0.00    +0.000 NA
ATOM     24  C   UNL     1       4.267   2.785  20.182  0.00  0.00    +0.000 C 
ENDBRANCH   1  24
TORSDOF 6
ENDMDL
MODEL 6
REMARK VINA RESULT:      -6.3      3.678      6.907
REMARK  Name = 
REMARK  6 active torsions:
REMARK  status: ('A' for Active; 'I' for Inactive)
REMARK    1  A    between atoms: C_2  and  C_3
REMARK    2  A    between atoms: C_12  and  N_13
REMARK    3  A    between atoms: N_16  and  C_17
REMARK    4  A    between atoms: C_17  and  C_18
REMARK    5  A    between atoms: C_18  and  C_19
REMARK    6  A    between atoms: C_19  and  O_21
REMARK                            x       y       z     vdW  Elec       q    Type
REMARK                         _______ _______ _______ _____ _____    ______ ____
ROOT
ATOM      1  C   UNL     1       3.000   6.536  18.729  0.00  0.00    +0.000 A 
ATOM      2  C   UNL     1       2.075   6.742  19.744  0.00  0.00    +0.000 A 
ATOM      3  N   UNL     1       1.753   5.839  20.687  0.00  0.00    +0.000 NA
ATOM      4  C   UNL     1       2.373   4.657  20.650  0.00  0.00    +0.000 A 
ATOM      5  C   UNL     1       2.012   3.739  21.627  0.00  0.00    +0.000 A 
ATOM      6  C   UNL     1       2.579   2.469  21.695  0.00  0.00    +0.000 A 
ATOM      7  C   UNL     1       3.563   2.120  20.785  0.00  0.00    +0.000 A 
ATOM      8  C   UNL     1       3.969   3.047  19.821  0.00  0.00    +0.000 A 
ATOM      9  C   UNL     1       3.362   4.327  19.687  0.00  0.00    +0.000 A 
ATOM     10  C   UNL     1       3.698   5.309  18.675  0.00  0.00    +0.000 A 
ENDROOT
BRANCH  10  11
ATOM     11  N   UNL     1       4.715   5.023  17.742  0.00  0.00    +0.000 N 
ATOM     12  C   UNL     1       5.678   6.062  17.311  0.00  0.00    +0.000 C 
ATOM     13  C   UNL     1       6.965   5.411  16.753  0.00  0.00    +0.000 C 
ATOM     14  N   UNL     1       6.753   4.422  15.667  0.00  0.00    +0.000 NA
ATOM     15  C   UNL     1       5.749   3.435  16.156  0.00  0.00    +0.000 C 
ATOM     16  C   UNL     1       4.414   4.063  16.652  0.00  0.00    +0.000 C 
BRANCH  14  17
ATOM     17  C   UNL     1       6.288   5.022  14.399  0.00  0.00    +0.000 C 
BRANCH  17  18
ATOM     18  C   UNL     1       5.601   4.036  13.454  0.00  0.00    +0.000 C 
BRANCH  18  19
ATOM     19  C   UNL     1       6.538   3.637  12.340  0.00  0.00    +0.000 C 
ATOM     20  O   UNL     1       7.381   4.359  11.832  0.00  0.00    +0.000 OA
BRANCH  19  21
ATOM     21  O   UNL     1       6.360   2.352  11.956  0.00  0.00    +0.000 OA
ATOM     22  H   UNL     1       5.732   2.245  11.217  0.00  0.00    +0.000 HD
ENDBRANCH  19  21
ENDBRANCH  18  19
ENDBRANCH  17  18
ENDBRANCH  14  17
ENDBRANCH  10  11
BRANCH   1  24
ATOM     23  N   UNL     1       3.239   8.506  17.066  0.00  0.00    +0.000 NA
ATOM     24  C   UNL     1       3.136   7.612  17.796  0.00  0.00    +0.000 C 
ENDBRANCH   1  24
TORSDOF 6
ENDMDL
MODEL 7
REMARK VINA RESULT:      -6.2      3.795      6.937
REMARK  Name = 
REMARK  6 active torsions:
REMARK  status: ('A' for Active; 'I' for Inactive)
REMARK    1  A    between atoms: C_2  and  C_3
REMARK    2  A    between atoms: C_12  and  N_13
REMARK    3  A    between atoms: N_16  and  C_17
REMARK    4  A    between atoms: C_17  and  C_18
REMARK    5  A    between atoms: C_18  and  C_19
REMARK    6  A    between atoms: C_19  and  O_21
REMARK                            x       y       z     vdW  Elec       q    Type
REMARK                         _______ _______ _______ _____ _____    ______ ____
ROOT
ATOM      1  C   UNL     1       3.374   4.530  19.904  0.00  0.00    +0.000 A 
ATOM      2  C   UNL     1       2.350   4.473  20.841  0.00  0.00    +0.000 A 
ATOM      3  N   UNL     1       1.507   5.483  21.121  0.00  0.00    +0.000 NA
ATOM      4  C   UNL     1       1.660   6.624  20.445  0.00  0.00    +0.000 A 
ATOM      5  C   UNL     1       0.785   7.654  20.764  0.00  0.00    +0.000 A 
ATOM      6  C   UNL     1       0.844   8.895  20.136  0.00  0.00    +0.000 A 
ATOM      7  C   UNL     1       1.777   9.101  19.134  0.00  0.00    +0.000 A 
ATOM      8  C   UNL     1       2.638   8.063  18.772  0.00  0.00    +0.000 A 
ATOM      9  C   UNL     1       2.645   6.806  19.439  0.00  0.00    +0.000 A 
ATOM     10  C   UNL     1       3.548   5.711  19.148  0.00  0.00    +0.000 A 
ENDROOT
BRANCH  10  11
ATOM     11  N   UNL     1       4.498   5.851  18.116  0.00  0.00    +0.000 N 
ATOM     12  C   UNL     1       4.202   5.413  16.732  0.00  0.00    +0.000 C 
ATOM     13  C   UNL     1       5.122   6.142  15.724  0.00  0.00    +0.000 C 
ATOM     14  N   UNL     1       6.576   6.028  16.001  0.00  0.00    +0.000 NA
ATOM     15  C   UNL     1       6.792   6.445  17.415  0.00  0.00    +0.000 C 
ATOM     16  C   UNL     1       5.931   5.672  18.457  0.00  0.00    +0.000 C 
BRANCH  14  17
ATOM     17  C   UNL     1       7.116   4.668  15.792  0.00  0.00    +0.000 C 
BRANCH  17  18
ATOM     18  C   UNL     1       6.398   3.870  14.704  0.00  0.00    +0.000 C 
BRANCH  18  19
ATOM     19  C   UNL     1       6.893   4.281  13.339  0.00  0.00    +0.000 C 
ATOM     20  O   UNL     1       6.626   3.717  12.290  0.00  0.00    +0.000 OA
BRANCH  19  21
ATOM     21  O   UNL     1       7.675   5.384  13.388  0.00  0.00    +0.000 OA
ATOM     22  H   UNL     1       8.611   5.213  13.170  0.00  0.00    +0.000 HD
ENDBRANCH  19  21
ENDBRANCH  18  19
ENDBRANCH  17  18
ENDBRANCH  14  17
ENDBRANCH  10  11
BRANCH   1  24
ATOM     23  N   UNL     1       4.881   2.430  19.760  0.00  0.00    +0.000 NA
ATOM     24  C   UNL     1       4.191   3.359  19.818  0.00  0.00    +0.000 C 
ENDBRANCH   1  24
TORSDOF 6
ENDMDL
MODEL 8
REMARK VINA RESULT:      -6.1      3.654      7.038
REMARK  Name = 
REMARK  6 active torsions:
REMARK  status: ('A' for Active; 'I' for Inactive)
REMARK    1  A    between atoms: C_2  and  C_3
REMARK    2  A    between atoms: C_12  and  N_13
REMARK    3  A    between atoms: N_16  and  C_17
REMARK    4  A    between atoms: C_17  and  C_18
REMARK    5  A    between atoms: C_18  and  C_19
REMARK    6  A    between atoms: C_19  and  O_21
REMARK                            x       y       z     vdW  Elec       q    Type
REMARK                         _______ _______ _______ _____ _____    ______ ____
ROOT
ATOM      1  C   UNL     1       2.985   6.470  18.836  0.00  0.00    +0.000 A 
ATOM      2  C   UNL     1       1.957   6.696  19.742  0.00  0.00    +0.000 A 
ATOM      3  N   UNL     1       1.531   5.810  20.659  0.00  0.00    +0.000 NA
ATOM      4  C   UNL     1       2.146   4.625  20.709  0.00  0.00    +0.000 A 
ATOM      5  C   UNL     1       1.677   3.725  21.657  0.00  0.00    +0.000 A 
ATOM      6  C   UNL     1       2.229   2.456  21.806  0.00  0.00    +0.000 A 
ATOM      7  C   UNL     1       3.303   2.089  21.014  0.00  0.00    +0.000 A 
ATOM      8  C   UNL     1       3.814   2.997  20.085  0.00  0.00    +0.000 A 
ATOM      9  C   UNL     1       3.232   4.276  19.864  0.00  0.00    +0.000 A 
ATOM     10  C   UNL     1       3.679   5.240  18.878  0.00  0.00    +0.000 A 
ENDROOT
BRANCH  10  11
ATOM     11  N   UNL     1       4.790   4.935  18.065  0.00  0.00    +0.000 N 
ATOM     12  C   UNL     1       6.007   5.779  18.077  0.00  0.00    +0.000 C 
ATOM     13  C   UNL     1       7.227   4.978  17.563  0.00  0.00    +0.000 C 
ATOM     14  N   UNL     1       7.051   4.345  16.232  0.00  0.00    +0.000 NA
ATOM     15  C   UNL     1       5.793   3.548  16.284  0.00  0.00    +0.000 C 
ATOM     16  C   UNL     1       4.535   4.351  16.725  0.00  0.00    +0.000 C 
BRANCH  14  17
ATOM     17  C   UNL     1       6.985   5.313  15.117  0.00  0.00    +0.000 C 
BRANCH  17  18
ATOM     18  C   UNL     1       6.613   4.692  13.771  0.00  0.00    +0.000 C 
BRANCH  18  19
ATOM     19  C   UNL     1       7.621   5.080  12.717  0.00  0.00    +0.000 C 
ATOM     20  O   UNL     1       7.560   4.783  11.535  0.00  0.00    +0.000 OA
BRANCH  19  21
ATOM     21  O   UNL     1       8.627   5.831  13.223  0.00  0.00    +0.000 OA
ATOM     22  H   UNL     1       8.650   5.853  14.199  0.00  0.00    +0.000 HD
ENDBRANCH  19  21
ENDBRANCH  18  19
ENDBRANCH  17  18
ENDBRANCH  14  17
ENDBRANCH  10  11
BRANCH   1  24
ATOM     23  N   UNL     1       3.431   8.408  17.178  0.00  0.00    +0.000 NA
ATOM     24  C   UNL     1       3.226   7.529  17.904  0.00  0.00    +0.000 C 
ENDBRANCH   1  24
TORSDOF 6
ENDMDL
MODEL 9
REMARK VINA RESULT:      -6.0      1.496      1.696
REMARK  Name = 
REMARK  6 active torsions:
REMARK  status: ('A' for Active; 'I' for Inactive)
REMARK    1  A    between atoms: C_2  and  C_3
REMARK    2  A    between atoms: C_12  and  N_13
REMARK    3  A    between atoms: N_16  and  C_17
REMARK    4  A    between atoms: C_17  and  C_18
REMARK    5  A    between atoms: C_18  and  C_19
REMARK    6  A    between atoms: C_19  and  O_21
REMARK                            x       y       z     vdW  Elec       q    Type
REMARK                         _______ _______ _______ _____ _____    ______ ____
ROOT
ATOM      1  C   UNL     1       7.057   5.577  16.211  0.00  0.00    +0.000 A 
ATOM      2  C   UNL     1       8.049   5.802  15.264  0.00  0.00    +0.000 A 
ATOM      3  N   UNL     1       8.011   5.365  13.993  0.00  0.00    +0.000 NA
ATOM      4  C   UNL     1       6.938   4.670  13.608  0.00  0.00    +0.000 A 
ATOM      5  C   UNL     1       6.932   4.220  12.294  0.00  0.00    +0.000 A 
ATOM      6  C   UNL     1       5.875   3.480  11.771  0.00  0.00    +0.000 A 
ATOM      7  C   UNL     1       4.777   3.213  12.571  0.00  0.00    +0.000 A 
ATOM      8  C   UNL     1       4.748   3.694  13.882  0.00  0.00    +0.000 A 
ATOM      9  C   UNL     1       5.839   4.397  14.464  0.00  0.00    +0.000 A 
ATOM     10  C   UNL     1       5.894   4.871  15.833  0.00  0.00    +0.000 A 
ENDROOT
BRANCH  10  11
ATOM     11  N   UNL     1       4.791   4.658  16.685  0.00  0.00    +0.000 N 
ATOM     12  C   UNL     1       4.085   5.790  17.327  0.00  0.00    +0.000 C 
ATOM     13  C   UNL     1       2.652   5.374  17.735  0.00  0.00    +0.000 C 
ATOM     14  N   UNL     1       2.564   4.162  18.587  0.00  0.00    +0.000 NA
ATOM     15  C   UNL     1       3.326   3.082  17.899  0.00  0.00    +0.000 C 
ATOM     16  C   UNL     1       4.797   3.450  17.546  0.00  0.00    +0.000 C 
BRANCH  14  17
ATOM     17  C   UNL     1       3.094   4.356  19.953  0.00  0.00    +0.000 C 
BRANCH  17  18
ATOM     18  C   UNL     1       2.016   4.495  21.028  0.00  0.00    +0.000 C 
BRANCH  18  19
ATOM     19  C   UNL     1       1.314   3.177  21.241  0.00  0.00    +0.000 C 
ATOM     20  O   UNL     1       1.519   2.407  22.165  0.00  0.00    +0.000 OA
BRANCH  19  21
ATOM     21  O   UNL     1       0.390   2.928  20.283  0.00  0.00    +0.000 OA
ATOM     22  H   UNL     1       0.025   3.733  19.870  0.00  0.00    +0.000 HD
ENDBRANCH  19  21
ENDBRANCH  18  19
ENDBRANCH  17  18
ENDBRANCH  14  17
ENDBRANCH  10  11
BRANCH   1  24
ATOM     23  N   UNL     1       7.597   6.467  18.582  0.00  0.00    +0.000 NA
ATOM     24  C   UNL     1       7.338   6.077  17.523  0.00  0.00    +0.000 C 
ENDBRANCH   1  24
TORSDOF 6
ENDMDL
