MODEL 1
REMARK VINA RESULT:      -7.1      0.000      0.000
REMARK  Name = 
REMARK  12 active torsions:
REMARK  status: ('A' for Active; 'I' for Inactive)
REMARK    1  A    between atoms: C_1  and  C_2
REMARK    2  A    between atoms: C_4  and  C_5
REMARK    3  A    between atoms: C_5  and  C_6
REMARK    4  A    between atoms: N_8  and  C_9
REMARK    5  A    between atoms: C_12  and  C_13
REMARK    6  A    between atoms: C_13  and  C_14
REMARK    7  A    between atoms: C_14  and  N_15
REMARK    8  A    between atoms: N_15  and  C_16
REMARK    9  A    between atoms: C_16  and  C_17
REMARK   10  A    between atoms: C_17  and  O_18
REMARK   11  A    between atoms: C_17  and  C_19
REMARK   12  A    between atoms: C_27  and  C_28
REMARK                            x       y       z     vdW  Elec       q    Type
REMARK                         _______ _______ _______ _____ _____    ______ ____
ROOT
ATOM      1  C   UNL     1       2.158   7.962  18.425  0.00  0.00    +0.000 A 
ATOM      2  C   UNL     1       3.126   7.939  17.420  0.00  0.00    +0.000 A 
ATOM      3  C   UNL     1       4.163   7.005  17.439  0.00  0.00    +0.000 A 
ATOM      4  C   UNL     1       4.281   6.085  18.483  0.00  0.00    +0.000 A 
ATOM      5  C   UNL     1       3.314   6.104  19.496  0.00  0.00    +0.000 A 
ATOM      6  C   UNL     1       2.264   7.039  19.472  0.00  0.00    +0.000 A 
ENDROOT
BRANCH   1   9
ATOM      7  C   UNL     1       1.216  10.274  18.411  0.00  0.00    +0.000 C 
ATOM      8  O   UNL     1       2.259  10.904  18.246  0.00  0.00    +0.000 OA
ATOM      9  N   UNL     1       1.094   8.891  18.439  0.00  0.00    +0.000 N 
ATOM     10  H   UNL     1       0.151   8.513  18.371  0.00  0.00    +0.000 HD
BRANCH   7  11
ATOM     11  C   UNL     1      -0.079  11.021  18.655  0.00  0.00    +0.000 C 
BRANCH  11  15
ATOM     12  C   UNL     1       0.025   9.462  23.317  0.00  0.00    +0.000 C 
ATOM     13  C   UNL     1      -0.311  10.346  22.170  0.00  0.00    +0.000 A 
ATOM     14  N   UNL     1      -0.032  10.069  20.915  0.00  0.00    +0.000 NA
ATOM     15  C   UNL     1      -0.404  11.129  20.100  0.00  0.00    +0.000 A 
ATOM     16  C   UNL     1      -1.038  12.174  20.754  0.00  0.00    +0.000 A 
ATOM     17  C   UNL     1      -1.605  13.443  20.217  0.00  0.00    +0.000 C 
ATOM     18  S   UNL     1      -1.108  11.842  22.435  0.00  0.00    +0.000 S 
ENDBRANCH  11  15
ENDBRANCH   7  11
ENDBRANCH   1   9
BRANCH   4  19
ATOM     19  C   UNL     1       5.441   5.112  18.506  0.00  0.00    +0.000 C 
BRANCH  19  20
ATOM     20  C   UNL     1       5.745   4.543  17.106  0.00  0.00    +0.000 C 
BRANCH  20  21
ATOM     21  N   UNL     1       4.611   3.790  16.551  0.00  0.00    +0.000 NA
ATOM     22  H   UNL     1       4.855   3.465  15.611  0.00  0.00    +0.000 HD
BRANCH  21  23
ATOM     23  C   UNL     1       4.317   2.616  17.404  0.00  0.00    +0.000 C 
BRANCH  23  24
ATOM     24  C   UNL     1       2.795   2.477  17.667  0.00  0.00    +0.000 C 
BRANCH  24  25
ATOM     25  C   UNL     1       2.459   2.664  19.124  0.00  0.00    +0.000 A 
ATOM     26  C   UNL     1       1.208   3.130  19.544  0.00  0.00    +0.000 A 
ATOM     27  C   UNL     1       0.942   3.289  20.900  0.00  0.00    +0.000 A 
ATOM     28  C   UNL     1       1.948   2.989  21.801  0.00  0.00    +0.000 A 
ATOM     29  N   UNL     1       3.174   2.554  21.441  0.00  0.00    +0.000 NA
ATOM     30  C   UNL     1       3.398   2.398  20.115  0.00  0.00    +0.000 A 
ENDBRANCH  24  25
BRANCH  24  31
ATOM     31  O   UNL     1       2.071   3.444  16.898  0.00  0.00    +0.000 OA
ATOM     32  H   UNL     1       2.512   4.300  17.060  0.00  0.00    +0.000 HD
ENDBRANCH  24  31
ENDBRANCH  23  24
ENDBRANCH  21  23
ENDBRANCH  20  21
ENDBRANCH  19  20
ENDBRANCH   4  19
TORSDOF 10
ENDMDL
MODEL 2
REMARK VINA RESULT:      -7.1      3.418      8.901
REMARK  Name = 
REMARK  12 active torsions:
REMARK  status: ('A' for Active; 'I' for Inactive)
REMARK    1  A    between atoms: C_1  and  C_2
REMARK    2  A    between atoms: C_4  and  C_5
REMARK    3  A    between atoms: C_5  and  C_6
REMARK    4  A    between atoms: N_8  and  C_9
REMARK    5  A    between atoms: C_12  and  C_13
REMARK    6  A    between atoms: C_13  and  C_14
REMARK    7  A    between atoms: C_14  and  N_15
REMARK    8  A    between atoms: N_15  and  C_16
REMARK    9  A    between atoms: C_16  and  C_17
REMARK   10  A    between atoms: C_17  and  O_18
REMARK   11  A    between atoms: C_17  and  C_19
REMARK   12  A    between atoms: C_27  and  C_28
REMARK                            x       y       z     vdW  Elec       q    Type
REMARK                         _______ _______ _______ _____ _____    ______ ____
ROOT
ATOM      1  C   UNL     1       2.458   6.904  18.868  0.00  0.00    +0.000 A 
ATOM      2  C   UNL     1       2.078   6.759  20.202  0.00  0.00    +0.000 A 
ATOM      3  C   UNL     1       1.384   7.772  20.867  0.00  0.00    +0.000 A 
ATOM      4  C   UNL     1       1.079   8.973  20.226  0.00  0.00    +0.000 A 
ATOM      5  C   UNL     1       1.460   9.126  18.887  0.00  0.00    +0.000 A 
ATOM      6  C   UNL     1       2.151   8.103  18.215  0.00  0.00    +0.000 A 
ENDROOT
BRANCH   1   9
ATOM      7  C   UNL     1       2.644   4.680  17.747  0.00  0.00    +0.000 C 
ATOM      8  O   UNL     1       1.467   4.330  17.823  0.00  0.00    +0.000 OA
ATOM      9  N   UNL     1       3.160   5.902  18.161  0.00  0.00    +0.000 N 
ATOM     10  H   UNL     1       4.099   6.133  17.844  0.00  0.00    +0.000 HD
BRANCH   7  11
ATOM     11  C   UNL     1       3.678   3.718  17.201  0.00  0.00    +0.000 C 
BRANCH  11  15
ATOM     12  C   UNL     1       7.815   5.605  19.072  0.00  0.00    +0.000 C 
ATOM     13  C   UNL     1       6.848   5.178  18.027  0.00  0.00    +0.000 A 
ATOM     14  N   UNL     1       5.640   4.724  18.277  0.00  0.00    +0.000 NA
ATOM     15  C   UNL     1       5.023   4.339  17.094  0.00  0.00    +0.000 A 
ATOM     16  C   UNL     1       5.759   4.583  15.945  0.00  0.00    +0.000 A 
ATOM     17  C   UNL     1       5.417   4.345  14.514  0.00  0.00    +0.000 C 
ATOM     18  S   UNL     1       7.281   5.251  16.369  0.00  0.00    +0.000 S 
ENDBRANCH  11  15
ENDBRANCH   7  11
ENDBRANCH   1   9
BRANCH   4  19
ATOM     19  C   UNL     1       0.367  10.075  20.983  0.00  0.00    +0.000 C 
BRANCH  19  20
ATOM     20  C   UNL     1       0.951  11.465  20.663  0.00  0.00    +0.000 C 
BRANCH  20  21
ATOM     21  N   UNL     1      -0.081  12.511  20.630  0.00  0.00    +0.000 NA
ATOM     22  H   UNL     1      -0.002  13.030  19.751  0.00  0.00    +0.000 HD
BRANCH  21  23
ATOM     23  C   UNL     1      -1.426  11.899  20.710  0.00  0.00    +0.000 C 
BRANCH  23  24
ATOM     24  C   UNL     1      -2.396  12.531  19.679  0.00  0.00    +0.000 C 
BRANCH  24  25
ATOM     25  C   UNL     1      -2.656  11.610  18.515  0.00  0.00    +0.000 A 
ATOM     26  C   UNL     1      -1.670  10.759  18.005  0.00  0.00    +0.000 A 
ATOM     27  C   UNL     1      -1.954   9.927  16.928  0.00  0.00    +0.000 A 
ATOM     28  C   UNL     1      -3.222   9.983  16.378  0.00  0.00    +0.000 A 
ATOM     29  N   UNL     1      -4.199  10.801  16.824  0.00  0.00    +0.000 NA
ATOM     30  C   UNL     1      -3.895  11.590  17.882  0.00  0.00    +0.000 A 
ENDBRANCH  24  25
BRANCH  24  31
ATOM     31  O   UNL     1      -3.645  12.847  20.306  0.00  0.00    +0.000 OA
ATOM     32  H   UNL     1      -4.133  12.004  20.370  0.00  0.00    +0.000 HD
ENDBRANCH  24  31
ENDBRANCH  23  24
ENDBRANCH  21  23
ENDBRANCH  20  21
ENDBRANCH  19  20
ENDBRANCH   4  19
TORSDOF 10
ENDMDL
MODEL 3
REMARK VINA RESULT:      -7.1      1.726      2.553
REMARK  Name = 
REMARK  12 active torsions:
REMARK  status: ('A' for Active; 'I' for Inactive)
REMARK    1  A    between atoms: C_1  and  C_2
REMARK    2  A    between atoms: C_4  and  C_5
REMARK    3  A    between atoms: C_5  and  C_6
REMARK    4  A    between atoms: N_8  and  C_9
REMARK    5  A    between atoms: C_12  and  C_13
REMARK    6  A    between atoms: C_13  and  C_14
REMARK    7  A    between atoms: C_14  and  N_15
REMARK    8  A    between atoms: N_15  and  C_16
REMARK    9  A    between atoms: C_16  and  C_17
REMARK   10  A    between atoms: C_17  and  O_18
REMARK   11  A    between atoms: C_17  and  C_19
REMARK   12  A    between atoms: C_27  and  C_28
REMARK                            x       y       z     vdW  Elec       q    Type
REMARK                         _______ _______ _______ _____ _____    ______ ____
ROOT
ATOM      1  C   UNL     1       1.296   8.884  19.651  0.00  0.00    +0.000 A 
ATOM      2  C   UNL     1       1.687   7.708  20.292  0.00  0.00    +0.000 A 
ATOM      3  C   UNL     1       2.482   6.763  19.641  0.00  0.00    +0.000 A 
ATOM      4  C   UNL     1       2.883   6.952  18.317  0.00  0.00    +0.000 A 
ATOM      5  C   UNL     1       2.492   8.130  17.667  0.00  0.00    +0.000 A 
ATOM      6  C   UNL     1       1.699   9.085  18.325  0.00  0.00    +0.000 A 
ENDROOT
BRANCH   1   9
ATOM      7  C   UNL     1       0.738  11.232  20.293  0.00  0.00    +0.000 C 
ATOM      8  O   UNL     1       1.620  11.815  19.665  0.00  0.00    +0.000 OA
ATOM      9  N   UNL     1       0.493   9.864  20.276  0.00  0.00    +0.000 N 
ATOM     10  H   UNL     1      -0.392   9.553  20.671  0.00  0.00    +0.000 HD
BRANCH   7  11
ATOM     11  C   UNL     1      -0.169  12.017  21.217  0.00  0.00    +0.000 C 
BRANCH  11  15
ATOM     12  C   UNL     1      -3.601  11.450  17.743  0.00  0.00    +0.000 C 
ATOM     13  C   UNL     1      -3.009  11.899  19.030  0.00  0.00    +0.000 A 
ATOM     14  N   UNL     1      -1.745  11.745  19.357  0.00  0.00    +0.000 NA
ATOM     15  C   UNL     1      -1.530  12.197  20.652  0.00  0.00    +0.000 A 
ATOM     16  C   UNL     1      -2.637  12.765  21.263  0.00  0.00    +0.000 A 
ATOM     17  C   UNL     1      -2.781  13.385  22.610  0.00  0.00    +0.000 C 
ATOM     18  S   UNL     1      -3.988  12.669  20.210  0.00  0.00    +0.000 S 
ENDBRANCH  11  15
ENDBRANCH   7  11
ENDBRANCH   1   9
BRANCH   4  19
ATOM     19  C   UNL     1       3.707   5.891  17.617  0.00  0.00    +0.000 C 
BRANCH  19  20
ATOM     20  C   UNL     1       5.067   5.669  18.307  0.00  0.00    +0.000 C 
BRANCH  20  21
ATOM     21  N   UNL     1       5.544   4.286  18.169  0.00  0.00    +0.000 NA
ATOM     22  H   UNL     1       5.848   3.945  19.085  0.00  0.00    +0.000 HD
BRANCH  21  23
ATOM     23  C   UNL     1       4.451   3.420  17.672  0.00  0.00    +0.000 C 
BRANCH  23  24
ATOM     24  C   UNL     1       4.186   2.235  18.636  0.00  0.00    +0.000 C 
BRANCH  24  25
ATOM     25  C   UNL     1       3.131   2.568  19.659  0.00  0.00    +0.000 A 
ATOM     26  C   UNL     1       1.869   3.051  19.296  0.00  0.00    +0.000 A 
ATOM     27  C   UNL     1       0.927   3.348  20.275  0.00  0.00    +0.000 A 
ATOM     28  C   UNL     1       1.284   3.166  21.599  0.00  0.00    +0.000 A 
ATOM     29  N   UNL     1       2.495   2.720  21.996  0.00  0.00    +0.000 NA
ATOM     30  C   UNL     1       3.386   2.428  21.020  0.00  0.00    +0.000 A 
ENDBRANCH  24  25
BRANCH  24  31
ATOM     31  O   UNL     1       3.764   1.082  17.897  0.00  0.00    +0.000 OA
ATOM     32  H   UNL     1       3.361   0.478  18.550  0.00  0.00    +0.000 HD
ENDBRANCH  24  31
ENDBRANCH  23  24
ENDBRANCH  21  23
ENDBRANCH  20  21
ENDBRANCH  19  20
ENDBRANCH   4  19
TORSDOF 10
ENDMDL
MODEL 4
REMARK VINA RESULT:      -7.0      2.394      4.100
REMARK  Name = 
REMARK  12 active torsions:
REMARK  status: ('A' for Active; 'I' for Inactive)
REMARK    1  A    between atoms: C_1  and  C_2
REMARK    2  A    between atoms: C_4  and  C_5
REMARK    3  A    between atoms: C_5  and  C_6
REMARK    4  A    between atoms: N_8  and  C_9
REMARK    5  A    between atoms: C_12  and  C_13
REMARK    6  A    between atoms: C_13  and  C_14
REMARK    7  A    between atoms: C_14  and  N_15
REMARK    8  A    between atoms: N_15  and  C_16
REMARK    9  A    between atoms: C_16  and  C_17
REMARK   10  A    between atoms: C_17  and  O_18
REMARK   11  A    between atoms: C_17  and  C_19
REMARK   12  A    between atoms: C_27  and  C_28
REMARK                            x       y       z     vdW  Elec       q    Type
REMARK                         _______ _______ _______ _____ _____    ______ ____
ROOT
ATOM      1  C   UNL     1       1.880   6.808  20.336  0.00  0.00    +0.000 A 
ATOM      2  C   UNL     1       2.281   7.081  19.029  0.00  0.00    +0.000 A 
ATOM      3  C   UNL     1       2.380   6.062  18.078  0.00  0.00    +0.000 A 
ATOM      4  C   UNL     1       2.111   4.736  18.418  0.00  0.00    +0.000 A 
ATOM      5  C   UNL     1       1.710   4.455  19.730  0.00  0.00    +0.000 A 
ATOM      6  C   UNL     1       1.602   5.481  20.685  0.00  0.00    +0.000 A 
ENDROOT
BRANCH   1   9
ATOM      7  C   UNL     1       0.588   8.416  21.744  0.00  0.00    +0.000 C 
ATOM      8  O   UNL     1      -0.549   8.090  21.410  0.00  0.00    +0.000 OA
ATOM      9  N   UNL     1       1.767   7.811  21.325  0.00  0.00    +0.000 N 
ATOM     10  H   UNL     1       2.611   8.045  21.843  0.00  0.00    +0.000 HD
BRANCH   7  11
ATOM     11  C   UNL     1       0.789   9.605  22.660  0.00  0.00    +0.000 C 
BRANCH  11  15
ATOM     12  C   UNL     1      -3.210  12.295  23.636  0.00  0.00    +0.000 C 
ATOM     13  C   UNL     1      -1.999  11.850  22.898  0.00  0.00    +0.000 A 
ATOM     14  N   UNL     1      -1.284  10.793  23.217  0.00  0.00    +0.000 NA
ATOM     15  C   UNL     1      -0.178  10.698  22.383  0.00  0.00    +0.000 A 
ATOM     16  C   UNL     1      -0.116  11.657  21.384  0.00  0.00    +0.000 A 
ATOM     17  C   UNL     1       0.883  11.850  20.296  0.00  0.00    +0.000 C 
ATOM     18  S   UNL     1      -1.441  12.735  21.539  0.00  0.00    +0.000 S 
ENDBRANCH  11  15
ENDBRANCH   7  11
ENDBRANCH   1   9
BRANCH   4  19
ATOM     19  C   UNL     1       2.270   3.642  17.382  0.00  0.00    +0.000 C 
BRANCH  19  20
ATOM     20  C   UNL     1       3.364   2.629  17.776  0.00  0.00    +0.000 C 
BRANCH  20  21
ATOM     21  N   UNL     1       4.693   3.249  17.865  0.00  0.00    +0.000 NA
ATOM     22  H   UNL     1       5.338   2.592  18.313  0.00  0.00    +0.000 HD
BRANCH  21  23
ATOM     23  C   UNL     1       5.196   3.566  16.509  0.00  0.00    +0.000 C 
BRANCH  23  24
ATOM     24  C   UNL     1       5.297   5.098  16.288  0.00  0.00    +0.000 C 
BRANCH  24  25
ATOM     25  C   UNL     1       6.332   5.726  17.185  0.00  0.00    +0.000 A 
ATOM     26  C   UNL     1       6.744   7.054  17.029  0.00  0.00    +0.000 A 
ATOM     27  C   UNL     1       7.704   7.592  17.879  0.00  0.00    +0.000 A 
ATOM     28  C   UNL     1       8.239   6.775  18.859  0.00  0.00    +0.000 A 
ATOM     29  N   UNL     1       7.886   5.483  19.034  0.00  0.00    +0.000 NA
ATOM     30  C   UNL     1       6.940   4.992  18.199  0.00  0.00    +0.000 A 
ENDBRANCH  24  25
BRANCH  24  31
ATOM     31  O   UNL     1       5.636   5.379  14.925  0.00  0.00    +0.000 OA
ATOM     32  H   UNL     1       6.548   5.726  14.942  0.00  0.00    +0.000 HD
ENDBRANCH  24  31
ENDBRANCH  23  24
ENDBRANCH  21  23
ENDBRANCH  20  21
ENDBRANCH  19  20
ENDBRANCH   4  19
TORSDOF 10
ENDMDL
MODEL 5
REMARK VINA RESULT:      -7.0      2.003      2.778
REMARK  Name = 
REMARK  12 active torsions:
REMARK  status: ('A' for Active; 'I' for Inactive)
REMARK    1  A    between atoms: C_1  and  C_2
REMARK    2  A    between atoms: C_4  and  C_5
REMARK    3  A    between atoms: C_5  and  C_6
REMARK    4  A    between atoms: N_8  and  C_9
REMARK    5  A    between atoms: C_12  and  C_13
REMARK    6  A    between atoms: C_13  and  C_14
REMARK    7  A    between atoms: C_14  and  N_15
REMARK    8  A    between atoms: N_15  and  C_16
REMARK    9  A    between atoms: C_16  and  C_17
REMARK   10  A    between atoms: C_17  and  O_18
REMARK   11  A    between atoms: C_17  and  C_19
REMARK   12  A    between atoms: C_27  and  C_28
REMARK                            x       y       z     vdW  Elec       q    Type
REMARK                         _______ _______ _______ _____ _____    ______ ____
ROOT
ATOM      1  C   UNL     1       1.137   9.094  19.028  0.00  0.00    +0.000 A 
ATOM      2  C   UNL     1       1.832   8.932  17.829  0.00  0.00    +0.000 A 
ATOM      3  C   UNL     1       2.768   7.908  17.671  0.00  0.00    +0.000 A 
ATOM      4  C   UNL     1       3.059   7.035  18.720  0.00  0.00    +0.000 A 
ATOM      5  C   UNL     1       2.366   7.193  19.927  0.00  0.00    +0.000 A 
ATOM      6  C   UNL     1       1.418   8.218  20.083  0.00  0.00    +0.000 A 
ENDROOT
BRANCH   1   9
ATOM      7  C   UNL     1       0.446  11.478  19.299  0.00  0.00    +0.000 C 
ATOM      8  O   UNL     1       1.531  12.016  19.082  0.00  0.00    +0.000 OA
ATOM      9  N   UNL     1       0.182  10.116  19.225  0.00  0.00    +0.000 N 
ATOM     10  H   UNL     1      -0.797   9.840  19.221  0.00  0.00    +0.000 HD
BRANCH   7  11
ATOM     11  C   UNL     1      -0.735  12.321  19.731  0.00  0.00    +0.000 C 
BRANCH  11  15
ATOM     12  C   UNL     1      -3.086  10.725  15.719  0.00  0.00    +0.000 C 
ATOM     13  C   UNL     1      -2.924  11.306  17.078  0.00  0.00    +0.000 A 
ATOM     14  N   UNL     1      -1.764  11.586  17.629  0.00  0.00    +0.000 NA
ATOM     15  C   UNL     1      -1.952  12.039  18.928  0.00  0.00    +0.000 A 
ATOM     16  C   UNL     1      -3.276  12.169  19.315  0.00  0.00    +0.000 A 
ATOM     17  C   UNL     1      -3.862  12.653  20.597  0.00  0.00    +0.000 C 
ATOM     18  S   UNL     1      -4.301  11.648  18.042  0.00  0.00    +0.000 S 
ENDBRANCH  11  15
ENDBRANCH   7  11
ENDBRANCH   1   9
BRANCH   4  19
ATOM     19  C   UNL     1       4.112   5.961  18.540  0.00  0.00    +0.000 C 
BRANCH  19  20
ATOM     20  C   UNL     1       4.602   5.872  17.081  0.00  0.00    +0.000 C 
BRANCH  20  21
ATOM     21  N   UNL     1       4.440   4.524  16.519  0.00  0.00    +0.000 NA
ATOM     22  H   UNL     1       5.187   4.355  15.840  0.00  0.00    +0.000 HD
BRANCH  21  23
ATOM     23  C   UNL     1       4.528   3.512  17.595  0.00  0.00    +0.000 C 
BRANCH  23  24
ATOM     24  C   UNL     1       3.216   2.694  17.711  0.00  0.00    +0.000 C 
BRANCH  24  25
ATOM     25  C   UNL     1       2.603   2.808  19.082  0.00  0.00    +0.000 A 
ATOM     26  C   UNL     1       3.335   2.554  20.248  0.00  0.00    +0.000 A 
ATOM     27  C   UNL     1       2.727   2.669  21.493  0.00  0.00    +0.000 A 
ATOM     28  C   UNL     1       1.390   3.025  21.535  0.00  0.00    +0.000 A 
ATOM     29  N   UNL     1       0.641   3.262  20.437  0.00  0.00    +0.000 NA
ATOM     30  C   UNL     1       1.264   3.153  19.241  0.00  0.00    +0.000 A 
ENDBRANCH  24  25
BRANCH  24  31
ATOM     31  O   UNL     1       2.265   3.148  16.741  0.00  0.00    +0.000 OA
ATOM     32  H   UNL     1       2.669   3.928  16.314  0.00  0.00    +0.000 HD
ENDBRANCH  24  31
ENDBRANCH  23  24
ENDBRANCH  21  23
ENDBRANCH  20  21
ENDBRANCH  19  20
ENDBRANCH   4  19
TORSDOF 10
ENDMDL
MODEL 6
REMARK VINA RESULT:      -6.9      2.448      4.485
REMARK  Name = 
REMARK  12 active torsions:
REMARK  status: ('A' for Active; 'I' for Inactive)
REMARK    1  A    between atoms: C_1  and  C_2
REMARK    2  A    between atoms: C_4  and  C_5
REMARK    3  A    between atoms: C_5  and  C_6
REMARK    4  A    between atoms: N_8  and  C_9
REMARK    5  A    between atoms: C_12  and  C_13
REMARK    6  A    between atoms: C_13  and  C_14
REMARK    7  A    between atoms: C_14  and  N_15
REMARK    8  A    between atoms: N_15  and  C_16
REMARK    9  A    between atoms: C_16  and  C_17
REMARK   10  A    between atoms: C_17  and  O_18
REMARK   11  A    between atoms: C_17  and  C_19
REMARK   12  A    between atoms: C_27  and  C_28
REMARK                            x       y       z     vdW  Elec       q    Type
REMARK                         _______ _______ _______ _____ _____    ______ ____
ROOT
ATOM      1  C   UNL     1       1.788   7.066  20.444  0.00  0.00    +0.000 A 
ATOM      2  C   UNL     1       1.535   5.703  20.604  0.00  0.00    +0.000 A 
ATOM      3  C   UNL     1       1.817   4.793  19.584  0.00  0.00    +0.000 A 
ATOM      4  C   UNL     1       2.331   5.224  18.360  0.00  0.00    +0.000 A 
ATOM      5  C   UNL     1       2.585   6.591  18.192  0.00  0.00    +0.000 A 
ATOM      6  C   UNL     1       2.310   7.506  19.222  0.00  0.00    +0.000 A 
ENDROOT
BRANCH   1   9
ATOM      7  C   UNL     1       0.258   8.421  21.879  0.00  0.00    +0.000 C 
ATOM      8  O   UNL     1      -0.814   7.927  21.533  0.00  0.00    +0.000 OA
ATOM      9  N   UNL     1       1.517   8.017  21.453  0.00  0.00    +0.000 N 
ATOM     10  H   UNL     1       2.313   8.371  21.979  0.00  0.00    +0.000 HD
BRANCH   7  11
ATOM     11  C   UNL     1       0.267   9.607  22.819  0.00  0.00    +0.000 C 
BRANCH  11  15
ATOM     12  C   UNL     1       1.666  12.907  19.454  0.00  0.00    +0.000 C 
ATOM     13  C   UNL     1       0.858  12.329  20.559  0.00  0.00    +0.000 A 
ATOM     14  N   UNL     1       1.141  11.199  21.170  0.00  0.00    +0.000 NA
ATOM     15  C   UNL     1       0.152  10.900  22.097  0.00  0.00    +0.000 A 
ATOM     16  C   UNL     1      -0.838  11.862  22.226  0.00  0.00    +0.000 A 
ATOM     17  C   UNL     1      -2.022  11.910  23.130  0.00  0.00    +0.000 C 
ATOM     18  S   UNL     1      -0.550  13.136  21.115  0.00  0.00    +0.000 S 
ENDBRANCH  11  15
ENDBRANCH   7  11
ENDBRANCH   1   9
BRANCH   4  19
ATOM     19  C   UNL     1       2.586   4.223  17.252  0.00  0.00    +0.000 C 
BRANCH  19  20
ATOM     20  C   UNL     1       2.972   2.837  17.804  0.00  0.00    +0.000 C 
BRANCH  20  21
ATOM     21  N   UNL     1       4.342   2.808  18.333  0.00  0.00    +0.000 NA
ATOM     22  H   UNL     1       4.756   1.893  18.137  0.00  0.00    +0.000 HD
BRANCH  21  23
ATOM     23  C   UNL     1       5.159   3.856  17.682  0.00  0.00    +0.000 C 
BRANCH  23  24
ATOM     24  C   UNL     1       6.308   4.335  18.607  0.00  0.00    +0.000 C 
BRANCH  24  25
ATOM     25  C   UNL     1       6.806   5.703  18.222  0.00  0.00    +0.000 A 
ATOM     26  C   UNL     1       7.865   6.325  18.893  0.00  0.00    +0.000 A 
ATOM     27  C   UNL     1       8.290   7.591  18.504  0.00  0.00    +0.000 A 
ATOM     28  C   UNL     1       7.628   8.208  17.458  0.00  0.00    +0.000 A 
ATOM     29  N   UNL     1       6.590   7.655  16.795  0.00  0.00    +0.000 NA
ATOM     30  C   UNL     1       6.208   6.417  17.188  0.00  0.00    +0.000 A 
ENDBRANCH  24  25
BRANCH  24  31
ATOM     31  O   UNL     1       5.862   4.371  19.968  0.00  0.00    +0.000 OA
ATOM     32  H   UNL     1       5.735   3.441  20.234  0.00  0.00    +0.000 HD
ENDBRANCH  24  31
ENDBRANCH  23  24
ENDBRANCH  21  23
ENDBRANCH  20  21
ENDBRANCH  19  20
ENDBRANCH   4  19
TORSDOF 10
ENDMDL
MODEL 7
REMARK VINA RESULT:      -6.9      2.093      2.796
REMARK  Name = 
REMARK  12 active torsions:
REMARK  status: ('A' for Active; 'I' for Inactive)
REMARK    1  A    between atoms: C_1  and  C_2
REMARK    2  A    between atoms: C_4  and  C_5
REMARK    3  A    between atoms: C_5  and  C_6
REMARK    4  A    between atoms: N_8  and  C_9
REMARK    5  A    between atoms: C_12  and  C_13
REMARK    6  A    between atoms: C_13  and  C_14
REMARK    7  A    between atoms: C_14  and  N_15
REMARK    8  A    between atoms: N_15  and  C_16
REMARK    9  A    between atoms: C_16  and  C_17
REMARK   10  A    between atoms: C_17  and  O_18
REMARK   11  A    between atoms: C_17  and  C_19
REMARK   12  A    between atoms: C_27  and  C_28
REMARK                            x       y       z     vdW  Elec       q    Type
REMARK                         _______ _______ _______ _____ _____    ______ ____
ROOT
ATOM      1  C   UNL     1       1.534   8.766  19.560  0.00  0.00    +0.000 A 
ATOM      2  C   UNL     1       1.894   7.530  20.097  0.00  0.00    +0.000 A 
ATOM      3  C   UNL     1       2.721   6.652  19.393  0.00  0.00    +0.000 A 
ATOM      4  C   UNL     1       3.185   6.972  18.116  0.00  0.00    +0.000 A 
ATOM      5  C   UNL     1       2.825   8.211  17.570  0.00  0.00    +0.000 A 
ATOM      6  C   UNL     1       2.001   9.099  18.283  0.00  0.00    +0.000 A 
ENDROOT
BRANCH   1   9
ATOM      7  C   UNL     1      -0.435  10.292  19.728  0.00  0.00    +0.000 C 
ATOM      8  O   UNL     1      -0.964  10.039  18.646  0.00  0.00    +0.000 OA
ATOM      9  N   UNL     1       0.702   9.682  20.242  0.00  0.00    +0.000 N 
ATOM     10  H   UNL     1       0.899   9.838  21.228  0.00  0.00    +0.000 HD
BRANCH   7  11
ATOM     11  C   UNL     1      -1.006  11.388  20.603  0.00  0.00    +0.000 C 
BRANCH  11  15
ATOM     12  C   UNL     1       2.886  14.136  19.388  0.00  0.00    +0.000 C 
ATOM     13  C   UNL     1       1.729  13.673  20.198  0.00  0.00    +0.000 A 
ATOM     14  N   UNL     1       1.011  12.607  19.922  0.00  0.00    +0.000 NA
ATOM     15  C   UNL     1      -0.039  12.494  20.822  0.00  0.00    +0.000 A 
ATOM     16  C   UNL     1      -0.053  13.450  21.826  0.00  0.00    +0.000 A 
ATOM     17  C   UNL     1      -0.985  13.626  22.975  0.00  0.00    +0.000 C 
ATOM     18  S   UNL     1       1.245  14.547  21.592  0.00  0.00    +0.000 S 
ENDBRANCH  11  15
ENDBRANCH   7  11
ENDBRANCH   1   9
BRANCH   4  19
ATOM     19  C   UNL     1       4.042   5.983  17.352  0.00  0.00    +0.000 C 
BRANCH  19  20
ATOM     20  C   UNL     1       5.532   6.104  17.726  0.00  0.00    +0.000 C 
BRANCH  20  21
ATOM     21  N   UNL     1       5.969   5.033  18.633  0.00  0.00    +0.000 NA
ATOM     22  H   UNL     1       5.795   5.323  19.599  0.00  0.00    +0.000 HD
BRANCH  21  23
ATOM     23  C   UNL     1       5.208   3.794  18.358  0.00  0.00    +0.000 C 
BRANCH  23  24
ATOM     24  C   UNL     1       4.697   3.142  19.669  0.00  0.00    +0.000 C 
BRANCH  24  25
ATOM     25  C   UNL     1       3.193   3.085  19.718  0.00  0.00    +0.000 A 
ATOM     26  C   UNL     1       2.414   2.958  18.562  0.00  0.00    +0.000 A 
ATOM     27  C   UNL     1       1.028   2.912  18.655  0.00  0.00    +0.000 A 
ATOM     28  C   UNL     1       0.455   3.009  19.911  0.00  0.00    +0.000 A 
ATOM     29  N   UNL     1       1.165   3.151  21.051  0.00  0.00    +0.000 NA
ATOM     30  C   UNL     1       2.513   3.181  20.929  0.00  0.00    +0.000 A 
ENDBRANCH  24  25
BRANCH  24  31
ATOM     31  O   UNL     1       5.214   1.812  19.792  0.00  0.00    +0.000 OA
ATOM     32  H   UNL     1       5.950   1.750  19.154  0.00  0.00    +0.000 HD
ENDBRANCH  24  31
ENDBRANCH  23  24
ENDBRANCH  21  23
ENDBRANCH  20  21
ENDBRANCH  19  20
ENDBRANCH   4  19
TORSDOF 10
ENDMDL
MODEL 8
REMARK VINA RESULT:      -6.9      2.283      4.008
REMARK  Name = 
REMARK  12 active torsions:
REMARK  status: ('A' for Active; 'I' for Inactive)
REMARK    1  A    between atoms: C_1  and  C_2
REMARK    2  A    between atoms: C_4  and  C_5
REMARK    3  A    between atoms: C_5  and  C_6
REMARK    4  A    between atoms: N_8  and  C_9
REMARK    5  A    between atoms: C_12  and  C_13
REMARK    6  A    between atoms: C_13  and  C_14
REMARK    7  A    between atoms: C_14  and  N_15
REMARK    8  A    between atoms: N_15  and  C_16
REMARK    9  A    between atoms: C_16  and  C_17
REMARK   10  A    between atoms: C_17  and  O_18
REMARK   11  A    between atoms: C_17  and  C_19
REMARK   12  A    between atoms: C_27  and  C_28
REMARK                            x       y       z     vdW  Elec       q    Type
REMARK                         _______ _______ _______ _____ _____    ______ ____
ROOT
ATOM      1  C   UNL     1       1.653   7.708  20.071  0.00  0.00    +0.000 A 
ATOM      2  C   UNL     1       2.597   7.599  19.050  0.00  0.00    +0.000 A 
ATOM      3  C   UNL     1       3.322   6.420  18.862  0.00  0.00    +0.000 A 
ATOM      4  C   UNL     1       3.145   5.327  19.711  0.00  0.00    +0.000 A 
ATOM      5  C   UNL     1       2.200   5.431  20.739  0.00  0.00    +0.000 A 
ATOM      6  C   UNL     1       1.464   6.614  20.923  0.00  0.00    +0.000 A 
ENDROOT
BRANCH   1   9
ATOM      7  C   UNL     1       0.880   9.633  21.461  0.00  0.00    +0.000 C 
ATOM      8  O   UNL     1       1.606   9.464  22.440  0.00  0.00    +0.000 OA
ATOM      9  N   UNL     1       0.899   8.883  20.292  0.00  0.00    +0.000 N 
ATOM     10  H   UNL     1       0.397   9.266  19.494  0.00  0.00    +0.000 HD
BRANCH   7  11
ATOM     11  C   UNL     1      -0.179  10.715  21.492  0.00  0.00    +0.000 C 
BRANCH  11  15
ATOM     12  C   UNL     1       2.463  13.122  18.115  0.00  0.00    +0.000 C 
ATOM     13  C   UNL     1       1.266  12.743  18.909  0.00  0.00    +0.000 A 
ATOM     14  N   UNL     1       1.284  11.905  19.923  0.00  0.00    +0.000 NA
ATOM     15  C   UNL     1      -0.004  11.705  20.398  0.00  0.00    +0.000 A 
ATOM     16  C   UNL     1      -0.981  12.465  19.774  0.00  0.00    +0.000 A 
ATOM     17  C   UNL     1      -2.447  12.549  20.031  0.00  0.00    +0.000 C 
ATOM     18  S   UNL     1      -0.271  13.401  18.525  0.00  0.00    +0.000 S 
ENDBRANCH  11  15
ENDBRANCH   7  11
ENDBRANCH   1   9
BRANCH   4  19
ATOM     19  C   UNL     1       3.976   4.075  19.516  0.00  0.00    +0.000 C 
BRANCH  19  20
ATOM     20  C   UNL     1       3.346   3.119  18.484  0.00  0.00    +0.000 C 
BRANCH  20  21
ATOM     21  N   UNL     1       4.234   2.866  17.341  0.00  0.00    +0.000 NA
ATOM     22  H   UNL     1       3.907   2.035  16.842  0.00  0.00    +0.000 HD
BRANCH  21  23
ATOM     23  C   UNL     1       4.212   4.022  16.416  0.00  0.00    +0.000 C 
BRANCH  23  24
ATOM     24  C   UNL     1       5.629   4.337  15.871  0.00  0.00    +0.000 C 
BRANCH  24  25
ATOM     25  C   UNL     1       6.439   5.145  16.851  0.00  0.00    +0.000 A 
ATOM     26  C   UNL     1       6.475   6.543  16.812  0.00  0.00    +0.000 A 
ATOM     27  C   UNL     1       7.240   7.248  17.736  0.00  0.00    +0.000 A 
ATOM     28  C   UNL     1       7.963   6.527  18.668  0.00  0.00    +0.000 A 
ATOM     29  N   UNL     1       7.974   5.178  18.732  0.00  0.00    +0.000 NA
ATOM     30  C   UNL     1       7.210   4.521  17.827  0.00  0.00    +0.000 A 
ENDBRANCH  24  25
BRANCH  24  31
ATOM     31  O   UNL     1       6.329   3.121  15.585  0.00  0.00    +0.000 OA
ATOM     32  H   UNL     1       5.761   2.625  14.964  0.00  0.00    +0.000 HD
ENDBRANCH  24  31
ENDBRANCH  23  24
ENDBRANCH  21  23
ENDBRANCH  20  21
ENDBRANCH  19  20
ENDBRANCH   4  19
TORSDOF 10
ENDMDL
MODEL 9
REMARK VINA RESULT:      -6.8      1.725      2.372
REMARK  Name = 
REMARK  12 active torsions:
REMARK  status: ('A' for Active; 'I' for Inactive)
REMARK    1  A    between atoms: C_1  and  C_2
REMARK    2  A    between atoms: C_4  and  C_5
REMARK    3  A    between atoms: C_5  and  C_6
REMARK    4  A    between atoms: N_8  and  C_9
REMARK    5  A    between atoms: C_12  and  C_13
REMARK    6  A    between atoms: C_13  and  C_14
REMARK    7  A    between atoms: C_14  and  N_15
REMARK    8  A    between atoms: N_15  and  C_16
REMARK    9  A    between atoms: C_16  and  C_17
REMARK   10  A    between atoms: C_17  and  O_18
REMARK   11  A    between atoms: C_17  and  C_19
REMARK   12  A    between atoms: C_27  and  C_28
REMARK                            x       y       z     vdW  Elec       q    Type
REMARK                         _______ _______ _______ _____ _____    ______ ____
ROOT
ATOM      1  C   UNL     1       1.156   8.620  19.740  0.00  0.00    +0.000 A 
ATOM      2  C   UNL     1       1.579   9.067  18.488  0.00  0.00    +0.000 A 
ATOM      3  C   UNL     1       2.479   8.323  17.723  0.00  0.00    +0.000 A 
ATOM      4  C   UNL     1       3.008   7.123  18.202  0.00  0.00    +0.000 A 
ATOM      5  C   UNL     1       2.589   6.670  19.460  0.00  0.00    +0.000 A 
ATOM      6  C   UNL     1       1.677   7.415  20.226  0.00  0.00    +0.000 A 
ENDROOT
BRANCH   1   9
ATOM      7  C   UNL     1       0.565  10.082  21.676  0.00  0.00    +0.000 C 
ATOM      8  O   UNL     1       1.700  10.321  22.087  0.00  0.00    +0.000 OA
ATOM      9  N   UNL     1       0.247   9.344  20.543  0.00  0.00    +0.000 N 
ATOM     10  H   UNL     1      -0.713   9.407  20.210  0.00  0.00    +0.000 HD
BRANCH   7  11
ATOM     11  C   UNL     1      -0.634  10.573  22.459  0.00  0.00    +0.000 C 
BRANCH  11  15
ATOM     12  C   UNL     1      -0.596  15.366  23.557  0.00  0.00    +0.000 C 
ATOM     13  C   UNL     1      -0.880  14.139  22.769  0.00  0.00    +0.000 A 
ATOM     14  N   UNL     1      -0.632  12.916  23.186  0.00  0.00    +0.000 NA
ATOM     15  C   UNL     1      -0.937  12.002  22.187  0.00  0.00    +0.000 A 
ATOM     16  C   UNL     1      -1.490  12.551  21.041  0.00  0.00    +0.000 A 
ATOM     17  C   UNL     1      -1.972  11.894  19.794  0.00  0.00    +0.000 C 
ATOM     18  S   UNL     1      -1.568  14.258  21.202  0.00  0.00    +0.000 S 
ENDBRANCH  11  15
ENDBRANCH   7  11
ENDBRANCH   1   9
BRANCH   4  19
ATOM     19  C   UNL     1       4.018   6.357  17.374  0.00  0.00    +0.000 C 
BRANCH  19  20
ATOM     20  C   UNL     1       5.197   5.849  18.228  0.00  0.00    +0.000 C 
BRANCH  20  21
ATOM     21  N   UNL     1       5.141   4.397  18.449  0.00  0.00    +0.000 NA
ATOM     22  H   UNL     1       4.855   4.218  19.416  0.00  0.00    +0.000 HD
BRANCH  21  23
ATOM     23  C   UNL     1       4.155   3.782  17.533  0.00  0.00    +0.000 C 
BRANCH  23  24
ATOM     24  C   UNL     1       3.587   2.463  18.118  0.00  0.00    +0.000 C 
BRANCH  24  25
ATOM     25  C   UNL     1       2.831   2.696  19.400  0.00  0.00    +0.000 A 
ATOM     26  C   UNL     1       1.541   3.238  19.414  0.00  0.00    +0.000 A 
ATOM     27  C   UNL     1       0.881   3.439  20.622  0.00  0.00    +0.000 A 
ATOM     28  C   UNL     1       1.543   3.102  21.789  0.00  0.00    +0.000 A 
ATOM     29  N   UNL     1       2.793   2.595  21.825  0.00  0.00    +0.000 NA
ATOM     30  C   UNL     1       3.404   2.400  20.632  0.00  0.00    +0.000 A 
ENDBRANCH  24  25
BRANCH  24  31
ATOM     31  O   UNL     1       2.710   1.841  17.171  0.00  0.00    +0.000 OA
ATOM     32  H   UNL     1       1.805   2.085  17.444  0.00  0.00    +0.000 HD
ENDBRANCH  24  31
ENDBRANCH  23  24
ENDBRANCH  21  23
ENDBRANCH  20  21
ENDBRANCH  19  20
ENDBRANCH   4  19
TORSDOF 10
ENDMDL
