MODEL 1
REMARK VINA RESULT:      -8.5      0.000      0.000
REMARK  Name = 
REMARK  9 active torsions:
REMARK  status: ('A' for Active; 'I' for Inactive)
REMARK    1  A    between atoms: C_1  and  O_2
REMARK    2  A    between atoms: O_2  and  C_3
REMARK    3  A    between atoms: C_3  and  C_5
REMARK    4  A    between atoms: C_5  and  N_6
REMARK    5  A    between atoms: N_9  and  C_10
REMARK    6  A    between atoms: C_10  and  C_11
REMARK    7  A    between atoms: C_14  and  C_15
REMARK    8  A    between atoms: N_22  and  C_23
REMARK    9  A    between atoms: C_33  and  C_34
REMARK                            x       y       z     vdW  Elec       q    Type
REMARK                         _______ _______ _______ _____ _____    ______ ____
ROOT
ATOM      1  C   UNL     1       2.059   7.753  18.997  0.00  0.00    +0.000 A 
ATOM      2  C   UNL     1       2.354   8.572  17.884  0.00  0.00    +0.000 A 
ATOM      3  C   UNL     1       2.000   9.931  17.851  0.00  0.00    +0.000 A 
ATOM      4  C   UNL     1       1.337  10.497  18.939  0.00  0.00    +0.000 A 
ATOM      5  C   UNL     1       0.999   9.682  20.029  0.00  0.00    +0.000 A 
ATOM      6  C   UNL     1       1.405   8.336  20.100  0.00  0.00    +0.000 A 
ATOM      7  C   UNL     1       1.124   7.613  21.390  0.00  0.00    +0.000 C 
ENDROOT
BRANCH   4   8
ATOM      8  C   UNL     1       1.029  11.953  19.082  0.00  0.00    +0.000 C 
ATOM      9  O   UNL     1       2.014  12.681  19.241  0.00  0.00    +0.000 OA
ATOM     10  N   UNL     1      -0.288  12.465  19.001  0.00  0.00    +0.000 N 
ATOM     11  C   UNL     1      -0.389  13.932  19.054  0.00  0.00    +0.000 C 
ATOM     12  C   UNL     1      -1.336  14.427  20.067  0.00  0.00    +0.000 A 
ATOM     13  C   UNL     1      -1.232  15.592  20.866  0.00  0.00    +0.000 A 
ATOM     14  N   UNL     1      -2.325  15.812  21.603  0.00  0.00    +0.000 NA
ATOM     15  N   UNL     1      -3.131  14.783  21.277  0.00  0.00    +0.000 N 
ATOM     16  C   UNL     1      -4.473  14.739  21.807  0.00  0.00    +0.000 C 
ATOM     17  C   UNL     1      -2.567  13.912  20.376  0.00  0.00    +0.000 A 
ATOM     18  N   UNL     1      -3.211  12.827  19.910  0.00  0.00    +0.000 N 
ATOM     19  C   UNL     1      -2.751  11.895  18.951  0.00  0.00    +0.000 A 
ATOM     20  C   UNL     1      -3.749  11.012  18.465  0.00  0.00    +0.000 A 
ATOM     21  C   UNL     1      -3.473  10.015  17.538  0.00  0.00    +0.000 A 
ATOM     22  C   UNL     1      -2.200   9.916  17.013  0.00  0.00    +0.000 A 
ATOM     23  C   UNL     1      -1.208  10.801  17.439  0.00  0.00    +0.000 A 
ATOM     24  C   UNL     1      -1.425  11.747  18.465  0.00  0.00    +0.000 A 
ATOM     25  H   UNL     1      -4.176  12.666  20.180  0.00  0.00    +0.000 HD
ENDBRANCH   4   8
BRANCH   1  26
ATOM     26  C   UNL     1       2.461   6.292  18.958  0.00  0.00    +0.000 C 
BRANCH  26  30
ATOM     27  N   UNL     1       4.661   4.879  16.429  0.00  0.00    +0.000 N 
ATOM     28  C   UNL     1       4.107   4.973  17.681  0.00  0.00    +0.000 C 
ATOM     29  O   UNL     1       4.497   4.324  18.641  0.00  0.00    +0.000 OA
ATOM     30  N   UNL     1       3.115   5.914  17.722  0.00  0.00    +0.000 N 
ATOM     31  H   UNL     1       4.661   5.750  15.917  0.00  0.00    +0.000 HD
ATOM     32  H   UNL     1       2.628   6.096  16.859  0.00  0.00    +0.000 HD
BRANCH  27  33
ATOM     33  C   UNL     1       5.828   4.028  16.225  0.00  0.00    +0.000 C 
BRANCH  33  34
ATOM     34  C   UNL     1       7.178   4.754  16.270  0.00  0.00    +0.000 C 
ATOM     35  O   UNL     1       7.547   5.534  15.398  0.00  0.00    +0.000 OA
BRANCH  34  37
ATOM     36  C   UNL     1       7.727   5.459  18.433  0.00  0.00    +0.000 C 
ATOM     37  O   UNL     1       7.874   4.476  17.404  0.00  0.00    +0.000 OA
ENDBRANCH  34  37
ENDBRANCH  33  34
ENDBRANCH  27  33
ENDBRANCH  26  30
ENDBRANCH   1  26
TORSDOF 6
ENDMDL
MODEL 2
REMARK VINA RESULT:      -8.2      0.860      1.306
REMARK  Name = 
REMARK  9 active torsions:
REMARK  status: ('A' for Active; 'I' for Inactive)
REMARK    1  A    between atoms: C_1  and  O_2
REMARK    2  A    between atoms: O_2  and  C_3
REMARK    3  A    between atoms: C_3  and  C_5
REMARK    4  A    between atoms: C_5  and  N_6
REMARK    5  A    between atoms: N_9  and  C_10
REMARK    6  A    between atoms: C_10  and  C_11
REMARK    7  A    between atoms: C_14  and  C_15
REMARK    8  A    between atoms: N_22  and  C_23
REMARK    9  A    between atoms: C_33  and  C_34
REMARK                            x       y       z     vdW  Elec       q    Type
REMARK                         _______ _______ _______ _____ _____    ______ ____
ROOT
ATOM      1  C   UNL     1       2.073   7.744  19.018  0.00  0.00    +0.000 A 
ATOM      2  C   UNL     1       2.379   8.542  17.891  0.00  0.00    +0.000 A 
ATOM      3  C   UNL     1       2.033   9.902  17.832  0.00  0.00    +0.000 A 
ATOM      4  C   UNL     1       1.365  10.491  18.906  0.00  0.00    +0.000 A 
ATOM      5  C   UNL     1       1.016   9.697  20.007  0.00  0.00    +0.000 A 
ATOM      6  C   UNL     1       1.414   8.351  20.106  0.00  0.00    +0.000 A 
ATOM      7  C   UNL     1       1.120   7.652  21.406  0.00  0.00    +0.000 C 
ENDROOT
BRANCH   4   8
ATOM      8  C   UNL     1       1.065  11.951  19.020  0.00  0.00    +0.000 C 
ATOM      9  O   UNL     1       2.054  12.679  19.150  0.00  0.00    +0.000 OA
ATOM     10  N   UNL     1      -0.252  12.466  18.945  0.00  0.00    +0.000 N 
ATOM     11  C   UNL     1      -0.347  13.934  18.967  0.00  0.00    +0.000 C 
ATOM     12  C   UNL     1      -1.279  14.455  19.981  0.00  0.00    +0.000 A 
ATOM     13  C   UNL     1      -1.161  15.636  20.752  0.00  0.00    +0.000 A 
ATOM     14  N   UNL     1      -2.243  15.877  21.499  0.00  0.00    +0.000 NA
ATOM     15  N   UNL     1      -3.057  14.844  21.206  0.00  0.00    +0.000 N 
ATOM     16  C   UNL     1      -4.392  14.816  21.755  0.00  0.00    +0.000 C 
ATOM     17  C   UNL     1      -2.508  13.951  20.317  0.00  0.00    +0.000 A 
ATOM     18  N   UNL     1      -3.161  12.859  19.883  0.00  0.00    +0.000 N 
ATOM     19  C   UNL     1      -2.717  11.904  18.940  0.00  0.00    +0.000 A 
ATOM     20  C   UNL     1      -3.724  11.014  18.486  0.00  0.00    +0.000 A 
ATOM     21  C   UNL     1      -3.464   9.995  17.578  0.00  0.00    +0.000 A 
ATOM     22  C   UNL     1      -2.198   9.881  17.039  0.00  0.00    +0.000 A 
ATOM     23  C   UNL     1      -1.198  10.771  17.432  0.00  0.00    +0.000 A 
ATOM     24  C   UNL     1      -1.398  11.740  18.439  0.00  0.00    +0.000 A 
ATOM     25  H   UNL     1      -4.123  12.707  20.169  0.00  0.00    +0.000 HD
ENDBRANCH   4   8
BRANCH   1  26
ATOM     26  C   UNL     1       2.467   6.281  19.008  0.00  0.00    +0.000 C 
BRANCH  26  30
ATOM     27  N   UNL     1       4.915   5.282  16.509  0.00  0.00    +0.000 N 
ATOM     28  C   UNL     1       4.455   5.483  17.787  0.00  0.00    +0.000 C 
ATOM     29  O   UNL     1       5.154   5.362  18.782  0.00  0.00    +0.000 OA
ATOM     30  N   UNL     1       3.147   5.883  17.792  0.00  0.00    +0.000 N 
ATOM     31  H   UNL     1       4.487   5.886  15.822  0.00  0.00    +0.000 HD
ATOM     32  H   UNL     1       2.581   5.588  17.012  0.00  0.00    +0.000 HD
BRANCH  27  33
ATOM     33  C   UNL     1       6.328   4.988  16.296  0.00  0.00    +0.000 C 
BRANCH  33  34
ATOM     34  C   UNL     1       6.744   4.816  14.830  0.00  0.00    +0.000 C 
ATOM     35  O   UNL     1       7.721   5.376  14.343  0.00  0.00    +0.000 OA
BRANCH  34  37
ATOM     36  C   UNL     1       6.350   3.684  12.820  0.00  0.00    +0.000 C 
ATOM     37  O   UNL     1       5.946   3.937  14.169  0.00  0.00    +0.000 OA
ENDBRANCH  34  37
ENDBRANCH  33  34
ENDBRANCH  27  33
ENDBRANCH  26  30
ENDBRANCH   1  26
TORSDOF 6
ENDMDL
MODEL 3
REMARK VINA RESULT:      -8.2      1.252      1.920
REMARK  Name = 
REMARK  9 active torsions:
REMARK  status: ('A' for Active; 'I' for Inactive)
REMARK    1  A    between atoms: C_1  and  O_2
REMARK    2  A    between atoms: O_2  and  C_3
REMARK    3  A    between atoms: C_3  and  C_5
REMARK    4  A    between atoms: C_5  and  N_6
REMARK    5  A    between atoms: N_9  and  C_10
REMARK    6  A    between atoms: C_10  and  C_11
REMARK    7  A    between atoms: C_14  and  C_15
REMARK    8  A    between atoms: N_22  and  C_23
REMARK    9  A    between atoms: C_33  and  C_34
REMARK                            x       y       z     vdW  Elec       q    Type
REMARK                         _______ _______ _______ _____ _____    ______ ____
ROOT
ATOM      1  C   UNL     1       1.505   7.897  20.126  0.00  0.00    +0.000 A 
ATOM      2  C   UNL     1       0.891   8.306  21.332  0.00  0.00    +0.000 A 
ATOM      3  C   UNL     1       0.550   9.648  21.570  0.00  0.00    +0.000 A 
ATOM      4  C   UNL     1       0.823  10.611  20.599  0.00  0.00    +0.000 A 
ATOM      5  C   UNL     1       1.473  10.222  19.420  0.00  0.00    +0.000 A 
ATOM      6  C   UNL     1       1.761   8.873  19.143  0.00  0.00    +0.000 A 
ATOM      7  C   UNL     1       2.311   8.565  17.776  0.00  0.00    +0.000 C 
ENDROOT
BRANCH   4   8
ATOM      8  C   UNL     1       0.388  12.040  20.676  0.00  0.00    +0.000 C 
ATOM      9  O   UNL     1       1.185  12.798  21.239  0.00  0.00    +0.000 OA
ATOM     10  N   UNL     1      -0.826  12.498  20.112  0.00  0.00    +0.000 N 
ATOM     11  C   UNL     1      -1.036  13.953  20.188  0.00  0.00    +0.000 C 
ATOM     12  C   UNL     1      -2.331  14.337  20.773  0.00  0.00    +0.000 A 
ATOM     13  C   UNL     1      -2.621  15.449  21.601  0.00  0.00    +0.000 A 
ATOM     14  N   UNL     1      -3.925  15.571  21.864  0.00  0.00    +0.000 NA
ATOM     15  N   UNL     1      -4.474  14.533  21.204  0.00  0.00    +0.000 N 
ATOM     16  C   UNL     1      -5.911  14.394  21.168  0.00  0.00    +0.000 C 
ATOM     17  C   UNL     1      -3.549  13.749  20.555  0.00  0.00    +0.000 A 
ATOM     18  N   UNL     1      -3.890  12.671  19.827  0.00  0.00    +0.000 N 
ATOM     19  C   UNL     1      -3.035  11.827  19.082  0.00  0.00    +0.000 A 
ATOM     20  C   UNL     1      -3.707  10.936  18.207  0.00  0.00    +0.000 A 
ATOM     21  C   UNL     1      -3.030  10.016  17.416  0.00  0.00    +0.000 A 
ATOM     22  C   UNL     1      -1.649  10.008  17.424  0.00  0.00    +0.000 A 
ATOM     23  C   UNL     1      -0.960  10.904  18.242  0.00  0.00    +0.000 A 
ATOM     24  C   UNL     1      -1.618  11.769  19.144  0.00  0.00    +0.000 A 
ATOM     25  H   UNL     1      -4.871  12.451  19.693  0.00  0.00    +0.000 HD
ENDBRANCH   4   8
BRANCH   1  26
ATOM     26  C   UNL     1       1.855   6.434  19.943  0.00  0.00    +0.000 C 
BRANCH  26  30
ATOM     27  N   UNL     1       5.185   5.295  19.022  0.00  0.00    +0.000 N 
ATOM     28  C   UNL     1       3.844   5.506  18.819  0.00  0.00    +0.000 C 
ATOM     29  O   UNL     1       3.234   5.081  17.848  0.00  0.00    +0.000 OA
ATOM     30  N   UNL     1       3.282   6.196  19.858  0.00  0.00    +0.000 N 
ATOM     31  H   UNL     1       5.439   5.195  19.995  0.00  0.00    +0.000 HD
ATOM     32  H   UNL     1       3.892   6.806  20.379  0.00  0.00    +0.000 HD
BRANCH  27  33
ATOM     33  C   UNL     1       5.927   4.455  18.088  0.00  0.00    +0.000 C 
BRANCH  33  34
ATOM     34  C   UNL     1       7.436   4.720  18.031  0.00  0.00    +0.000 C 
ATOM     35  O   UNL     1       8.101   5.009  19.020  0.00  0.00    +0.000 OA
BRANCH  34  37
ATOM     36  C   UNL     1       6.949   4.434  15.759  0.00  0.00    +0.000 C 
ATOM     37  O   UNL     1       7.943   4.537  16.783  0.00  0.00    +0.000 OA
ENDBRANCH  34  37
ENDBRANCH  33  34
ENDBRANCH  27  33
ENDBRANCH  26  30
ENDBRANCH   1  26
TORSDOF 6
ENDMDL
MODEL 4
REMARK VINA RESULT:      -8.1      1.094      1.181
REMARK  Name = 
REMARK  9 active torsions:
REMARK  status: ('A' for Active; 'I' for Inactive)
REMARK    1  A    between atoms: C_1  and  O_2
REMARK    2  A    between atoms: O_2  and  C_3
REMARK    3  A    between atoms: C_3  and  C_5
REMARK    4  A    between atoms: C_5  and  N_6
REMARK    5  A    between atoms: N_9  and  C_10
REMARK    6  A    between atoms: C_10  and  C_11
REMARK    7  A    between atoms: C_14  and  C_15
REMARK    8  A    between atoms: N_22  and  C_23
REMARK    9  A    between atoms: C_33  and  C_34
REMARK                            x       y       z     vdW  Elec       q    Type
REMARK                         _______ _______ _______ _____ _____    ______ ____
ROOT
ATOM      1  C   UNL     1       1.903   7.711  19.201  0.00  0.00    +0.000 A 
ATOM      2  C   UNL     1       2.210   8.415  18.015  0.00  0.00    +0.000 A 
ATOM      3  C   UNL     1       1.932   9.785  17.876  0.00  0.00    +0.000 A 
ATOM      4  C   UNL     1       1.335  10.478  18.928  0.00  0.00    +0.000 A 
ATOM      5  C   UNL     1       0.985   9.777  20.091  0.00  0.00    +0.000 A 
ATOM      6  C   UNL     1       1.316   8.421  20.267  0.00  0.00    +0.000 A 
ATOM      7  C   UNL     1       1.033   7.826  21.620  0.00  0.00    +0.000 C 
ENDROOT
BRANCH   4   8
ATOM      8  C   UNL     1       1.114  11.956  18.954  0.00  0.00    +0.000 C 
ATOM      9  O   UNL     1       2.143  12.637  19.001  0.00  0.00    +0.000 OA
ATOM     10  N   UNL     1      -0.176  12.535  18.890  0.00  0.00    +0.000 N 
ATOM     11  C   UNL     1      -0.195  14.005  18.816  0.00  0.00    +0.000 C 
ATOM     12  C   UNL     1      -1.060  14.640  19.823  0.00  0.00    +0.000 A 
ATOM     13  C   UNL     1      -0.852  15.862  20.509  0.00  0.00    +0.000 A 
ATOM     14  N   UNL     1      -1.891  16.208  21.274  0.00  0.00    +0.000 NA
ATOM     15  N   UNL     1      -2.768  15.204  21.080  0.00  0.00    +0.000 N 
ATOM     16  C   UNL     1      -4.081  15.284  21.675  0.00  0.00    +0.000 C 
ATOM     17  C   UNL     1      -2.299  14.226  20.235  0.00  0.00    +0.000 A 
ATOM     18  N   UNL     1      -3.024  13.145  19.899  0.00  0.00    +0.000 N 
ATOM     19  C   UNL     1      -2.665  12.108  19.007  0.00  0.00    +0.000 A 
ATOM     20  C   UNL     1      -3.733  11.246  18.649  0.00  0.00    +0.000 A 
ATOM     21  C   UNL     1      -3.560  10.157  17.804  0.00  0.00    +0.000 A 
ATOM     22  C   UNL     1      -2.323   9.939  17.230  0.00  0.00    +0.000 A 
ATOM     23  C   UNL     1      -1.265  10.798  17.528  0.00  0.00    +0.000 A 
ATOM     24  C   UNL     1      -1.376  11.841  18.474  0.00  0.00    +0.000 A 
ATOM     25  H   UNL     1      -3.981  13.065  20.227  0.00  0.00    +0.000 HD
ENDBRANCH   4   8
BRANCH   1  26
ATOM     26  C   UNL     1       2.221   6.231  19.277  0.00  0.00    +0.000 C 
BRANCH  26  30
ATOM     27  N   UNL     1       5.752   5.364  19.157  0.00  0.00    +0.000 N 
ATOM     28  C   UNL     1       4.541   5.720  18.617  0.00  0.00    +0.000 C 
ATOM     29  O   UNL     1       4.326   5.764  17.415  0.00  0.00    +0.000 OA
ATOM     30  N   UNL     1       3.610   5.962  19.589  0.00  0.00    +0.000 N 
ATOM     31  H   UNL     1       5.677   4.862  20.031  0.00  0.00    +0.000 HD
ATOM     32  H   UNL     1       3.958   6.269  20.484  0.00  0.00    +0.000 HD
BRANCH  27  33
ATOM     33  C   UNL     1       6.830   4.932  18.274  0.00  0.00    +0.000 C 
BRANCH  33  34
ATOM     34  C   UNL     1       7.485   6.049  17.452  0.00  0.00    +0.000 C 
ATOM     35  O   UNL     1       7.507   6.051  16.226  0.00  0.00    +0.000 OA
BRANCH  34  37
ATOM     36  C   UNL     1       7.810   8.355  17.686  0.00  0.00    +0.000 C 
ATOM     37  O   UNL     1       7.974   7.045  18.237  0.00  0.00    +0.000 OA
ENDBRANCH  34  37
ENDBRANCH  33  34
ENDBRANCH  27  33
ENDBRANCH  26  30
ENDBRANCH   1  26
TORSDOF 6
ENDMDL
MODEL 5
REMARK VINA RESULT:      -8.1      1.160      1.355
REMARK  Name = 
REMARK  9 active torsions:
REMARK  status: ('A' for Active; 'I' for Inactive)
REMARK    1  A    between atoms: C_1  and  O_2
REMARK    2  A    between atoms: O_2  and  C_3
REMARK    3  A    between atoms: C_3  and  C_5
REMARK    4  A    between atoms: C_5  and  N_6
REMARK    5  A    between atoms: N_9  and  C_10
REMARK    6  A    between atoms: C_10  and  C_11
REMARK    7  A    between atoms: C_14  and  C_15
REMARK    8  A    between atoms: N_22  and  C_23
REMARK    9  A    between atoms: C_33  and  C_34
REMARK                            x       y       z     vdW  Elec       q    Type
REMARK                         _______ _______ _______ _____ _____    ______ ____
ROOT
ATOM      1  C   UNL     1       1.839   8.448  19.142  0.00  0.00    +0.000 A 
ATOM      2  C   UNL     1       1.965   9.496  18.203  0.00  0.00    +0.000 A 
ATOM      3  C   UNL     1       1.378  10.755  18.416  0.00  0.00    +0.000 A 
ATOM      4  C   UNL     1       0.646  10.986  19.580  0.00  0.00    +0.000 A 
ATOM      5  C   UNL     1       0.476   9.938  20.496  0.00  0.00    +0.000 A 
ATOM      6  C   UNL     1       1.113   8.695  20.324  0.00  0.00    +0.000 A 
ATOM      7  C   UNL     1       0.986   7.708  21.455  0.00  0.00    +0.000 C 
ENDROOT
BRANCH   4   8
ATOM      8  C   UNL     1       0.091  12.314  19.984  0.00  0.00    +0.000 C 
ATOM      9  O   UNL     1       0.901  13.076  20.521  0.00  0.00    +0.000 OA
ATOM     10  N   UNL     1      -1.251  12.687  19.734  0.00  0.00    +0.000 N 
ATOM     11  C   UNL     1      -1.590  14.071  20.101  0.00  0.00    +0.000 C 
ATOM     12  C   UNL     1      -2.777  14.183  20.965  0.00  0.00    +0.000 A 
ATOM     13  C   UNL     1      -3.011  15.105  22.015  0.00  0.00    +0.000 A 
ATOM     14  N   UNL     1      -4.243  15.009  22.522  0.00  0.00    +0.000 NA
ATOM     15  N   UNL     1      -4.802  14.020  21.797  0.00  0.00    +0.000 N 
ATOM     16  C   UNL     1      -6.195  13.697  21.992  0.00  0.00    +0.000 C 
ATOM     17  C   UNL     1      -3.947  13.477  20.867  0.00  0.00    +0.000 A 
ATOM     18  N   UNL     1      -4.312  12.489  20.031  0.00  0.00    +0.000 N 
ATOM     19  C   UNL     1      -3.539  11.891  19.010  0.00  0.00    +0.000 A 
ATOM     20  C   UNL     1      -4.276  11.064  18.124  0.00  0.00    +0.000 A 
ATOM     21  C   UNL     1      -3.677  10.375  17.076  0.00  0.00    +0.000 A 
ATOM     22  C   UNL     1      -2.328  10.552  16.838  0.00  0.00    +0.000 A 
ATOM     23  C   UNL     1      -1.587  11.396  17.666  0.00  0.00    +0.000 A 
ATOM     24  C   UNL     1      -2.139  12.015  18.808  0.00  0.00    +0.000 A 
ATOM     25  H   UNL     1      -5.273  12.162  20.037  0.00  0.00    +0.000 HD
ENDBRANCH   4   8
BRANCH   1  26
ATOM     26  C   UNL     1       2.489   7.113  18.841  0.00  0.00    +0.000 C 
BRANCH  26  30
ATOM     27  N   UNL     1       4.900   6.377  16.218  0.00  0.00    +0.000 N 
ATOM     28  C   UNL     1       4.090   6.069  17.282  0.00  0.00    +0.000 C 
ATOM     29  O   UNL     1       4.092   4.981  17.839  0.00  0.00    +0.000 OA
ATOM     30  N   UNL     1       3.332   7.143  17.663  0.00  0.00    +0.000 N 
ATOM     31  H   UNL     1       5.204   7.340  16.202  0.00  0.00    +0.000 HD
ATOM     32  H   UNL     1       3.119   7.822  16.950  0.00  0.00    +0.000 HD
BRANCH  27  33
ATOM     33  C   UNL     1       5.882   5.399  15.760  0.00  0.00    +0.000 C 
BRANCH  33  34
ATOM     34  C   UNL     1       7.230   5.440  16.489  0.00  0.00    +0.000 C 
ATOM     35  O   UNL     1       7.867   4.431  16.772  0.00  0.00    +0.000 OA
BRANCH  34  37
ATOM     36  C   UNL     1       7.834   7.021  18.107  0.00  0.00    +0.000 C 
ATOM     37  O   UNL     1       7.650   6.712  16.722  0.00  0.00    +0.000 OA
ENDBRANCH  34  37
ENDBRANCH  33  34
ENDBRANCH  27  33
ENDBRANCH  26  30
ENDBRANCH   1  26
TORSDOF 6
ENDMDL
MODEL 6
REMARK VINA RESULT:      -8.0      1.481      1.833
REMARK  Name = 
REMARK  9 active torsions:
REMARK  status: ('A' for Active; 'I' for Inactive)
REMARK    1  A    between atoms: C_1  and  O_2
REMARK    2  A    between atoms: O_2  and  C_3
REMARK    3  A    between atoms: C_3  and  C_5
REMARK    4  A    between atoms: C_5  and  N_6
REMARK    5  A    between atoms: N_9  and  C_10
REMARK    6  A    between atoms: C_10  and  C_11
REMARK    7  A    between atoms: C_14  and  C_15
REMARK    8  A    between atoms: N_22  and  C_23
REMARK    9  A    between atoms: C_33  and  C_34
REMARK                            x       y       z     vdW  Elec       q    Type
REMARK                         _______ _______ _______ _____ _____    ______ ____
ROOT
ATOM      1  C   UNL     1       1.905   8.541  18.742  0.00  0.00    +0.000 A 
ATOM      2  C   UNL     1       2.011   9.739  18.000  0.00  0.00    +0.000 A 
ATOM      3  C   UNL     1       1.573  10.970  18.516  0.00  0.00    +0.000 A 
ATOM      4  C   UNL     1       1.013  11.023  19.792  0.00  0.00    +0.000 A 
ATOM      5  C   UNL     1       0.861   9.833  20.518  0.00  0.00    +0.000 A 
ATOM      6  C   UNL     1       1.355   8.605  20.038  0.00  0.00    +0.000 A 
ATOM      7  C   UNL     1       1.277   7.431  20.978  0.00  0.00    +0.000 C 
ENDROOT
BRANCH   4   8
ATOM      8  C   UNL     1       0.637  12.283  20.502  0.00  0.00    +0.000 C 
ATOM      9  O   UNL     1       1.563  12.846  21.093  0.00  0.00    +0.000 OA
ATOM     10  N   UNL     1      -0.675  12.814  20.469  0.00  0.00    +0.000 N 
ATOM     11  C   UNL     1      -0.835  14.118  21.132  0.00  0.00    +0.000 C 
ATOM     12  C   UNL     1      -1.928  14.153  22.118  0.00  0.00    +0.000 A 
ATOM     13  C   UNL     1      -1.976  14.857  23.345  0.00  0.00    +0.000 A 
ATOM     14  N   UNL     1      -3.166  14.767  23.947  0.00  0.00    +0.000 NA
ATOM     15  N   UNL     1      -3.883  13.999  23.104  0.00  0.00    +0.000 N 
ATOM     16  C   UNL     1      -5.282  13.766  23.373  0.00  0.00    +0.000 C 
ATOM     17  C   UNL     1      -3.171  13.587  22.003  0.00  0.00    +0.000 A 
ATOM     18  N   UNL     1      -3.705  12.825  21.032  0.00  0.00    +0.000 N 
ATOM     19  C   UNL     1      -3.086  12.385  19.840  0.00  0.00    +0.000 A 
ATOM     20  C   UNL     1      -3.976  11.823  18.889  0.00  0.00    +0.000 A 
ATOM     21  C   UNL     1      -3.541  11.314  17.671  0.00  0.00    +0.000 A 
ATOM     22  C   UNL     1      -2.206  11.418  17.336  0.00  0.00    +0.000 A 
ATOM     23  C   UNL     1      -1.314  12.008  18.233  0.00  0.00    +0.000 A 
ATOM     24  C   UNL     1      -1.702  12.426  19.525  0.00  0.00    +0.000 A 
ATOM     25  H   UNL     1      -4.691  12.589  21.071  0.00  0.00    +0.000 HD
ENDBRANCH   4   8
BRANCH   1  26
ATOM     26  C   UNL     1       2.388   7.248  18.118  0.00  0.00    +0.000 C 
BRANCH  26  30
ATOM     27  N   UNL     1       5.751   6.695  16.846  0.00  0.00    +0.000 N 
ATOM     28  C   UNL     1       4.538   6.309  17.358  0.00  0.00    +0.000 C 
ATOM     29  O   UNL     1       4.284   5.163  17.699  0.00  0.00    +0.000 OA
ATOM     30  N   UNL     1       3.685   7.371  17.484  0.00  0.00    +0.000 N 
ATOM     31  H   UNL     1       6.022   7.634  17.104  0.00  0.00    +0.000 HD
ATOM     32  H   UNL     1       3.828   8.143  16.852  0.00  0.00    +0.000 HD
BRANCH  27  33
ATOM     33  C   UNL     1       6.838   5.724  16.771  0.00  0.00    +0.000 C 
BRANCH  33  34
ATOM     34  C   UNL     1       7.073   5.117  15.383  0.00  0.00    +0.000 C 
ATOM     35  O   UNL     1       7.911   5.549  14.598  0.00  0.00    +0.000 OA
BRANCH  34  37
ATOM     36  C   UNL     1       5.874   3.875  13.802  0.00  0.00    +0.000 C 
ATOM     37  O   UNL     1       6.295   4.025  15.161  0.00  0.00    +0.000 OA
ENDBRANCH  34  37
ENDBRANCH  33  34
ENDBRANCH  27  33
ENDBRANCH  26  30
ENDBRANCH   1  26
TORSDOF 6
ENDMDL
MODEL 7
REMARK VINA RESULT:      -7.9      0.938      1.165
REMARK  Name = 
REMARK  9 active torsions:
REMARK  status: ('A' for Active; 'I' for Inactive)
REMARK    1  A    between atoms: C_1  and  O_2
REMARK    2  A    between atoms: O_2  and  C_3
REMARK    3  A    between atoms: C_3  and  C_5
REMARK    4  A    between atoms: C_5  and  N_6
REMARK    5  A    between atoms: N_9  and  C_10
REMARK    6  A    between atoms: C_10  and  C_11
REMARK    7  A    between atoms: C_14  and  C_15
REMARK    8  A    between atoms: N_22  and  C_23
REMARK    9  A    between atoms: C_33  and  C_34
REMARK                            x       y       z     vdW  Elec       q    Type
REMARK                         _______ _______ _______ _____ _____    ______ ____
ROOT
ATOM      1  C   UNL     1       1.913   7.897  19.358  0.00  0.00    +0.000 A 
ATOM      2  C   UNL     1       2.226   8.584  18.164  0.00  0.00    +0.000 A 
ATOM      3  C   UNL     1       1.931   9.947  17.996  0.00  0.00    +0.000 A 
ATOM      4  C   UNL     1       1.309  10.650  19.028  0.00  0.00    +0.000 A 
ATOM      5  C   UNL     1       0.952   9.965  20.198  0.00  0.00    +0.000 A 
ATOM      6  C   UNL     1       1.301   8.618  20.403  0.00  0.00    +0.000 A 
ATOM      7  C   UNL     1       1.007   8.042  21.762  0.00  0.00    +0.000 C 
ENDROOT
BRANCH   4   8
ATOM      8  C   UNL     1       1.066  12.125  19.024  0.00  0.00    +0.000 C 
ATOM      9  O   UNL     1       2.085  12.822  19.060  0.00  0.00    +0.000 OA
ATOM     10  N   UNL     1      -0.232  12.684  18.945  0.00  0.00    +0.000 N 
ATOM     11  C   UNL     1      -0.272  14.151  18.842  0.00  0.00    +0.000 C 
ATOM     12  C   UNL     1      -1.149  14.793  19.834  0.00  0.00    +0.000 A 
ATOM     13  C   UNL     1      -0.961  16.031  20.496  0.00  0.00    +0.000 A 
ATOM     14  N   UNL     1      -2.008  16.378  21.252  0.00  0.00    +0.000 NA
ATOM     15  N   UNL     1      -2.869  15.357  21.075  0.00  0.00    +0.000 N 
ATOM     16  C   UNL     1      -4.185  15.429  21.665  0.00  0.00    +0.000 C 
ATOM     17  C   UNL     1      -2.384  14.370  20.251  0.00  0.00    +0.000 A 
ATOM     18  N   UNL     1      -3.091  13.271  19.934  0.00  0.00    +0.000 N 
ATOM     19  C   UNL     1      -2.715  12.223  19.064  0.00  0.00    +0.000 A 
ATOM     20  C   UNL     1      -3.769  11.338  18.720  0.00  0.00    +0.000 A 
ATOM     21  C   UNL     1      -3.578  10.235  17.896  0.00  0.00    +0.000 A 
ATOM     22  C   UNL     1      -2.336  10.024  17.331  0.00  0.00    +0.000 A 
ATOM     23  C   UNL     1      -1.291  10.904  17.615  0.00  0.00    +0.000 A 
ATOM     24  C   UNL     1      -1.421  11.964  18.539  0.00  0.00    +0.000 A 
ATOM     25  H   UNL     1      -4.048  13.183  20.261  0.00  0.00    +0.000 HD
ENDBRANCH   4   8
BRANCH   1  26
ATOM     26  C   UNL     1       2.251   6.423  19.465  0.00  0.00    +0.000 C 
BRANCH  26  30
ATOM     27  N   UNL     1       5.648   5.327  18.765  0.00  0.00    +0.000 N 
ATOM     28  C   UNL     1       4.337   5.587  18.451  0.00  0.00    +0.000 C 
ATOM     29  O   UNL     1       3.828   5.287  17.381  0.00  0.00    +0.000 OA
ATOM     30  N   UNL     1       3.676   6.167  19.499  0.00  0.00    +0.000 N 
ATOM     31  H   UNL     1       5.799   5.112  19.740  0.00  0.00    +0.000 HD
ATOM     32  H   UNL     1       4.235   6.702  20.146  0.00  0.00    +0.000 HD
BRANCH  27  33
ATOM     33  C   UNL     1       6.475   4.582  17.821  0.00  0.00    +0.000 C 
BRANCH  33  34
ATOM     34  C   UNL     1       7.124   5.426  16.717  0.00  0.00    +0.000 C 
ATOM     35  O   UNL     1       7.243   6.644  16.791  0.00  0.00    +0.000 OA
BRANCH  34  37
ATOM     36  C   UNL     1       6.929   4.883  14.448  0.00  0.00    +0.000 C 
ATOM     37  O   UNL     1       7.594   4.662  15.696  0.00  0.00    +0.000 OA
ENDBRANCH  34  37
ENDBRANCH  33  34
ENDBRANCH  27  33
ENDBRANCH  26  30
ENDBRANCH   1  26
TORSDOF 6
ENDMDL
MODEL 8
REMARK VINA RESULT:      -7.8      3.036      4.367
REMARK  Name = 
REMARK  9 active torsions:
REMARK  status: ('A' for Active; 'I' for Inactive)
REMARK    1  A    between atoms: C_1  and  O_2
REMARK    2  A    between atoms: O_2  and  C_3
REMARK    3  A    between atoms: C_3  and  C_5
REMARK    4  A    between atoms: C_5  and  N_6
REMARK    5  A    between atoms: N_9  and  C_10
REMARK    6  A    between atoms: C_10  and  C_11
REMARK    7  A    between atoms: C_14  and  C_15
REMARK    8  A    between atoms: N_22  and  C_23
REMARK    9  A    between atoms: C_33  and  C_34
REMARK                            x       y       z     vdW  Elec       q    Type
REMARK                         _______ _______ _______ _____ _____    ______ ____
ROOT
ATOM      1  C   UNL     1       0.938   9.768  20.007  0.00  0.00    +0.000 A 
ATOM      2  C   UNL     1       0.028   9.531  21.062  0.00  0.00    +0.000 A 
ATOM      3  C   UNL     1      -0.680  10.577  21.677  0.00  0.00    +0.000 A 
ATOM      4  C   UNL     1      -0.484  11.889  21.246  0.00  0.00    +0.000 A 
ATOM      5  C   UNL     1       0.451  12.139  20.232  0.00  0.00    +0.000 A 
ATOM      6  C   UNL     1       1.117  11.094  19.565  0.00  0.00    +0.000 A 
ATOM      7  C   UNL     1       1.972  11.479  18.388  0.00  0.00    +0.000 C 
ENDROOT
BRANCH   4   8
ATOM      8  C   UNL     1      -1.272  13.066  21.725  0.00  0.00    +0.000 C 
ATOM      9  O   UNL     1      -0.665  13.826  22.486  0.00  0.00    +0.000 OA
ATOM     10  N   UNL     1      -2.602  13.313  21.307  0.00  0.00    +0.000 N 
ATOM     11  C   UNL     1      -3.181  14.576  21.794  0.00  0.00    +0.000 C 
ATOM     12  C   UNL     1      -4.486  14.415  22.456  0.00  0.00    +0.000 A 
ATOM     13  C   UNL     1      -4.997  15.132  23.565  0.00  0.00    +0.000 A 
ATOM     14  N   UNL     1      -6.266  14.817  23.844  0.00  0.00    +0.000 NA
ATOM     15  N   UNL     1      -6.568  13.892  22.911  0.00  0.00    +0.000 N 
ATOM     16  C   UNL     1      -7.917  13.384  22.827  0.00  0.00    +0.000 C 
ATOM     17  C   UNL     1      -5.519  13.602  22.072  0.00  0.00    +0.000 A 
ATOM     18  N   UNL     1      -5.615  12.717  21.064  0.00  0.00    +0.000 N 
ATOM     19  C   UNL     1      -4.624  12.377  20.114  0.00  0.00    +0.000 A 
ATOM     20  C   UNL     1      -5.100  11.615  19.017  0.00  0.00    +0.000 A 
ATOM     21  C   UNL     1      -4.263  11.170  18.001  0.00  0.00    +0.000 A 
ATOM     22  C   UNL     1      -2.932  11.537  18.015  0.00  0.00    +0.000 A 
ATOM     23  C   UNL     1      -2.446  12.325  19.059  0.00  0.00    +0.000 A 
ATOM     24  C   UNL     1      -3.241  12.693  20.166  0.00  0.00    +0.000 A 
ATOM     25  H   UNL     1      -6.512  12.284  20.866  0.00  0.00    +0.000 HD
ENDBRANCH   4   8
BRANCH   1  26
ATOM     26  C   UNL     1       1.675   8.592  19.398  0.00  0.00    +0.000 C 
BRANCH  26  30
ATOM     27  N   UNL     1       2.404   5.421  21.026  0.00  0.00    +0.000 N 
ATOM     28  C   UNL     1       2.330   6.282  19.959  0.00  0.00    +0.000 C 
ATOM     29  O   UNL     1       2.537   5.942  18.804  0.00  0.00    +0.000 OA
ATOM     30  N   UNL     1       1.948   7.536  20.351  0.00  0.00    +0.000 N 
ATOM     31  H   UNL     1       1.743   5.626  21.762  0.00  0.00    +0.000 HD
ATOM     32  H   UNL     1       2.174   7.803  21.297  0.00  0.00    +0.000 HD
BRANCH  27  33
ATOM     33  C   UNL     1       2.660   4.005  20.786  0.00  0.00    +0.000 C 
BRANCH  33  34
ATOM     34  C   UNL     1       1.478   3.072  21.073  0.00  0.00    +0.000 C 
ATOM     35  O   UNL     1       1.365   2.438  22.117  0.00  0.00    +0.000 OA
BRANCH  34  37
ATOM     36  C   UNL     1       1.017   2.490  18.853  0.00  0.00    +0.000 C 
ATOM     37  O   UNL     1       0.559   3.083  20.072  0.00  0.00    +0.000 OA
ENDBRANCH  34  37
ENDBRANCH  33  34
ENDBRANCH  27  33
ENDBRANCH  26  30
ENDBRANCH   1  26
TORSDOF 6
ENDMDL
MODEL 9
REMARK VINA RESULT:      -7.7      2.267      3.487
REMARK  Name = 
REMARK  9 active torsions:
REMARK  status: ('A' for Active; 'I' for Inactive)
REMARK    1  A    between atoms: C_1  and  O_2
REMARK    2  A    between atoms: O_2  and  C_3
REMARK    3  A    between atoms: C_3  and  C_5
REMARK    4  A    between atoms: C_5  and  N_6
REMARK    5  A    between atoms: N_9  and  C_10
REMARK    6  A    between atoms: C_10  and  C_11
REMARK    7  A    between atoms: C_14  and  C_15
REMARK    8  A    between atoms: N_22  and  C_23
REMARK    9  A    between atoms: C_33  and  C_34
REMARK                            x       y       z     vdW  Elec       q    Type
REMARK                         _______ _______ _______ _____ _____    ______ ____
ROOT
ATOM      1  C   UNL     1       1.507   9.752  18.725  0.00  0.00    +0.000 A 
ATOM      2  C   UNL     1       0.466   9.196  19.504  0.00  0.00    +0.000 A 
ATOM      3  C   UNL     1      -0.419  10.003  20.237  0.00  0.00    +0.000 A 
ATOM      4  C   UNL     1      -0.276  11.390  20.206  0.00  0.00    +0.000 A 
ATOM      5  C   UNL     1       0.782  11.947  19.474  0.00  0.00    +0.000 A 
ATOM      6  C   UNL     1       1.634  11.154  18.684  0.00  0.00    +0.000 A 
ATOM      7  C   UNL     1       2.626  11.883  17.817  0.00  0.00    +0.000 C 
ENDROOT
BRANCH   4   8
ATOM      8  C   UNL     1      -1.230  12.356  20.830  0.00  0.00    +0.000 C 
ATOM      9  O   UNL     1      -0.767  13.018  21.765  0.00  0.00    +0.000 OA
ATOM     10  N   UNL     1      -2.555  12.529  20.362  0.00  0.00    +0.000 N 
ATOM     11  C   UNL     1      -3.314  13.601  21.026  0.00  0.00    +0.000 C 
ATOM     12  C   UNL     1      -4.624  13.170  21.541  0.00  0.00    +0.000 A 
ATOM     13  C   UNL     1      -5.283  13.597  22.720  0.00  0.00    +0.000 A 
ATOM     14  N   UNL     1      -6.516  13.094  22.834  0.00  0.00    +0.000 NA
ATOM     15  N   UNL     1      -6.647  12.339  21.725  0.00  0.00    +0.000 N 
ATOM     16  C   UNL     1      -7.914  11.708  21.441  0.00  0.00    +0.000 C 
ATOM     17  C   UNL     1      -5.524  12.336  20.932  0.00  0.00    +0.000 A 
ATOM     18  N   UNL     1      -5.451  11.657  19.773  0.00  0.00    +0.000 N 
ATOM     19  C   UNL     1      -4.374  11.621  18.859  0.00  0.00    +0.000 A 
ATOM     20  C   UNL     1      -4.687  11.037  17.605  0.00  0.00    +0.000 A 
ATOM     21  C   UNL     1      -3.745  10.894  16.594  0.00  0.00    +0.000 A 
ATOM     22  C   UNL     1      -2.473  11.398  16.782  0.00  0.00    +0.000 A 
ATOM     23  C   UNL     1      -2.149  12.018  17.989  0.00  0.00    +0.000 A 
ATOM     24  C   UNL     1      -3.046  12.074  19.078  0.00  0.00    +0.000 A 
ATOM     25  H   UNL     1      -6.274  11.173  19.428  0.00  0.00    +0.000 HD
ENDBRANCH   4   8
BRANCH   1  26
ATOM     26  C   UNL     1       2.431   8.820  17.968  0.00  0.00    +0.000 C 
BRANCH  26  30
ATOM     27  N   UNL     1       2.614   5.197  18.242  0.00  0.00    +0.000 N 
ATOM     28  C   UNL     1       3.126   6.454  18.041  0.00  0.00    +0.000 C 
ATOM     29  O   UNL     1       4.275   6.666  17.683  0.00  0.00    +0.000 OA
ATOM     30  N   UNL     1       2.177   7.420  18.240  0.00  0.00    +0.000 N 
ATOM     31  H   UNL     1       1.637   5.111  18.003  0.00  0.00    +0.000 HD
ATOM     32  H   UNL     1       1.427   7.193  18.875  0.00  0.00    +0.000 HD
BRANCH  27  33
ATOM     33  C   UNL     1       3.440   4.032  17.940  0.00  0.00    +0.000 C 
BRANCH  33  34
ATOM     34  C   UNL     1       3.947   3.259  19.162  0.00  0.00    +0.000 C 
ATOM     35  O   UNL     1       5.096   3.353  19.583  0.00  0.00    +0.000 OA
BRANCH  34  37
ATOM     36  C   UNL     1       2.722   2.854  21.115  0.00  0.00    +0.000 C 
ATOM     37  O   UNL     1       2.968   2.519  19.746  0.00  0.00    +0.000 OA
ENDBRANCH  34  37
ENDBRANCH  33  34
ENDBRANCH  27  33
ENDBRANCH  26  30
ENDBRANCH   1  26
TORSDOF 6
ENDMDL
