MODEL 1
REMARK VINA RESULT:      -8.1      0.000      0.000
REMARK  Name = 
REMARK  7 active torsions:
REMARK  status: ('A' for Active; 'I' for Inactive)
REMARK    1  A    between atoms: C_2  and  C_4
REMARK    2  A    between atoms: C_4  and  C_5
REMARK    3  A    between atoms: C_5  and  C_6
REMARK    4  A    between atoms: C_6  and  N_7
REMARK    5  A    between atoms: C_6  and  C_21
REMARK    6  A    between atoms: N_7  and  S_8
REMARK    7  A    between atoms: S_8  and  C_11
REMARK                            x       y       z     vdW  Elec       q    Type
REMARK                         _______ _______ _______ _____ _____    ______ ____
ROOT
ATOM      1  N   UNL     1       7.003   6.427  16.565  0.00  0.00    +0.000 NA
ATOM      2  H   UNL     1       7.848   6.193  16.046  0.00  0.00    +0.000 HD
ENDROOT
BRANCH   1   3
ATOM      3  S   UNL     1       5.631   5.753  15.861  0.00  0.00    +0.000 S 
ATOM      4  O   UNL     1       5.284   6.633  14.768  0.00  0.00    +0.000 OA
ATOM      5  O   UNL     1       5.900   4.354  15.608  0.00  0.00    +0.000 OA
BRANCH   3   6
ATOM      6  C   UNL     1       4.380   5.912  17.111  0.00  0.00    +0.000 A 
ATOM      7  C   UNL     1       3.991   7.219  17.451  0.00  0.00    +0.000 A 
ATOM      8  C   UNL     1       2.966   7.424  18.363  0.00  0.00    +0.000 A 
ATOM      9  C   UNL     1       2.323   6.330  18.934  0.00  0.00    +0.000 A 
ATOM     10  C   UNL     1       2.700   5.015  18.617  0.00  0.00    +0.000 A 
ATOM     11  C   UNL     1       2.014   3.943  19.209  0.00  0.00    +0.000 A 
ATOM     12  C   UNL     1       2.356   2.623  18.926  0.00  0.00    +0.000 A 
ATOM     13  C   UNL     1       3.399   2.358  18.053  0.00  0.00    +0.000 A 
ATOM     14  C   UNL     1       4.090   3.414  17.451  0.00  0.00    +0.000 A 
ATOM     15  C   UNL     1       3.759   4.773  17.702  0.00  0.00    +0.000 A 
ENDBRANCH   3   6
ENDBRANCH   1   3
BRANCH   1  16
ATOM     16  C   UNL     1       7.133   6.629  18.026  0.00  0.00    +0.000 C 
BRANCH  16  17
ATOM     17  C   UNL     1       7.325   5.311  18.787  0.00  0.00    +0.000 C 
ATOM     18  N   UNL     1       7.828   4.282  18.038  0.00  0.00    +0.000 N 
ATOM     19  O   UNL     1       7.056   5.144  19.969  0.00  0.00    +0.000 OA
ATOM     20  H   UNL     1       8.290   4.450  17.153  0.00  0.00    +0.000 HD
ATOM     21  H   UNL     1       8.087   3.442  18.540  0.00  0.00    +0.000 HD
ENDBRANCH  16  17
BRANCH  16  22
ATOM     22  C   UNL     1       8.208   7.664  18.378  0.00  0.00    +0.000 C 
BRANCH  22  23
ATOM     23  C   UNL     1       7.887   9.050  17.823  0.00  0.00    +0.000 C 
BRANCH  23  25
ATOM     24  N   UNL     1       9.333   9.800  19.618  0.00  0.00    +0.000 N 
ATOM     25  C   UNL     1       8.744  10.129  18.436  0.00  0.00    +0.000 C 
ATOM     26  O   UNL     1       8.942  11.211  17.897  0.00  0.00    +0.000 OA
ATOM     27  H   UNL     1       9.926  10.487  20.064  0.00  0.00    +0.000 HD
ATOM     28  H   UNL     1       9.154   8.927  20.103  0.00  0.00    +0.000 HD
ENDBRANCH  23  25
ENDBRANCH  22  23
ENDBRANCH  16  22
ENDBRANCH   1  16
TORSDOF 7
ENDMDL
MODEL 2
REMARK VINA RESULT:      -7.8      0.822      2.368
REMARK  Name = 
REMARK  7 active torsions:
REMARK  status: ('A' for Active; 'I' for Inactive)
REMARK    1  A    between atoms: C_2  and  C_4
REMARK    2  A    between atoms: C_4  and  C_5
REMARK    3  A    between atoms: C_5  and  C_6
REMARK    4  A    between atoms: C_6  and  N_7
REMARK    5  A    between atoms: C_6  and  C_21
REMARK    6  A    between atoms: N_7  and  S_8
REMARK    7  A    between atoms: S_8  and  C_11
REMARK                            x       y       z     vdW  Elec       q    Type
REMARK                         _______ _______ _______ _____ _____    ______ ____
ROOT
ATOM      1  N   UNL     1       7.291   5.560  16.898  0.00  0.00    +0.000 NA
ATOM      2  H   UNL     1       7.886   4.733  16.918  0.00  0.00    +0.000 HD
ENDROOT
BRANCH   1   3
ATOM      3  S   UNL     1       5.999   5.373  15.836  0.00  0.00    +0.000 S 
ATOM      4  O   UNL     1       5.695   6.704  15.357  0.00  0.00    +0.000 OA
ATOM      5  O   UNL     1       6.339   4.326  14.898  0.00  0.00    +0.000 OA
BRANCH   3   6
ATOM      6  C   UNL     1       4.658   4.845  16.873  0.00  0.00    +0.000 A 
ATOM      7  C   UNL     1       4.520   3.460  17.068  0.00  0.00    +0.000 A 
ATOM      8  C   UNL     1       3.544   2.973  17.925  0.00  0.00    +0.000 A 
ATOM      9  C   UNL     1       2.707   3.863  18.593  0.00  0.00    +0.000 A 
ATOM     10  C   UNL     1       2.820   5.250  18.405  0.00  0.00    +0.000 A 
ATOM     11  C   UNL     1       1.961   6.109  19.110  0.00  0.00    +0.000 A 
ATOM     12  C   UNL     1       2.035   7.490  18.953  0.00  0.00    +0.000 A 
ATOM     13  C   UNL     1       2.965   8.031  18.079  0.00  0.00    +0.000 A 
ATOM     14  C   UNL     1       3.830   7.191  17.374  0.00  0.00    +0.000 A 
ATOM     15  C   UNL     1       3.796   5.777  17.520  0.00  0.00    +0.000 A 
ENDBRANCH   3   6
ENDBRANCH   1   3
BRANCH   1  16
ATOM     16  C   UNL     1       7.195   6.362  18.139  0.00  0.00    +0.000 C 
BRANCH  16  17
ATOM     17  C   UNL     1       7.158   5.491  19.401  0.00  0.00    +0.000 C 
ATOM     18  N   UNL     1       8.341   5.420  20.086  0.00  0.00    +0.000 N 
ATOM     19  O   UNL     1       6.173   4.881  19.798  0.00  0.00    +0.000 OA
ATOM     20  H   UNL     1       9.079   6.096  19.934  0.00  0.00    +0.000 HD
ATOM     21  H   UNL     1       8.314   4.961  20.988  0.00  0.00    +0.000 HD
ENDBRANCH  16  17
BRANCH  16  22
ATOM     22  C   UNL     1       8.274   7.449  18.216  0.00  0.00    +0.000 C 
BRANCH  22  23
ATOM     23  C   UNL     1       7.783   8.796  17.689  0.00  0.00    +0.000 C 
BRANCH  23  25
ATOM     24  N   UNL     1       9.236   9.672  19.421  0.00  0.00    +0.000 N 
ATOM     25  C   UNL     1       8.535   9.957  18.289  0.00  0.00    +0.000 C 
ATOM     26  O   UNL     1       8.560  11.071  17.780  0.00  0.00    +0.000 OA
ATOM     27  H   UNL     1       9.764  10.416  19.856  0.00  0.00    +0.000 HD
ATOM     28  H   UNL     1       9.199   8.770  19.884  0.00  0.00    +0.000 HD
ENDBRANCH  23  25
ENDBRANCH  22  23
ENDBRANCH  16  22
ENDBRANCH   1  16
TORSDOF 7
ENDMDL
MODEL 3
REMARK VINA RESULT:      -7.8      2.175      3.828
REMARK  Name = 
REMARK  7 active torsions:
REMARK  status: ('A' for Active; 'I' for Inactive)
REMARK    1  A    between atoms: C_2  and  C_4
REMARK    2  A    between atoms: C_4  and  C_5
REMARK    3  A    between atoms: C_5  and  C_6
REMARK    4  A    between atoms: C_6  and  N_7
REMARK    5  A    between atoms: C_6  and  C_21
REMARK    6  A    between atoms: N_7  and  S_8
REMARK    7  A    between atoms: S_8  and  C_11
REMARK                            x       y       z     vdW  Elec       q    Type
REMARK                         _______ _______ _______ _____ _____    ______ ____
ROOT
ATOM      1  N   UNL     1       5.029   4.491  17.192  0.00  0.00    +0.000 NA
ATOM      2  H   UNL     1       4.695   5.444  17.055  0.00  0.00    +0.000 HD
ENDROOT
BRANCH   1   3
ATOM      3  S   UNL     1       3.760   3.411  17.419  0.00  0.00    +0.000 S 
ATOM      4  O   UNL     1       2.845   3.651  16.324  0.00  0.00    +0.000 OA
ATOM      5  O   UNL     1       4.323   2.093  17.616  0.00  0.00    +0.000 OA
BRANCH   3   6
ATOM      6  C   UNL     1       2.979   3.966  18.915  0.00  0.00    +0.000 A 
ATOM      7  C   UNL     1       2.796   3.005  19.923  0.00  0.00    +0.000 A 
ATOM      8  C   UNL     1       2.263   3.377  21.149  0.00  0.00    +0.000 A 
ATOM      9  C   UNL     1       1.917   4.706  21.374  0.00  0.00    +0.000 A 
ATOM     10  C   UNL     1       2.082   5.681  20.378  0.00  0.00    +0.000 A 
ATOM     11  C   UNL     1       1.730   7.012  20.656  0.00  0.00    +0.000 A 
ATOM     12  C   UNL     1       1.873   8.011  19.697  0.00  0.00    +0.000 A 
ATOM     13  C   UNL     1       2.363   7.690  18.441  0.00  0.00    +0.000 A 
ATOM     14  C   UNL     1       2.722   6.371  18.150  0.00  0.00    +0.000 A 
ATOM     15  C   UNL     1       2.606   5.328  19.107  0.00  0.00    +0.000 A 
ENDBRANCH   3   6
ENDBRANCH   1   3
BRANCH   1  16
ATOM     16  C   UNL     1       6.293   4.108  16.523  0.00  0.00    +0.000 C 
BRANCH  16  17
ATOM     17  C   UNL     1       6.346   4.565  15.060  0.00  0.00    +0.000 C 
ATOM     18  N   UNL     1       7.456   5.293  14.723  0.00  0.00    +0.000 N 
ATOM     19  O   UNL     1       5.483   4.328  14.225  0.00  0.00    +0.000 OA
ATOM     20  H   UNL     1       8.286   5.287  15.303  0.00  0.00    +0.000 HD
ATOM     21  H   UNL     1       7.581   5.496  13.739  0.00  0.00    +0.000 HD
ENDBRANCH  16  17
BRANCH  16  22
ATOM     22  C   UNL     1       7.529   4.553  17.314  0.00  0.00    +0.000 C 
BRANCH  22  23
ATOM     23  C   UNL     1       7.201   5.616  18.360  0.00  0.00    +0.000 C 
BRANCH  23  25
ATOM     24  N   UNL     1       8.499   7.598  18.873  0.00  0.00    +0.000 N 
ATOM     25  C   UNL     1       7.691   6.986  17.964  0.00  0.00    +0.000 C 
ATOM     26  O   UNL     1       7.428   7.503  16.885  0.00  0.00    +0.000 OA
ATOM     27  H   UNL     1       8.861   8.515  18.648  0.00  0.00    +0.000 HD
ATOM     28  H   UNL     1       8.700   7.209  19.788  0.00  0.00    +0.000 HD
ENDBRANCH  23  25
ENDBRANCH  22  23
ENDBRANCH  16  22
ENDBRANCH   1  16
TORSDOF 7
ENDMDL
MODEL 4
REMARK VINA RESULT:      -7.8      3.848      5.853
REMARK  Name = 
REMARK  7 active torsions:
REMARK  status: ('A' for Active; 'I' for Inactive)
REMARK    1  A    between atoms: C_2  and  C_4
REMARK    2  A    between atoms: C_4  and  C_5
REMARK    3  A    between atoms: C_5  and  C_6
REMARK    4  A    between atoms: C_6  and  N_7
REMARK    5  A    between atoms: C_6  and  C_21
REMARK    6  A    between atoms: N_7  and  S_8
REMARK    7  A    between atoms: S_8  and  C_11
REMARK                            x       y       z     vdW  Elec       q    Type
REMARK                         _______ _______ _______ _____ _____    ______ ____
ROOT
ATOM      1  N   UNL     1       2.520   4.216  18.246  0.00  0.00    +0.000 NA
ATOM      2  H   UNL     1       2.774   5.004  17.651  0.00  0.00    +0.000 HD
ENDROOT
BRANCH   1   3
ATOM      3  S   UNL     1       3.853   3.258  18.615  0.00  0.00    +0.000 S 
ATOM      4  O   UNL     1       3.822   3.086  20.051  0.00  0.00    +0.000 OA
ATOM      5  O   UNL     1       3.827   2.102  17.747  0.00  0.00    +0.000 OA
BRANCH   3   6
ATOM      6  C   UNL     1       5.248   4.283  18.217  0.00  0.00    +0.000 A 
ATOM      7  C   UNL     1       5.906   4.897  19.295  0.00  0.00    +0.000 A 
ATOM      8  C   UNL     1       7.050   5.651  19.073  0.00  0.00    +0.000 A 
ATOM      9  C   UNL     1       7.542   5.790  17.778  0.00  0.00    +0.000 A 
ATOM     10  C   UNL     1       6.895   5.195  16.685  0.00  0.00    +0.000 A 
ATOM     11  C   UNL     1       7.435   5.353  15.399  0.00  0.00    +0.000 A 
ATOM     12  C   UNL     1       6.825   4.782  14.284  0.00  0.00    +0.000 A 
ATOM     13  C   UNL     1       5.658   4.052  14.442  0.00  0.00    +0.000 A 
ATOM     14  C   UNL     1       5.109   3.881  15.715  0.00  0.00    +0.000 A 
ATOM     15  C   UNL     1       5.712   4.434  16.878  0.00  0.00    +0.000 A 
ENDBRANCH   3   6
ENDBRANCH   1   3
BRANCH   1  16
ATOM     16  C   UNL     1       1.388   4.404  19.181  0.00  0.00    +0.000 C 
BRANCH  16  17
ATOM     17  C   UNL     1       0.810   3.073  19.679  0.00  0.00    +0.000 C 
ATOM     18  N   UNL     1       0.893   2.880  21.032  0.00  0.00    +0.000 N 
ATOM     19  O   UNL     1       0.310   2.219  18.959  0.00  0.00    +0.000 OA
ATOM     20  H   UNL     1       1.059   3.651  21.666  0.00  0.00    +0.000 HD
ATOM     21  H   UNL     1       0.406   2.074  21.404  0.00  0.00    +0.000 HD
ENDBRANCH  16  17
BRANCH  16  22
ATOM     22  C   UNL     1       1.736   5.352  20.335  0.00  0.00    +0.000 C 
BRANCH  22  23
ATOM     23  C   UNL     1       2.532   6.570  19.869  0.00  0.00    +0.000 C 
BRANCH  23  25
ATOM     24  N   UNL     1       1.626   8.103  21.513  0.00  0.00    +0.000 N 
ATOM     25  C   UNL     1       1.838   7.869  20.189  0.00  0.00    +0.000 C 
ATOM     26  O   UNL     1       1.522   8.686  19.332  0.00  0.00    +0.000 OA
ATOM     27  H   UNL     1       1.172   8.967  21.779  0.00  0.00    +0.000 HD
ATOM     28  H   UNL     1       1.841   7.427  22.237  0.00  0.00    +0.000 HD
ENDBRANCH  23  25
ENDBRANCH  22  23
ENDBRANCH  16  22
ENDBRANCH   1  16
TORSDOF 7
ENDMDL
MODEL 5
REMARK VINA RESULT:      -7.7      2.957      4.455
REMARK  Name = 
REMARK  7 active torsions:
REMARK  status: ('A' for Active; 'I' for Inactive)
REMARK    1  A    between atoms: C_2  and  C_4
REMARK    2  A    between atoms: C_4  and  C_5
REMARK    3  A    between atoms: C_5  and  C_6
REMARK    4  A    between atoms: C_6  and  N_7
REMARK    5  A    between atoms: C_6  and  C_21
REMARK    6  A    between atoms: N_7  and  S_8
REMARK    7  A    between atoms: S_8  and  C_11
REMARK                            x       y       z     vdW  Elec       q    Type
REMARK                         _______ _______ _______ _____ _____    ______ ____
ROOT
ATOM      1  N   UNL     1       4.881   3.471  17.361  0.00  0.00    +0.000 NA
ATOM      2  H   UNL     1       5.555   2.713  17.462  0.00  0.00    +0.000 HD
ENDROOT
BRANCH   1   3
ATOM      3  S   UNL     1       3.303   2.937  17.596  0.00  0.00    +0.000 S 
ATOM      4  O   UNL     1       2.546   3.458  16.479  0.00  0.00    +0.000 OA
ATOM      5  O   UNL     1       3.344   1.512  17.841  0.00  0.00    +0.000 OA
BRANCH   3   6
ATOM      6  C   UNL     1       2.771   3.788  19.061  0.00  0.00    +0.000 A 
ATOM      7  C   UNL     1       2.701   3.028  20.241  0.00  0.00    +0.000 A 
ATOM      8  C   UNL     1       2.368   3.638  21.442  0.00  0.00    +0.000 A 
ATOM      9  C   UNL     1       2.107   5.005  21.471  0.00  0.00    +0.000 A 
ATOM     10  C   UNL     1       2.160   5.782  20.303  0.00  0.00    +0.000 A 
ATOM     11  C   UNL     1       1.901   7.159  20.383  0.00  0.00    +0.000 A 
ATOM     12  C   UNL     1       1.940   7.968  19.251  0.00  0.00    +0.000 A 
ATOM     13  C   UNL     1       2.228   7.406  18.017  0.00  0.00    +0.000 A 
ATOM     14  C   UNL     1       2.493   6.037  17.920  0.00  0.00    +0.000 A 
ATOM     15  C   UNL     1       2.479   5.183  19.056  0.00  0.00    +0.000 A 
ENDBRANCH   3   6
ENDBRANCH   1   3
BRANCH   1  16
ATOM     16  C   UNL     1       5.325   4.834  17.729  0.00  0.00    +0.000 C 
BRANCH  16  17
ATOM     17  C   UNL     1       6.590   4.826  18.597  0.00  0.00    +0.000 C 
ATOM     18  N   UNL     1       7.704   4.315  17.986  0.00  0.00    +0.000 N 
ATOM     19  O   UNL     1       6.644   5.227  19.752  0.00  0.00    +0.000 OA
ATOM     20  H   UNL     1       7.756   4.216  16.981  0.00  0.00    +0.000 HD
ATOM     21  H   UNL     1       8.579   4.415  18.486  0.00  0.00    +0.000 HD
ENDBRANCH  16  17
BRANCH  16  22
ATOM     22  C   UNL     1       5.466   5.751  16.508  0.00  0.00    +0.000 C 
BRANCH  22  23
ATOM     23  C   UNL     1       5.296   4.998  15.190  0.00  0.00    +0.000 C 
BRANCH  23  25
ATOM     24  N   UNL     1       6.554   3.602  13.659  0.00  0.00    +0.000 N 
ATOM     25  C   UNL     1       6.615   4.609  14.574  0.00  0.00    +0.000 C 
ATOM     26  O   UNL     1       7.668   5.180  14.832  0.00  0.00    +0.000 OA
ATOM     27  H   UNL     1       7.412   3.311  13.210  0.00  0.00    +0.000 HD
ATOM     28  H   UNL     1       5.704   3.087  13.457  0.00  0.00    +0.000 HD
ENDBRANCH  23  25
ENDBRANCH  22  23
ENDBRANCH  16  22
ENDBRANCH   1  16
TORSDOF 7
ENDMDL
MODEL 6
REMARK VINA RESULT:      -7.6      2.610      4.150
REMARK  Name = 
REMARK  7 active torsions:
REMARK  status: ('A' for Active; 'I' for Inactive)
REMARK    1  A    between atoms: C_2  and  C_4
REMARK    2  A    between atoms: C_4  and  C_5
REMARK    3  A    between atoms: C_5  and  C_6
REMARK    4  A    between atoms: C_6  and  N_7
REMARK    5  A    between atoms: C_6  and  C_21
REMARK    6  A    between atoms: N_7  and  S_8
REMARK    7  A    between atoms: S_8  and  C_11
REMARK                            x       y       z     vdW  Elec       q    Type
REMARK                         _______ _______ _______ _____ _____    ______ ____
ROOT
ATOM      1  N   UNL     1       4.833   4.551  17.235  0.00  0.00    +0.000 NA
ATOM      2  H   UNL     1       4.449   5.487  17.359  0.00  0.00    +0.000 HD
ENDROOT
BRANCH   1   3
ATOM      3  S   UNL     1       3.649   3.366  17.392  0.00  0.00    +0.000 S 
ATOM      4  O   UNL     1       2.721   3.598  16.308  0.00  0.00    +0.000 OA
ATOM      5  O   UNL     1       4.310   2.086  17.518  0.00  0.00    +0.000 OA
BRANCH   3   6
ATOM      6  C   UNL     1       2.826   3.774  18.913  0.00  0.00    +0.000 A 
ATOM      7  C   UNL     1       2.582   2.713  19.801  0.00  0.00    +0.000 A 
ATOM      8  C   UNL     1       2.013   2.963  21.042  0.00  0.00    +0.000 A 
ATOM      9  C   UNL     1       1.690   4.268  21.401  0.00  0.00    +0.000 A 
ATOM     10  C   UNL     1       1.914   5.342  20.526  0.00  0.00    +0.000 A 
ATOM     11  C   UNL     1       1.582   6.642  20.937  0.00  0.00    +0.000 A 
ATOM     12  C   UNL     1       1.785   7.737  20.101  0.00  0.00    +0.000 A 
ATOM     13  C   UNL     1       2.314   7.543  18.834  0.00  0.00    +0.000 A 
ATOM     14  C   UNL     1       2.653   6.255  18.411  0.00  0.00    +0.000 A 
ATOM     15  C   UNL     1       2.477   5.116  19.242  0.00  0.00    +0.000 A 
ENDBRANCH   3   6
ENDBRANCH   1   3
BRANCH   1  16
ATOM     16  C   UNL     1       5.994   4.404  16.329  0.00  0.00    +0.000 C 
BRANCH  16  17
ATOM     17  C   UNL     1       5.969   5.410  15.172  0.00  0.00    +0.000 C 
ATOM     18  N   UNL     1       6.865   5.155  14.168  0.00  0.00    +0.000 N 
ATOM     19  O   UNL     1       5.229   6.383  15.111  0.00  0.00    +0.000 OA
ATOM     20  H   UNL     1       7.297   4.246  14.065  0.00  0.00    +0.000 HD
ATOM     21  H   UNL     1       6.783   5.724  13.334  0.00  0.00    +0.000 HD
ENDBRANCH  16  17
BRANCH  16  22
ATOM     22  C   UNL     1       7.329   4.422  17.084  0.00  0.00    +0.000 C 
BRANCH  22  23
ATOM     23  C   UNL     1       7.527   5.707  17.886  0.00  0.00    +0.000 C 
BRANCH  23  25
ATOM     24  N   UNL     1       8.314   5.512  20.170  0.00  0.00    +0.000 N 
ATOM     25  C   UNL     1       7.226   5.523  19.352  0.00  0.00    +0.000 C 
ATOM     26  O   UNL     1       6.087   5.436  19.795  0.00  0.00    +0.000 OA
ATOM     27  H   UNL     1       8.164   5.401  21.164  0.00  0.00    +0.000 HD
ATOM     28  H   UNL     1       9.268   5.542  19.826  0.00  0.00    +0.000 HD
ENDBRANCH  23  25
ENDBRANCH  22  23
ENDBRANCH  16  22
ENDBRANCH   1  16
TORSDOF 7
ENDMDL
MODEL 7
REMARK VINA RESULT:      -7.5      3.463      5.438
REMARK  Name = 
REMARK  7 active torsions:
REMARK  status: ('A' for Active; 'I' for Inactive)
REMARK    1  A    between atoms: C_2  and  C_4
REMARK    2  A    between atoms: C_4  and  C_5
REMARK    3  A    between atoms: C_5  and  C_6
REMARK    4  A    between atoms: C_6  and  N_7
REMARK    5  A    between atoms: C_6  and  C_21
REMARK    6  A    between atoms: N_7  and  S_8
REMARK    7  A    between atoms: S_8  and  C_11
REMARK                            x       y       z     vdW  Elec       q    Type
REMARK                         _______ _______ _______ _____ _____    ______ ____
ROOT
ATOM      1  N   UNL     1       3.122   5.102  17.744  0.00  0.00    +0.000 NA
ATOM      2  H   UNL     1       2.342   5.220  17.099  0.00  0.00    +0.000 HD
ENDROOT
BRANCH   1   3
ATOM      3  S   UNL     1       2.763   5.704  19.273  0.00  0.00    +0.000 S 
ATOM      4  O   UNL     1       1.575   4.998  19.700  0.00  0.00    +0.000 OA
ATOM      5  O   UNL     1       3.968   5.645  20.072  0.00  0.00    +0.000 OA
BRANCH   3   6
ATOM      6  C   UNL     1       2.316   7.398  18.978  0.00  0.00    +0.000 A 
ATOM      7  C   UNL     1       2.710   7.948  17.747  0.00  0.00    +0.000 A 
ATOM      8  C   UNL     1       2.333   9.240  17.411  0.00  0.00    +0.000 A 
ATOM      9  C   UNL     1       1.560   9.985  18.297  0.00  0.00    +0.000 A 
ATOM     10  C   UNL     1       1.164   9.460  19.537  0.00  0.00    +0.000 A 
ATOM     11  C   UNL     1       0.375  10.244  20.393  0.00  0.00    +0.000 A 
ATOM     12  C   UNL     1      -0.039   9.765  21.634  0.00  0.00    +0.000 A 
ATOM     13  C   UNL     1       0.342   8.496  22.039  0.00  0.00    +0.000 A 
ATOM     14  C   UNL     1       1.124   7.700  21.197  0.00  0.00    +0.000 A 
ATOM     15  C   UNL     1       1.551   8.148  19.918  0.00  0.00    +0.000 A 
ENDBRANCH   3   6
ENDBRANCH   1   3
BRANCH   1  16
ATOM     16  C   UNL     1       4.012   3.938  17.534  0.00  0.00    +0.000 C 
BRANCH  16  17
ATOM     17  C   UNL     1       3.283   2.600  17.710  0.00  0.00    +0.000 C 
ATOM     18  N   UNL     1       4.027   1.611  18.296  0.00  0.00    +0.000 N 
ATOM     19  O   UNL     1       2.129   2.385  17.362  0.00  0.00    +0.000 OA
ATOM     20  H   UNL     1       4.871   1.823  18.814  0.00  0.00    +0.000 HD
ATOM     21  H   UNL     1       3.535   0.761  18.542  0.00  0.00    +0.000 HD
ENDBRANCH  16  17
BRANCH  16  22
ATOM     22  C   UNL     1       4.768   4.014  16.202  0.00  0.00    +0.000 C 
BRANCH  22  23
ATOM     23  C   UNL     1       5.633   5.268  16.094  0.00  0.00    +0.000 C 
BRANCH  23  25
ATOM     24  N   UNL     1       7.521   5.293  14.574  0.00  0.00    +0.000 N 
ATOM     25  C   UNL     1       7.080   4.948  15.814  0.00  0.00    +0.000 C 
ATOM     26  O   UNL     1       7.828   4.456  16.650  0.00  0.00    +0.000 OA
ATOM     27  H   UNL     1       8.487   5.107  14.341  0.00  0.00    +0.000 HD
ATOM     28  H   UNL     1       6.913   5.665  13.852  0.00  0.00    +0.000 HD
ENDBRANCH  23  25
ENDBRANCH  22  23
ENDBRANCH  16  22
ENDBRANCH   1  16
TORSDOF 7
ENDMDL
MODEL 8
REMARK VINA RESULT:      -7.5      2.205      3.903
REMARK  Name = 
REMARK  7 active torsions:
REMARK  status: ('A' for Active; 'I' for Inactive)
REMARK    1  A    between atoms: C_2  and  C_4
REMARK    2  A    between atoms: C_4  and  C_5
REMARK    3  A    between atoms: C_5  and  C_6
REMARK    4  A    between atoms: C_6  and  N_7
REMARK    5  A    between atoms: C_6  and  C_21
REMARK    6  A    between atoms: N_7  and  S_8
REMARK    7  A    between atoms: S_8  and  C_11
REMARK                            x       y       z     vdW  Elec       q    Type
REMARK                         _______ _______ _______ _____ _____    ______ ____
ROOT
ATOM      1  N   UNL     1       5.105   4.524  17.339  0.00  0.00    +0.000 NA
ATOM      2  H   UNL     1       4.472   5.182  16.887  0.00  0.00    +0.000 HD
ENDROOT
BRANCH   1   3
ATOM      3  S   UNL     1       4.288   3.492  18.386  0.00  0.00    +0.000 S 
ATOM      4  O   UNL     1       3.515   2.611  17.539  0.00  0.00    +0.000 OA
ATOM      5  O   UNL     1       5.252   2.942  19.315  0.00  0.00    +0.000 OA
BRANCH   3   6
ATOM      6  C   UNL     1       3.157   4.556  19.248  0.00  0.00    +0.000 A 
ATOM      7  C   UNL     1       2.519   4.015  20.377  0.00  0.00    +0.000 A 
ATOM      8  C   UNL     1       1.680   4.807  21.147  0.00  0.00    +0.000 A 
ATOM      9  C   UNL     1       1.477   6.139  20.798  0.00  0.00    +0.000 A 
ATOM     10  C   UNL     1       2.095   6.698  19.668  0.00  0.00    +0.000 A 
ATOM     11  C   UNL     1       1.870   8.049  19.362  0.00  0.00    +0.000 A 
ATOM     12  C   UNL     1       2.459   8.645  18.250  0.00  0.00    +0.000 A 
ATOM     13  C   UNL     1       3.276   7.891  17.422  0.00  0.00    +0.000 A 
ATOM     14  C   UNL     1       3.514   6.545  17.715  0.00  0.00    +0.000 A 
ATOM     15  C   UNL     1       2.944   5.907  18.849  0.00  0.00    +0.000 A 
ENDBRANCH   3   6
ENDBRANCH   1   3
BRANCH   1  16
ATOM     16  C   UNL     1       6.309   4.106  16.584  0.00  0.00    +0.000 C 
BRANCH  16  17
ATOM     17  C   UNL     1       6.244   4.506  15.105  0.00  0.00    +0.000 C 
ATOM     18  N   UNL     1       5.888   5.809  14.876  0.00  0.00    +0.000 N 
ATOM     19  O   UNL     1       6.475   3.753  14.169  0.00  0.00    +0.000 OA
ATOM     20  H   UNL     1       5.940   6.506  15.607  0.00  0.00    +0.000 HD
ATOM     21  H   UNL     1       5.962   6.136  13.920  0.00  0.00    +0.000 HD
ENDBRANCH  16  17
BRANCH  16  22
ATOM     22  C   UNL     1       7.608   4.571  17.253  0.00  0.00    +0.000 C 
BRANCH  22  23
ATOM     23  C   UNL     1       7.361   5.610  18.346  0.00  0.00    +0.000 C 
BRANCH  23  25
ATOM     24  N   UNL     1       8.495   7.699  18.819  0.00  0.00    +0.000 N 
ATOM     25  C   UNL     1       7.750   7.001  17.918  0.00  0.00    +0.000 C 
ATOM     26  O   UNL     1       7.463   7.467  16.822  0.00  0.00    +0.000 OA
ATOM     27  H   UNL     1       8.789   8.635  18.574  0.00  0.00    +0.000 HD
ATOM     28  H   UNL     1       8.712   7.351  19.747  0.00  0.00    +0.000 HD
ENDBRANCH  23  25
ENDBRANCH  22  23
ENDBRANCH  16  22
ENDBRANCH   1  16
TORSDOF 7
ENDMDL
MODEL 9
REMARK VINA RESULT:      -7.5      3.324      5.557
REMARK  Name = 
REMARK  7 active torsions:
REMARK  status: ('A' for Active; 'I' for Inactive)
REMARK    1  A    between atoms: C_2  and  C_4
REMARK    2  A    between atoms: C_4  and  C_5
REMARK    3  A    between atoms: C_5  and  C_6
REMARK    4  A    between atoms: C_6  and  N_7
REMARK    5  A    between atoms: C_6  and  C_21
REMARK    6  A    between atoms: N_7  and  S_8
REMARK    7  A    between atoms: S_8  and  C_11
REMARK                            x       y       z     vdW  Elec       q    Type
REMARK                         _______ _______ _______ _____ _____    ______ ____
ROOT
ATOM      1  N   UNL     1       6.764   4.177  15.617  0.00  0.00    +0.000 NA
ATOM      2  H   UNL     1       7.497   3.469  15.643  0.00  0.00    +0.000 HD
ENDROOT
BRANCH   1   3
ATOM      3  S   UNL     1       6.854   5.215  16.939  0.00  0.00    +0.000 S 
ATOM      4  O   UNL     1       7.420   4.428  18.012  0.00  0.00    +0.000 OA
ATOM      5  O   UNL     1       7.508   6.431  16.509  0.00  0.00    +0.000 OA
BRANCH   3   6
ATOM      6  C   UNL     1       5.157   5.550  17.342  0.00  0.00    +0.000 A 
ATOM      7  C   UNL     1       4.771   6.901  17.369  0.00  0.00    +0.000 A 
ATOM      8  C   UNL     1       3.446   7.240  17.600  0.00  0.00    +0.000 A 
ATOM      9  C   UNL     1       2.503   6.237  17.802  0.00  0.00    +0.000 A 
ATOM     10  C   UNL     1       2.867   4.881  17.790  0.00  0.00    +0.000 A 
ATOM     11  C   UNL     1       1.879   3.904  17.986  0.00  0.00    +0.000 A 
ATOM     12  C   UNL     1       2.195   2.548  17.985  0.00  0.00    +0.000 A 
ATOM     13  C   UNL     1       3.510   2.151  17.798  0.00  0.00    +0.000 A 
ATOM     14  C   UNL     1       4.505   3.111  17.597  0.00  0.00    +0.000 A 
ATOM     15  C   UNL     1       4.218   4.503  17.575  0.00  0.00    +0.000 A 
ENDBRANCH   3   6
ENDBRANCH   1   3
BRANCH   1  16
ATOM     16  C   UNL     1       6.287   4.618  14.287  0.00  0.00    +0.000 C 
BRANCH  16  17
ATOM     17  C   UNL     1       7.436   4.872  13.304  0.00  0.00    +0.000 C 
ATOM     18  N   UNL     1       8.402   5.730  13.757  0.00  0.00    +0.000 N 
ATOM     19  O   UNL     1       7.521   4.375  12.188  0.00  0.00    +0.000 OA
ATOM     20  H   UNL     1       8.494   5.949  14.741  0.00  0.00    +0.000 HD
ATOM     21  H   UNL     1       9.234   5.816  13.186  0.00  0.00    +0.000 HD
ENDBRANCH  16  17
BRANCH  16  22
ATOM     22  C   UNL     1       5.225   3.676  13.707  0.00  0.00    +0.000 C 
BRANCH  22  23
ATOM     23  C   UNL     1       4.776   4.093  12.308  0.00  0.00    +0.000 C 
BRANCH  23  25
ATOM     24  N   UNL     1       3.379   2.996  10.660  0.00  0.00    +0.000 N 
ATOM     25  C   UNL     1       4.511   2.912  11.411  0.00  0.00    +0.000 C 
ATOM     26  O   UNL     1       5.275   1.958  11.319  0.00  0.00    +0.000 OA
ATOM     27  H   UNL     1       3.162   2.231  10.034  0.00  0.00    +0.000 HD
ATOM     28  H   UNL     1       2.711   3.754  10.747  0.00  0.00    +0.000 HD
ENDBRANCH  23  25
ENDBRANCH  22  23
ENDBRANCH  16  22
ENDBRANCH   1  16
TORSDOF 7
ENDMDL
