MODEL 1
REMARK VINA RESULT:      -7.0      0.000      0.000
REMARK  Name = 
REMARK  9 active torsions:
REMARK  status: ('A' for Active; 'I' for Inactive)
REMARK    1  A    between atoms: C_1  and  O_2
REMARK    2  A    between atoms: O_2  and  C_3
REMARK    3  A    between atoms: C_6  and  C_7
REMARK    4  A    between atoms: C_8  and  C_9
REMARK    5  A    between atoms: C_11  and  N_12
REMARK    6  A    between atoms: C_21  and  O_22
REMARK    7  A    between atoms: O_22  and  C_23
REMARK    8  A    between atoms: C_24  and  O_25
REMARK    9  A    between atoms: O_25  and  C_26
REMARK                            x       y       z     vdW  Elec       q    Type
REMARK                         _______ _______ _______ _____ _____    ______ ____
ROOT
ATOM      1  C   UNL     1       2.458   5.812  17.966  0.00  0.00    +0.000 C 
ATOM      2  C   UNL     1       2.345   7.060  18.836  0.00  0.00    +0.000 C 
ATOM      3  C   UNL     1       1.929   7.010  20.121  0.00  0.00    +0.000 C 
ATOM      4  O   UNL     1       1.621   5.798  20.729  0.00  0.00    +0.000 OA
ATOM      5  C   UNL     1       1.667   4.614  20.024  0.00  0.00    +0.000 C 
ATOM      6  C   UNL     1       2.045   4.567  18.738  0.00  0.00    +0.000 C 
ATOM      7  C   UNL     1       2.067   3.238  18.038  0.00  0.00    +0.000 C 
ATOM      8  O   UNL     1       2.386   3.155  16.859  0.00  0.00    +0.000 OA
ATOM      9  C   UNL     1       1.775   1.997  18.847  0.00  0.00    +0.000 C 
ATOM     10  C   UNL     1       0.759   2.280  19.938  0.00  0.00    +0.000 C 
ATOM     11  C   UNL     1       1.220   3.426  20.823  0.00  0.00    +0.000 C 
ENDROOT
BRANCH   1  15
ATOM     12  C   UNL     1       6.425   5.543  16.176  0.00  0.00    +0.000 A 
ATOM     13  C   UNL     1       5.307   5.891  15.408  0.00  0.00    +0.000 A 
ATOM     14  C   UNL     1       4.047   5.997  15.983  0.00  0.00    +0.000 A 
ATOM     15  C   UNL     1       3.860   5.695  17.335  0.00  0.00    +0.000 A 
ATOM     16  C   UNL     1       4.975   5.270  18.112  0.00  0.00    +0.000 A 
ATOM     17  C   UNL     1       6.270   5.191  17.532  0.00  0.00    +0.000 A 
BRANCH  12  19
ATOM     18  C   UNL     1       7.688   5.105  14.222  0.00  0.00    +0.000 C 
ATOM     19  O   UNL     1       7.665   5.535  15.585  0.00  0.00    +0.000 OA
ENDBRANCH  12  19
BRANCH  16  20
ATOM     20  O   UNL     1       4.635   4.997  19.419  0.00  0.00    +0.000 OA
ATOM     21  C   UNL     1       4.907   3.726  19.993  0.00  0.00    +0.000 C 
ENDBRANCH  16  20
BRANCH  17  22
ATOM     22  O   UNL     1       7.265   4.773  18.374  0.00  0.00    +0.000 OA
ATOM     23  C   UNL     1       7.988   5.672  19.193  0.00  0.00    +0.000 C 
ENDBRANCH  17  22
ENDBRANCH   1  15
BRANCH   3  24
ATOM     24  N   UNL     1       1.741   8.078  20.964  0.00  0.00    +0.000 N 
ATOM     25  H   UNL     1       2.588   8.492  21.352  0.00  0.00    +0.000 HD
ATOM     26  H   UNL     1       1.012   7.917  21.650  0.00  0.00    +0.000 HD
ENDBRANCH   3  24
BRANCH   2  27
ATOM     27  C   UNL     1       2.623   8.336  18.243  0.00  0.00    +0.000 C 
ATOM     28  N   UNL     1       2.789   9.361  17.719  0.00  0.00    +0.000 NA
ENDBRANCH   2  27
TORSDOF 6
ENDMDL
MODEL 2
REMARK VINA RESULT:      -6.9      9.066     11.700
REMARK  Name = 
REMARK  9 active torsions:
REMARK  status: ('A' for Active; 'I' for Inactive)
REMARK    1  A    between atoms: C_1  and  O_2
REMARK    2  A    between atoms: O_2  and  C_3
REMARK    3  A    between atoms: C_6  and  C_7
REMARK    4  A    between atoms: C_8  and  C_9
REMARK    5  A    between atoms: C_11  and  N_12
REMARK    6  A    between atoms: C_21  and  O_22
REMARK    7  A    between atoms: O_22  and  C_23
REMARK    8  A    between atoms: C_24  and  O_25
REMARK    9  A    between atoms: O_25  and  C_26
REMARK                            x       y       z     vdW  Elec       q    Type
REMARK                         _______ _______ _______ _____ _____    ______ ____
ROOT
ATOM      1  C   UNL     1       8.977  15.126  19.187  0.00  0.00    +0.000 C 
ATOM      2  C   UNL     1       9.555  16.068  18.136  0.00  0.00    +0.000 C 
ATOM      3  C   UNL     1      10.498  15.674  17.251  0.00  0.00    +0.000 C 
ATOM      4  O   UNL     1      10.960  14.363  17.232  0.00  0.00    +0.000 OA
ATOM      5  C   UNL     1      10.521  13.438  18.155  0.00  0.00    +0.000 C 
ATOM      6  C   UNL     1       9.605  13.743  19.086  0.00  0.00    +0.000 C 
ATOM      7  C   UNL     1       9.179  12.680  20.059  0.00  0.00    +0.000 C 
ATOM      8  O   UNL     1       8.361  12.923  20.936  0.00  0.00    +0.000 OA
ATOM      9  C   UNL     1       9.715  11.281  19.871  0.00  0.00    +0.000 C 
ATOM     10  C   UNL     1      11.129  11.305  19.321  0.00  0.00    +0.000 C 
ATOM     11  C   UNL     1      11.194  12.103  18.029  0.00  0.00    +0.000 C 
ENDROOT
BRANCH   1  15
ATOM     12  C   UNL     1       4.623  14.979  19.020  0.00  0.00    +0.000 A 
ATOM     13  C   UNL     1       5.403  14.574  17.930  0.00  0.00    +0.000 A 
ATOM     14  C   UNL     1       6.791  14.601  17.991  0.00  0.00    +0.000 A 
ATOM     15  C   UNL     1       7.437  15.097  19.127  0.00  0.00    +0.000 A 
ATOM     16  C   UNL     1       6.656  15.580  20.216  0.00  0.00    +0.000 A 
ATOM     17  C   UNL     1       5.237  15.523  20.166  0.00  0.00    +0.000 A 
BRANCH  12  19
ATOM     18  C   UNL     1       2.753  13.535  19.174  0.00  0.00    +0.000 C 
ATOM     19  O   UNL     1       3.257  14.854  18.947  0.00  0.00    +0.000 OA
ENDBRANCH  12  19
BRANCH  16  20
ATOM     20  O   UNL     1       7.430  16.046  21.256  0.00  0.00    +0.000 OA
ATOM     21  C   UNL     1       7.540  17.438  21.516  0.00  0.00    +0.000 C 
ENDBRANCH  16  20
BRANCH  17  22
ATOM     22  O   UNL     1       4.592  16.013  21.269  0.00  0.00    +0.000 OA
ATOM     23  C   UNL     1       4.188  15.180  22.339  0.00  0.00    +0.000 C 
ENDBRANCH  17  22
ENDBRANCH   1  15
BRANCH   3  24
ATOM     24  N   UNL     1      11.117  16.459  16.309  0.00  0.00    +0.000 N 
ATOM     25  H   UNL     1      11.834  16.000  15.750  0.00  0.00    +0.000 HD
ATOM     26  H   UNL     1      11.396  17.364  16.671  0.00  0.00    +0.000 HD
ENDBRANCH   3  24
BRANCH   2  27
ATOM     27  C   UNL     1       9.131  17.439  18.137  0.00  0.00    +0.000 C 
ATOM     28  N   UNL     1       8.747  18.535  18.198  0.00  0.00    +0.000 NA
ENDBRANCH   2  27
TORSDOF 6
ENDMDL
MODEL 3
REMARK VINA RESULT:      -6.7      7.841     11.425
REMARK  Name = 
REMARK  9 active torsions:
REMARK  status: ('A' for Active; 'I' for Inactive)
REMARK    1  A    between atoms: C_1  and  O_2
REMARK    2  A    between atoms: O_2  and  C_3
REMARK    3  A    between atoms: C_6  and  C_7
REMARK    4  A    between atoms: C_8  and  C_9
REMARK    5  A    between atoms: C_11  and  N_12
REMARK    6  A    between atoms: C_21  and  O_22
REMARK    7  A    between atoms: O_22  and  C_23
REMARK    8  A    between atoms: C_24  and  O_25
REMARK    9  A    between atoms: O_25  and  C_26
REMARK                            x       y       z     vdW  Elec       q    Type
REMARK                         _______ _______ _______ _____ _____    ______ ____
ROOT
ATOM      1  C   UNL     1      -0.827  12.859  21.317  0.00  0.00    +0.000 C 
ATOM      2  C   UNL     1      -0.830  13.537  19.951  0.00  0.00    +0.000 C 
ATOM      3  C   UNL     1      -0.573  12.863  18.807  0.00  0.00    +0.000 C 
ATOM      4  O   UNL     1      -0.333  11.493  18.821  0.00  0.00    +0.000 OA
ATOM      5  C   UNL     1      -0.285  10.789  20.005  0.00  0.00    +0.000 C 
ATOM      6  C   UNL     1      -0.502  11.376  21.191  0.00  0.00    +0.000 C 
ATOM      7  C   UNL     1      -0.430  10.542  22.438  0.00  0.00    +0.000 C 
ATOM      8  O   UNL     1      -0.602  11.043  23.540  0.00  0.00    +0.000 OA
ATOM      9  C   UNL     1      -0.230   9.051  22.291  0.00  0.00    +0.000 C 
ATOM     10  C   UNL     1       0.643   8.731  21.092  0.00  0.00    +0.000 C 
ATOM     11  C   UNL     1       0.070   9.342  19.825  0.00  0.00    +0.000 C 
ENDROOT
BRANCH   1  15
ATOM     12  C   UNL     1      -4.546  13.555  23.483  0.00  0.00    +0.000 A 
ATOM     13  C   UNL     1      -4.538  12.869  22.262  0.00  0.00    +0.000 A 
ATOM     14  C   UNL     1      -3.350  12.629  21.583  0.00  0.00    +0.000 A 
ATOM     15  C   UNL     1      -2.141  13.127  22.078  0.00  0.00    +0.000 A 
ATOM     16  C   UNL     1      -2.144  13.889  23.281  0.00  0.00    +0.000 A 
ATOM     17  C   UNL     1      -3.354  14.108  23.993  0.00  0.00    +0.000 A 
BRANCH  12  19
ATOM     18  C   UNL     1      -6.705  12.678  23.907  0.00  0.00    +0.000 C 
ATOM     19  O   UNL     1      -5.732  13.694  24.163  0.00  0.00    +0.000 OA
ENDBRANCH  12  19
BRANCH  16  20
ATOM     20  O   UNL     1      -0.884  14.321  23.635  0.00  0.00    +0.000 OA
ATOM     21  C   UNL     1      -0.488  15.667  23.418  0.00  0.00    +0.000 C 
ENDBRANCH  16  20
BRANCH  17  22
ATOM     22  O   UNL     1      -3.235  14.852  25.135  0.00  0.00    +0.000 OA
ATOM     23  C   UNL     1      -3.575  16.225  25.180  0.00  0.00    +0.000 C 
ENDBRANCH  17  22
ENDBRANCH   1  15
BRANCH   3  24
ATOM     24  N   UNL     1      -0.497  13.393  17.542  0.00  0.00    +0.000 N 
ATOM     25  H   UNL     1      -1.106  12.967  16.845  0.00  0.00    +0.000 HD
ATOM     26  H   UNL     1       0.458  13.525  17.227  0.00  0.00    +0.000 HD
ENDBRANCH   3  24
BRANCH   2  27
ATOM     27  C   UNL     1      -1.042  14.954  19.890  0.00  0.00    +0.000 C 
ATOM     28  N   UNL     1      -1.141  16.112  19.852  0.00  0.00    +0.000 NA
ENDBRANCH   2  27
TORSDOF 6
ENDMDL
MODEL 4
REMARK VINA RESULT:      -6.7      7.224     10.720
REMARK  Name = 
REMARK  9 active torsions:
REMARK  status: ('A' for Active; 'I' for Inactive)
REMARK    1  A    between atoms: C_1  and  O_2
REMARK    2  A    between atoms: O_2  and  C_3
REMARK    3  A    between atoms: C_6  and  C_7
REMARK    4  A    between atoms: C_8  and  C_9
REMARK    5  A    between atoms: C_11  and  N_12
REMARK    6  A    between atoms: C_21  and  O_22
REMARK    7  A    between atoms: O_22  and  C_23
REMARK    8  A    between atoms: C_24  and  O_25
REMARK    9  A    between atoms: O_25  and  C_26
REMARK                            x       y       z     vdW  Elec       q    Type
REMARK                         _______ _______ _______ _____ _____    ______ ____
ROOT
ATOM      1  C   UNL     1       0.365  12.708  20.992  0.00  0.00    +0.000 C 
ATOM      2  C   UNL     1       0.965  13.239  19.695  0.00  0.00    +0.000 C 
ATOM      3  C   UNL     1       1.482  12.423  18.749  0.00  0.00    +0.000 C 
ATOM      4  O   UNL     1       1.451  11.041  18.900  0.00  0.00    +0.000 OA
ATOM      5  C   UNL     1       0.952  10.459  20.046  0.00  0.00    +0.000 C 
ATOM      6  C   UNL     1       0.440  11.188  21.048  0.00  0.00    +0.000 C 
ATOM      7  C   UNL     1      -0.082  10.481  22.266  0.00  0.00    +0.000 C 
ATOM      8  O   UNL     1      -0.538  11.111  23.211  0.00  0.00    +0.000 OA
ATOM      9  C   UNL     1      -0.115   8.971  22.258  0.00  0.00    +0.000 C 
ATOM     10  C   UNL     1       1.051   8.401  21.472  0.00  0.00    +0.000 C 
ATOM     11  C   UNL     1       1.080   8.965  20.061  0.00  0.00    +0.000 C 
ENDROOT
BRANCH   1  15
ATOM     12  C   UNL     1      -3.687  14.184  21.633  0.00  0.00    +0.000 A 
ATOM     13  C   UNL     1      -3.393  13.315  20.575  0.00  0.00    +0.000 A 
ATOM     14  C   UNL     1      -2.106  12.828  20.385  0.00  0.00    +0.000 A 
ATOM     15  C   UNL     1      -1.062  13.251  21.212  0.00  0.00    +0.000 A 
ATOM     16  C   UNL     1      -1.332  14.191  22.247  0.00  0.00    +0.000 A 
ATOM     17  C   UNL     1      -2.654  14.665  22.463  0.00  0.00    +0.000 A 
BRANCH  12  19
ATOM     18  C   UNL     1      -5.795  13.643  22.566  0.00  0.00    +0.000 C 
ATOM     19  O   UNL     1      -4.989  14.572  21.837  0.00  0.00    +0.000 OA
ENDBRANCH  12  19
BRANCH  16  20
ATOM     20  O   UNL     1      -0.206  14.521  22.969  0.00  0.00    +0.000 OA
ATOM     21  C   UNL     1       0.350  15.825  22.898  0.00  0.00    +0.000 C 
ENDBRANCH  16  20
BRANCH  17  22
ATOM     22  O   UNL     1      -2.795  15.563  23.486  0.00  0.00    +0.000 OA
ATOM     23  C   UNL     1      -3.101  15.160  24.807  0.00  0.00    +0.000 C 
ENDBRANCH  17  22
ENDBRANCH   1  15
BRANCH   3  24
ATOM     24  N   UNL     1       2.093  12.806  17.580  0.00  0.00    +0.000 N 
ATOM     25  H   UNL     1       1.585  12.591  16.723  0.00  0.00    +0.000 HD
ATOM     26  H   UNL     1       3.075  12.557  17.548  0.00  0.00    +0.000 HD
ENDBRANCH   3  24
BRANCH   2  27
ATOM     27  C   UNL     1       1.047  14.659  19.508  0.00  0.00    +0.000 C 
ATOM     28  N   UNL     1       1.099  15.800  19.285  0.00  0.00    +0.000 NA
ENDBRANCH   2  27
TORSDOF 6
ENDMDL
MODEL 5
REMARK VINA RESULT:      -6.6      7.530     11.075
REMARK  Name = 
REMARK  9 active torsions:
REMARK  status: ('A' for Active; 'I' for Inactive)
REMARK    1  A    between atoms: C_1  and  O_2
REMARK    2  A    between atoms: O_2  and  C_3
REMARK    3  A    between atoms: C_6  and  C_7
REMARK    4  A    between atoms: C_8  and  C_9
REMARK    5  A    between atoms: C_11  and  N_12
REMARK    6  A    between atoms: C_21  and  O_22
REMARK    7  A    between atoms: O_22  and  C_23
REMARK    8  A    between atoms: C_24  and  O_25
REMARK    9  A    between atoms: O_25  and  C_26
REMARK                            x       y       z     vdW  Elec       q    Type
REMARK                         _______ _______ _______ _____ _____    ______ ____
ROOT
ATOM      1  C   UNL     1      -0.429  12.876  20.931  0.00  0.00    +0.000 C 
ATOM      2  C   UNL     1       0.217  13.260  19.604  0.00  0.00    +0.000 C 
ATOM      3  C   UNL     1       0.985  12.401  18.897  0.00  0.00    +0.000 C 
ATOM      4  O   UNL     1       1.188  11.096  19.332  0.00  0.00    +0.000 OA
ATOM      5  C   UNL     1       0.669  10.654  20.530  0.00  0.00    +0.000 C 
ATOM      6  C   UNL     1      -0.084  11.442  21.312  0.00  0.00    +0.000 C 
ATOM      7  C   UNL     1      -0.612  10.888  22.605  0.00  0.00    +0.000 C 
ATOM      8  O   UNL     1      -1.286  11.580  23.356  0.00  0.00    +0.000 OA
ATOM      9  C   UNL     1      -0.368   9.429  22.912  0.00  0.00    +0.000 C 
ATOM     10  C   UNL     1       0.969   8.970  22.361  0.00  0.00    +0.000 C 
ATOM     11  C   UNL     1       1.065   9.248  20.870  0.00  0.00    +0.000 C 
ENDROOT
BRANCH   1  15
ATOM     12  C   UNL     1      -4.729  13.591  20.913  0.00  0.00    +0.000 A 
ATOM     13  C   UNL     1      -4.149  12.653  20.051  0.00  0.00    +0.000 A 
ATOM     14  C   UNL     1      -2.781  12.410  20.072  0.00  0.00    +0.000 A 
ATOM     15  C   UNL     1      -1.946  13.149  20.916  0.00  0.00    +0.000 A 
ATOM     16  C   UNL     1      -2.513  14.157  21.746  0.00  0.00    +0.000 A 
ATOM     17  C   UNL     1      -3.916  14.384  21.748  0.00  0.00    +0.000 A 
BRANCH  12  19
ATOM     18  C   UNL     1      -6.809  12.763  21.687  0.00  0.00    +0.000 C 
ATOM     19  O   UNL     1      -6.095  13.737  20.920  0.00  0.00    +0.000 OA
ENDBRANCH  12  19
BRANCH  16  20
ATOM     20  O   UNL     1      -1.568  14.806  22.510  0.00  0.00    +0.000 OA
ATOM     21  C   UNL     1      -1.197  16.147  22.226  0.00  0.00    +0.000 C 
ENDBRANCH  16  20
BRANCH  17  22
ATOM     22  O   UNL     1      -4.348  15.376  22.587  0.00  0.00    +0.000 OA
ATOM     23  C   UNL     1      -4.788  15.110  23.905  0.00  0.00    +0.000 C 
ENDBRANCH  17  22
ENDBRANCH   1  15
BRANCH   3  24
ATOM     24  N   UNL     1       1.652  12.670  17.727  0.00  0.00    +0.000 N 
ATOM     25  H   UNL     1       2.520  13.194  17.821  0.00  0.00    +0.000 HD
ATOM     26  H   UNL     1       1.041  13.016  16.995  0.00  0.00    +0.000 HD
ENDBRANCH   3  24
BRANCH   2  27
ATOM     27  C   UNL     1       0.061  14.605  19.131  0.00  0.00    +0.000 C 
ATOM     28  N   UNL     1      -0.102  15.668  18.688  0.00  0.00    +0.000 NA
ENDBRANCH   2  27
TORSDOF 6
ENDMDL
MODEL 6
REMARK VINA RESULT:      -6.6      7.128     10.354
REMARK  Name = 
REMARK  9 active torsions:
REMARK  status: ('A' for Active; 'I' for Inactive)
REMARK    1  A    between atoms: C_1  and  O_2
REMARK    2  A    between atoms: O_2  and  C_3
REMARK    3  A    between atoms: C_6  and  C_7
REMARK    4  A    between atoms: C_8  and  C_9
REMARK    5  A    between atoms: C_11  and  N_12
REMARK    6  A    between atoms: C_21  and  O_22
REMARK    7  A    between atoms: O_22  and  C_23
REMARK    8  A    between atoms: C_24  and  O_25
REMARK    9  A    between atoms: O_25  and  C_26
REMARK                            x       y       z     vdW  Elec       q    Type
REMARK                         _______ _______ _______ _____ _____    ______ ____
ROOT
ATOM      1  C   UNL     1      -1.557  11.206  19.583  0.00  0.00    +0.000 C 
ATOM      2  C   UNL     1      -0.202  10.511  19.661  0.00  0.00    +0.000 C 
ATOM      3  C   UNL     1       0.288   9.765  18.645  0.00  0.00    +0.000 C 
ATOM      4  O   UNL     1      -0.412   9.631  17.451  0.00  0.00    +0.000 OA
ATOM      5  C   UNL     1      -1.657  10.200  17.287  0.00  0.00    +0.000 C 
ATOM      6  C   UNL     1      -2.235  10.936  18.247  0.00  0.00    +0.000 C 
ATOM      7  C   UNL     1      -3.595  11.520  17.993  0.00  0.00    +0.000 C 
ATOM      8  O   UNL     1      -4.165  12.181  18.851  0.00  0.00    +0.000 OA
ATOM      9  C   UNL     1      -4.203  11.350  16.621  0.00  0.00    +0.000 C 
ATOM     10  C   UNL     1      -3.804  10.021  16.006  0.00  0.00    +0.000 C 
ATOM     11  C   UNL     1      -2.291   9.875  15.966  0.00  0.00    +0.000 C 
ENDROOT
BRANCH   1  15
ATOM     12  C   UNL     1      -1.247  15.469  20.445  0.00  0.00    +0.000 A 
ATOM     13  C   UNL     1      -0.596  14.905  19.340  0.00  0.00    +0.000 A 
ATOM     14  C   UNL     1      -0.713  13.550  19.054  0.00  0.00    +0.000 A 
ATOM     15  C   UNL     1      -1.434  12.709  19.906  0.00  0.00    +0.000 A 
ATOM     16  C   UNL     1      -2.041  13.255  21.073  0.00  0.00    +0.000 A 
ATOM     17  C   UNL     1      -1.949  14.646  21.349  0.00  0.00    +0.000 A 
BRANCH  12  19
ATOM     18  C   UNL     1      -1.980  17.613  19.758  0.00  0.00    +0.000 C 
ATOM     19  O   UNL     1      -1.175  16.826  20.640  0.00  0.00    +0.000 OA
ENDBRANCH  12  19
BRANCH  16  20
ATOM     20  O   UNL     1      -2.705  12.305  21.817  0.00  0.00    +0.000 OA
ATOM     21  C   UNL     1      -2.201  11.882  23.075  0.00  0.00    +0.000 C 
ENDBRANCH  16  20
BRANCH  17  22
ATOM     22  O   UNL     1      -2.572  15.058  22.495  0.00  0.00    +0.000 OA
ATOM     23  C   UNL     1      -3.902  15.538  22.500  0.00  0.00    +0.000 C 
ENDBRANCH  17  22
ENDBRANCH   1  15
BRANCH   3  24
ATOM     24  N   UNL     1       1.466   9.057  18.641  0.00  0.00    +0.000 N 
ATOM     25  H   UNL     1       1.408   8.096  18.973  0.00  0.00    +0.000 HD
ATOM     26  H   UNL     1       2.242   9.580  19.031  0.00  0.00    +0.000 HD
ENDBRANCH   3  24
BRANCH   2  27
ATOM     27  C   UNL     1       0.543  10.595  20.884  0.00  0.00    +0.000 C 
ATOM     28  N   UNL     1       1.084  10.651  21.912  0.00  0.00    +0.000 NA
ENDBRANCH   2  27
TORSDOF 6
ENDMDL
MODEL 7
REMARK VINA RESULT:      -6.6      8.080     10.754
REMARK  Name = 
REMARK  9 active torsions:
REMARK  status: ('A' for Active; 'I' for Inactive)
REMARK    1  A    between atoms: C_1  and  O_2
REMARK    2  A    between atoms: O_2  and  C_3
REMARK    3  A    between atoms: C_6  and  C_7
REMARK    4  A    between atoms: C_8  and  C_9
REMARK    5  A    between atoms: C_11  and  N_12
REMARK    6  A    between atoms: C_21  and  O_22
REMARK    7  A    between atoms: O_22  and  C_23
REMARK    8  A    between atoms: C_24  and  O_25
REMARK    9  A    between atoms: O_25  and  C_26
REMARK                            x       y       z     vdW  Elec       q    Type
REMARK                         _______ _______ _______ _____ _____    ______ ____
ROOT
ATOM      1  C   UNL     1      -2.711  13.837  22.109  0.00  0.00    +0.000 C 
ATOM      2  C   UNL     1      -2.658  14.630  23.410  0.00  0.00    +0.000 C 
ATOM      3  C   UNL     1      -3.760  14.877  24.154  0.00  0.00    +0.000 C 
ATOM      4  O   UNL     1      -5.002  14.375  23.783  0.00  0.00    +0.000 OA
ATOM      5  C   UNL     1      -5.164  13.664  22.612  0.00  0.00    +0.000 C 
ATOM      6  C   UNL     1      -4.134  13.392  21.798  0.00  0.00    +0.000 C 
ATOM      7  C   UNL     1      -4.392  12.615  20.538  0.00  0.00    +0.000 C 
ATOM      8  O   UNL     1      -3.483  12.363  19.759  0.00  0.00    +0.000 OA
ATOM      9  C   UNL     1      -5.782  12.074  20.302  0.00  0.00    +0.000 C 
ATOM     10  C   UNL     1      -6.837  13.008  20.866  0.00  0.00    +0.000 C 
ATOM     11  C   UNL     1      -6.588  13.279  22.340  0.00  0.00    +0.000 C 
ENDROOT
BRANCH   1  15
ATOM     12  C   UNL     1       0.095  10.500  22.125  0.00  0.00    +0.000 A 
ATOM     13  C   UNL     1      -0.959  10.563  23.045  0.00  0.00    +0.000 A 
ATOM     14  C   UNL     1      -1.865  11.616  23.026  0.00  0.00    +0.000 A 
ATOM     15  C   UNL     1      -1.703  12.671  22.122  0.00  0.00    +0.000 A 
ATOM     16  C   UNL     1      -0.594  12.656  21.228  0.00  0.00    +0.000 A 
ATOM     17  C   UNL     1       0.315  11.564  21.226  0.00  0.00    +0.000 A 
BRANCH  12  19
ATOM     18  C   UNL     1       0.519   8.344  21.243  0.00  0.00    +0.000 C 
ATOM     19  O   UNL     1       0.915   9.398  22.123  0.00  0.00    +0.000 OA
ENDBRANCH  12  19
BRANCH  16  20
ATOM     20  O   UNL     1      -0.560  13.763  20.410  0.00  0.00    +0.000 OA
ATOM     21  C   UNL     1       0.409  14.783  20.603  0.00  0.00    +0.000 C 
ENDBRANCH  16  20
BRANCH  17  22
ATOM     22  O   UNL     1       1.340  11.657  20.324  0.00  0.00    +0.000 OA
ATOM     23  C   UNL     1       1.209  11.219  18.986  0.00  0.00    +0.000 C 
ENDBRANCH  17  22
ENDBRANCH   1  15
BRANCH   3  24
ATOM     24  N   UNL     1      -3.822  15.625  25.304  0.00  0.00    +0.000 N 
ATOM     25  H   UNL     1      -2.937  16.002  25.638  0.00  0.00    +0.000 HD
ATOM     26  H   UNL     1      -4.381  15.188  26.029  0.00  0.00    +0.000 HD
ENDBRANCH   3  24
BRANCH   2  27
ATOM     27  C   UNL     1      -1.403  15.195  23.818  0.00  0.00    +0.000 C 
ATOM     28  N   UNL     1      -0.355  15.587  24.133  0.00  0.00    +0.000 NA
ENDBRANCH   2  27
TORSDOF 6
ENDMDL
MODEL 8
REMARK VINA RESULT:      -6.6      9.968     12.250
REMARK  Name = 
REMARK  9 active torsions:
REMARK  status: ('A' for Active; 'I' for Inactive)
REMARK    1  A    between atoms: C_1  and  O_2
REMARK    2  A    between atoms: O_2  and  C_3
REMARK    3  A    between atoms: C_6  and  C_7
REMARK    4  A    between atoms: C_8  and  C_9
REMARK    5  A    between atoms: C_11  and  N_12
REMARK    6  A    between atoms: C_21  and  O_22
REMARK    7  A    between atoms: O_22  and  C_23
REMARK    8  A    between atoms: C_24  and  O_25
REMARK    9  A    between atoms: O_25  and  C_26
REMARK                            x       y       z     vdW  Elec       q    Type
REMARK                         _______ _______ _______ _____ _____    ______ ____
ROOT
ATOM      1  C   UNL     1       9.320  15.434  19.272  0.00  0.00    +0.000 C 
ATOM      2  C   UNL     1      10.190  15.853  18.092  0.00  0.00    +0.000 C 
ATOM      3  C   UNL     1      11.052  15.003  17.489  0.00  0.00    +0.000 C 
ATOM      4  O   UNL     1      11.154  13.677  17.897  0.00  0.00    +0.000 OA
ATOM      5  C   UNL     1      10.428  13.203  18.969  0.00  0.00    +0.000 C 
ATOM      6  C   UNL     1       9.567  13.978  19.644  0.00  0.00    +0.000 C 
ATOM      7  C   UNL     1       8.816  13.388  20.803  0.00  0.00    +0.000 C 
ATOM      8  O   UNL     1       8.037  14.067  21.457  0.00  0.00    +0.000 OA
ATOM      9  C   UNL     1       8.977  11.913  21.084  0.00  0.00    +0.000 C 
ATOM     10  C   UNL     1      10.380  11.441  20.750  0.00  0.00    +0.000 C 
ATOM     11  C   UNL     1      10.734  11.774  19.311  0.00  0.00    +0.000 C 
ENDROOT
BRANCH   1  15
ATOM     12  C   UNL     1       5.099  16.265  18.565  0.00  0.00    +0.000 A 
ATOM     13  C   UNL     1       5.735  15.179  17.950  0.00  0.00    +0.000 A 
ATOM     14  C   UNL     1       7.075  14.903  18.193  0.00  0.00    +0.000 A 
ATOM     15  C   UNL     1       7.833  15.746  19.010  0.00  0.00    +0.000 A 
ATOM     16  C   UNL     1       7.218  16.895  19.584  0.00  0.00    +0.000 A 
ATOM     17  C   UNL     1       5.839  17.161  19.362  0.00  0.00    +0.000 A 
BRANCH  12  19
ATOM     18  C   UNL     1       3.028  15.284  17.969  0.00  0.00    +0.000 C 
ATOM     19  O   UNL     1       3.753  16.451  18.365  0.00  0.00    +0.000 OA
ENDBRANCH  12  19
BRANCH  16  20
ATOM     20  O   UNL     1       8.091  17.634  20.352  0.00  0.00    +0.000 OA
ATOM     21  C   UNL     1       8.076  17.538  21.769  0.00  0.00    +0.000 C 
ENDBRANCH  16  20
BRANCH  17  22
ATOM     22  O   UNL     1       5.357  18.291  19.964  0.00  0.00    +0.000 OA
ATOM     23  C   UNL     1       4.527  18.240  21.108  0.00  0.00    +0.000 C 
ENDBRANCH  17  22
ENDBRANCH   1  15
BRANCH   3  24
ATOM     24  N   UNL     1      11.914  15.300  16.462  0.00  0.00    +0.000 N 
ATOM     25  H   UNL     1      12.073  16.291  16.288  0.00  0.00    +0.000 HD
ATOM     26  H   UNL     1      11.730  14.761  15.624  0.00  0.00    +0.000 HD
ENDBRANCH   3  24
BRANCH   2  27
ATOM     27  C   UNL     1      10.143  17.219  17.656  0.00  0.00    +0.000 C 
ATOM     28  N   UNL     1      10.148  18.344  17.360  0.00  0.00    +0.000 NA
ENDBRANCH   2  27
TORSDOF 6
ENDMDL
MODEL 9
REMARK VINA RESULT:      -6.6      5.540      8.362
REMARK  Name = 
REMARK  9 active torsions:
REMARK  status: ('A' for Active; 'I' for Inactive)
REMARK    1  A    between atoms: C_1  and  O_2
REMARK    2  A    between atoms: O_2  and  C_3
REMARK    3  A    between atoms: C_6  and  C_7
REMARK    4  A    between atoms: C_8  and  C_9
REMARK    5  A    between atoms: C_11  and  N_12
REMARK    6  A    between atoms: C_21  and  O_22
REMARK    7  A    between atoms: O_22  and  C_23
REMARK    8  A    between atoms: C_24  and  O_25
REMARK    9  A    between atoms: O_25  and  C_26
REMARK                            x       y       z     vdW  Elec       q    Type
REMARK                         _______ _______ _______ _____ _____    ______ ____
ROOT
ATOM      1  C   UNL     1       0.060  10.671  20.310  0.00  0.00    +0.000 C 
ATOM      2  C   UNL     1      -0.291  10.515  21.786  0.00  0.00    +0.000 C 
ATOM      3  C   UNL     1       0.145   9.472  22.527  0.00  0.00    +0.000 C 
ATOM      4  O   UNL     1       0.979   8.503  21.981  0.00  0.00    +0.000 OA
ATOM      5  C   UNL     1       1.337   8.537  20.650  0.00  0.00    +0.000 C 
ATOM      6  C   UNL     1       0.933   9.519  19.830  0.00  0.00    +0.000 C 
ATOM      7  C   UNL     1       1.362   9.484  18.391  0.00  0.00    +0.000 C 
ATOM      8  O   UNL     1       0.999  10.350  17.607  0.00  0.00    +0.000 OA
ATOM      9  C   UNL     1       2.328   8.407  17.958  0.00  0.00    +0.000 C 
ATOM     10  C   UNL     1       2.095   7.120  18.727  0.00  0.00    +0.000 C 
ATOM     11  C   UNL     1       2.169   7.364  20.225  0.00  0.00    +0.000 C 
ENDROOT
BRANCH   1  15
ATOM     12  C   UNL     1       1.838  14.559  19.455  0.00  0.00    +0.000 A 
ATOM     13  C   UNL     1       2.559  13.566  20.130  0.00  0.00    +0.000 A 
ATOM     14  C   UNL     1       1.999  12.320  20.383  0.00  0.00    +0.000 A 
ATOM     15  C   UNL     1       0.675  12.055  20.023  0.00  0.00    +0.000 A 
ATOM     16  C   UNL     1      -0.094  13.080  19.401  0.00  0.00    +0.000 A 
ATOM     17  C   UNL     1       0.487  14.344  19.113  0.00  0.00    +0.000 A 
BRANCH  12  19
ATOM     18  C   UNL     1       3.158  15.763  17.901  0.00  0.00    +0.000 C 
ATOM     19  O   UNL     1       2.459  15.745  19.149  0.00  0.00    +0.000 OA
ENDBRANCH  12  19
BRANCH  16  20
ATOM     20  O   UNL     1      -1.381  12.676  19.117  0.00  0.00    +0.000 OA
ATOM     21  C   UNL     1      -1.705  12.110  17.855  0.00  0.00    +0.000 C 
ENDBRANCH  16  20
BRANCH  17  22
ATOM     22  O   UNL     1      -0.345  15.249  18.513  0.00  0.00    +0.000 OA
ATOM     23  C   UNL     1      -0.851  16.379  19.199  0.00  0.00    +0.000 C 
ENDBRANCH  17  22
ENDBRANCH   1  15
BRANCH   3  24
ATOM     24  N   UNL     1      -0.161   9.216  23.842  0.00  0.00    +0.000 N 
ATOM     25  H   UNL     1      -0.685   9.943  24.326  0.00  0.00    +0.000 HD
ATOM     26  H   UNL     1       0.629   8.859  24.368  0.00  0.00    +0.000 HD
ENDBRANCH   3  24
BRANCH   2  27
ATOM     27  C   UNL     1      -1.174  11.474  22.385  0.00  0.00    +0.000 C 
ATOM     28  N   UNL     1      -1.850  12.245  22.933  0.00  0.00    +0.000 NA
ENDBRANCH   2  27
TORSDOF 6
ENDMDL
