MODEL 1
REMARK VINA RESULT:      -6.9      0.000      0.000
REMARK  Name = 
REMARK  6 active torsions:
REMARK  status: ('A' for Active; 'I' for Inactive)
REMARK    1  A    between atoms: C_1  and  C_2
REMARK    2  A    between atoms: C_2  and  C_3
REMARK    3  A    between atoms: C_4  and  C_5
REMARK    4  A    between atoms: C_4  and  C_6
REMARK    5  A    between atoms: C_6  and  C_7
REMARK    6  A    between atoms: C_7  and  C_8
REMARK                            x       y       z     vdW  Elec       q    Type
REMARK                         _______ _______ _______ _____ _____    ______ ____
ROOT
ATOM      1  C   UNL     1       3.224   3.289  19.081  0.00  0.00    +0.000 C 
ATOM      2  C   UNL     1       3.855   2.545  20.285  0.00  0.00    +0.000 C 
ATOM      3  O   UNL     1       5.002   2.094  20.198  0.00  0.00    +0.000 OA
ATOM      4  N   UNL     1       3.170   2.563  21.434  0.00  0.00    +0.000 NA
ATOM      5  C   UNL     1       1.845   2.611  21.443  0.00  0.00    +0.000 C 
ATOM      6  O   UNL     1       1.152   2.568  22.461  0.00  0.00    +0.000 OA
ATOM      7  N   UNL     1       1.177   2.711  20.248  0.00  0.00    +0.000 N 
ATOM      8  C   UNL     1       1.729   2.980  19.029  0.00  0.00    +0.000 C 
ATOM      9  O   UNL     1       1.026   3.085  18.020  0.00  0.00    +0.000 OA
ATOM     10  H   UNL     1       0.177   2.646  20.311  0.00  0.00    +0.000 HD
ENDROOT
BRANCH   1  12
ATOM     11  C   UNL     1       2.426   5.715  19.126  0.00  0.00    +0.000 C 
ATOM     12  C   UNL     1       3.454   4.836  19.202  0.00  0.00    +0.000 C 
ATOM     13  C   UNL     1       4.870   5.295  19.436  0.00  0.00    +0.000 C 
BRANCH  11  15
ATOM     14  C   UNL     1       2.357   7.925  17.954  0.00  0.00    +0.000 C 
ATOM     15  C   UNL     1       2.470   7.204  19.287  0.00  0.00    +0.000 C 
ENDBRANCH  11  15
ENDBRANCH   1  12
BRANCH   1  16
ATOM     16  C   UNL     1       3.882   2.852  17.741  0.00  0.00    +0.000 C 
ATOM     17  C   UNL     1       4.079   3.954  16.701  0.00  0.00    +0.000 C 
ENDBRANCH   1  16
TORSDOF 3
ENDMDL
MODEL 2
REMARK VINA RESULT:      -6.8      4.425      5.727
REMARK  Name = 
REMARK  6 active torsions:
REMARK  status: ('A' for Active; 'I' for Inactive)
REMARK    1  A    between atoms: C_1  and  C_2
REMARK    2  A    between atoms: C_2  and  C_3
REMARK    3  A    between atoms: C_4  and  C_5
REMARK    4  A    between atoms: C_4  and  C_6
REMARK    5  A    between atoms: C_6  and  C_7
REMARK    6  A    between atoms: C_7  and  C_8
REMARK                            x       y       z     vdW  Elec       q    Type
REMARK                         _______ _______ _______ _____ _____    ______ ____
ROOT
ATOM      1  C   UNL     1       6.044   5.402  17.010  0.00  0.00    +0.000 C 
ATOM      2  C   UNL     1       7.174   4.451  16.541  0.00  0.00    +0.000 C 
ATOM      3  O   UNL     1       8.141   4.234  17.278  0.00  0.00    +0.000 OA
ATOM      4  N   UNL     1       6.965   3.779  15.404  0.00  0.00    +0.000 NA
ATOM      5  C   UNL     1       6.230   4.292  14.427  0.00  0.00    +0.000 C 
ATOM      6  O   UNL     1       6.049   3.756  13.333  0.00  0.00    +0.000 OA
ATOM      7  N   UNL     1       5.622   5.508  14.623  0.00  0.00    +0.000 N 
ATOM      8  C   UNL     1       5.510   6.177  15.808  0.00  0.00    +0.000 C 
ATOM      9  O   UNL     1       4.907   7.252  15.878  0.00  0.00    +0.000 OA
ATOM     10  H   UNL     1       5.161   5.890  13.818  0.00  0.00    +0.000 HD
ENDROOT
BRANCH   1  12
ATOM     11  C   UNL     1       3.819   4.148  16.985  0.00  0.00    +0.000 C 
ATOM     12  C   UNL     1       4.885   4.594  17.692  0.00  0.00    +0.000 C 
ATOM     13  C   UNL     1       5.030   4.313  19.166  0.00  0.00    +0.000 C 
BRANCH  11  15
ATOM     14  C   UNL     1       1.479   4.162  17.874  0.00  0.00    +0.000 C 
ATOM     15  C   UNL     1       2.673   3.312  17.470  0.00  0.00    +0.000 C 
ENDBRANCH  11  15
ENDBRANCH   1  12
BRANCH   1  16
ATOM     16  C   UNL     1       6.561   6.409  18.077  0.00  0.00    +0.000 C 
ATOM     17  C   UNL     1       7.605   7.417  17.597  0.00  0.00    +0.000 C 
ENDBRANCH   1  16
TORSDOF 3
ENDMDL
MODEL 3
REMARK VINA RESULT:      -6.6      3.893      4.825
REMARK  Name = 
REMARK  6 active torsions:
REMARK  status: ('A' for Active; 'I' for Inactive)
REMARK    1  A    between atoms: C_1  and  C_2
REMARK    2  A    between atoms: C_2  and  C_3
REMARK    3  A    between atoms: C_4  and  C_5
REMARK    4  A    between atoms: C_4  and  C_6
REMARK    5  A    between atoms: C_6  and  C_7
REMARK    6  A    between atoms: C_7  and  C_8
REMARK                            x       y       z     vdW  Elec       q    Type
REMARK                         _______ _______ _______ _____ _____    ______ ____
ROOT
ATOM      1  C   UNL     1       6.130   5.508  17.407  0.00  0.00    +0.000 C 
ATOM      2  C   UNL     1       5.254   4.774  18.453  0.00  0.00    +0.000 C 
ATOM      3  O   UNL     1       5.540   3.622  18.797  0.00  0.00    +0.000 OA
ATOM      4  N   UNL     1       4.303   5.494  19.058  0.00  0.00    +0.000 NA
ATOM      5  C   UNL     1       3.701   6.499  18.436  0.00  0.00    +0.000 C 
ATOM      6  O   UNL     1       2.778   7.162  18.911  0.00  0.00    +0.000 OA
ATOM      7  N   UNL     1       4.115   6.839  17.172  0.00  0.00    +0.000 N 
ATOM      8  C   UNL     1       5.238   6.391  16.537  0.00  0.00    +0.000 C 
ATOM      9  O   UNL     1       5.536   6.794  15.409  0.00  0.00    +0.000 OA
ATOM     10  H   UNL     1       3.561   7.540  16.715  0.00  0.00    +0.000 HD
ENDROOT
BRANCH   1  12
ATOM     11  C   UNL     1       7.529   7.627  17.688  0.00  0.00    +0.000 C 
ATOM     12  C   UNL     1       7.229   6.376  18.114  0.00  0.00    +0.000 C 
ATOM     13  C   UNL     1       7.913   5.764  19.309  0.00  0.00    +0.000 C 
BRANCH  11  15
ATOM     14  C   UNL     1       8.215  10.028  17.847  0.00  0.00    +0.000 C 
ATOM     15  C   UNL     1       8.495   8.602  18.290  0.00  0.00    +0.000 C 
ENDBRANCH  11  15
ENDBRANCH   1  12
BRANCH   1  16
ATOM     16  C   UNL     1       6.889   4.499  16.499  0.00  0.00    +0.000 C 
ATOM     17  C   UNL     1       6.034   3.728  15.493  0.00  0.00    +0.000 C 
ENDBRANCH   1  16
TORSDOF 3
ENDMDL
MODEL 4
REMARK VINA RESULT:      -6.6      3.834      5.275
REMARK  Name = 
REMARK  6 active torsions:
REMARK  status: ('A' for Active; 'I' for Inactive)
REMARK    1  A    between atoms: C_1  and  C_2
REMARK    2  A    between atoms: C_2  and  C_3
REMARK    3  A    between atoms: C_4  and  C_5
REMARK    4  A    between atoms: C_4  and  C_6
REMARK    5  A    between atoms: C_6  and  C_7
REMARK    6  A    between atoms: C_7  and  C_8
REMARK                            x       y       z     vdW  Elec       q    Type
REMARK                         _______ _______ _______ _____ _____    ______ ____
ROOT
ATOM      1  C   UNL     1       5.246   5.604  17.355  0.00  0.00    +0.000 C 
ATOM      2  C   UNL     1       5.840   6.648  16.376  0.00  0.00    +0.000 C 
ATOM      3  O   UNL     1       5.409   6.724  15.220  0.00  0.00    +0.000 OA
ATOM      4  N   UNL     1       6.699   7.536  16.887  0.00  0.00    +0.000 NA
ATOM      5  C   UNL     1       7.484   7.224  17.909  0.00  0.00    +0.000 C 
ATOM      6  O   UNL     1       8.339   7.971  18.388  0.00  0.00    +0.000 OA
ATOM      7  N   UNL     1       7.358   5.985  18.487  0.00  0.00    +0.000 N 
ATOM      8  C   UNL     1       6.355   5.085  18.266  0.00  0.00    +0.000 C 
ATOM      9  O   UNL     1       6.319   4.010  18.872  0.00  0.00    +0.000 OA
ATOM     10  H   UNL     1       8.041   5.770  19.190  0.00  0.00    +0.000 HD
ENDROOT
BRANCH   1  12
ATOM     11  C   UNL     1       3.428   7.342  17.797  0.00  0.00    +0.000 C 
ATOM     12  C   UNL     1       4.093   6.237  18.210  0.00  0.00    +0.000 C 
ATOM     13  C   UNL     1       3.741   5.537  19.497  0.00  0.00    +0.000 C 
BRANCH  11  15
ATOM     14  C   UNL     1       1.912   9.334  17.774  0.00  0.00    +0.000 C 
ATOM     15  C   UNL     1       2.269   8.024  18.458  0.00  0.00    +0.000 C 
ENDBRANCH  11  15
ENDBRANCH   1  12
BRANCH   1  16
ATOM     16  C   UNL     1       4.614   4.408  16.587  0.00  0.00    +0.000 C 
ATOM     17  C   UNL     1       5.559   3.619  15.681  0.00  0.00    +0.000 C 
ENDBRANCH   1  16
TORSDOF 3
ENDMDL
MODEL 5
REMARK VINA RESULT:      -6.5      2.375      4.417
REMARK  Name = 
REMARK  6 active torsions:
REMARK  status: ('A' for Active; 'I' for Inactive)
REMARK    1  A    between atoms: C_1  and  C_2
REMARK    2  A    between atoms: C_2  and  C_3
REMARK    3  A    between atoms: C_4  and  C_5
REMARK    4  A    between atoms: C_4  and  C_6
REMARK    5  A    between atoms: C_6  and  C_7
REMARK    6  A    between atoms: C_7  and  C_8
REMARK                            x       y       z     vdW  Elec       q    Type
REMARK                         _______ _______ _______ _____ _____    ______ ____
ROOT
ATOM      1  C   UNL     1       4.497   4.642  17.691  0.00  0.00    +0.000 C 
ATOM      2  C   UNL     1       3.463   3.490  17.640  0.00  0.00    +0.000 C 
ATOM      3  O   UNL     1       2.456   3.596  16.932  0.00  0.00    +0.000 OA
ATOM      4  N   UNL     1       3.795   2.351  18.258  0.00  0.00    +0.000 NA
ATOM      5  C   UNL     1       4.571   2.353  19.333  0.00  0.00    +0.000 C 
ATOM      6  O   UNL     1       4.865   1.350  19.984  0.00  0.00    +0.000 OA
ATOM      7  N   UNL     1       5.092   3.545  19.772  0.00  0.00    +0.000 N 
ATOM      8  C   UNL     1       5.075   4.735  19.102  0.00  0.00    +0.000 C 
ATOM      9  O   UNL     1       5.609   5.741  19.577  0.00  0.00    +0.000 OA
ATOM     10  H   UNL     1       5.590   3.499  20.642  0.00  0.00    +0.000 HD
ENDROOT
BRANCH   1  12
ATOM     11  C   UNL     1       5.381   4.170  15.342  0.00  0.00    +0.000 C 
ATOM     12  C   UNL     1       5.646   4.405  16.649  0.00  0.00    +0.000 C 
ATOM     13  C   UNL     1       7.059   4.481  17.168  0.00  0.00    +0.000 C 
BRANCH  11  15
ATOM     14  C   UNL     1       5.667   3.599  12.922  0.00  0.00    +0.000 C 
ATOM     15  C   UNL     1       6.357   3.992  14.218  0.00  0.00    +0.000 C 
ENDBRANCH  11  15
ENDBRANCH   1  12
BRANCH   1  16
ATOM     16  C   UNL     1       3.844   6.004  17.318  0.00  0.00    +0.000 C 
ATOM     17  C   UNL     1       2.738   6.495  18.252  0.00  0.00    +0.000 C 
ENDBRANCH   1  16
TORSDOF 3
ENDMDL
MODEL 6
REMARK VINA RESULT:      -6.5      2.308      4.346
REMARK  Name = 
REMARK  6 active torsions:
REMARK  status: ('A' for Active; 'I' for Inactive)
REMARK    1  A    between atoms: C_1  and  C_2
REMARK    2  A    between atoms: C_2  and  C_3
REMARK    3  A    between atoms: C_4  and  C_5
REMARK    4  A    between atoms: C_4  and  C_6
REMARK    5  A    between atoms: C_6  and  C_7
REMARK    6  A    between atoms: C_7  and  C_8
REMARK                            x       y       z     vdW  Elec       q    Type
REMARK                         _______ _______ _______ _____ _____    ______ ____
ROOT
ATOM      1  C   UNL     1       3.781   4.881  17.922  0.00  0.00    +0.000 C 
ATOM      2  C   UNL     1       2.595   3.943  17.583  0.00  0.00    +0.000 C 
ATOM      3  O   UNL     1       1.524   4.419  17.194  0.00  0.00    +0.000 OA
ATOM      4  N   UNL     1       2.846   2.629  17.580  0.00  0.00    +0.000 NA
ATOM      5  C   UNL     1       3.759   2.101  18.384  0.00  0.00    +0.000 C 
ATOM      6  O   UNL     1       3.997   0.896  18.476  0.00  0.00    +0.000 OA
ATOM      7  N   UNL     1       4.502   2.936  19.181  0.00  0.00    +0.000 N 
ATOM      8  C   UNL     1       4.561   4.298  19.098  0.00  0.00    +0.000 C 
ATOM      9  O   UNL     1       5.295   4.951  19.845  0.00  0.00    +0.000 OA
ATOM     10  H   UNL     1       5.108   2.476  19.835  0.00  0.00    +0.000 HD
ENDROOT
BRANCH   1  12
ATOM     11  C   UNL     1       5.301   3.994  16.071  0.00  0.00    +0.000 C 
ATOM     12  C   UNL     1       4.723   5.057  16.680  0.00  0.00    +0.000 C 
ATOM     13  C   UNL     1       4.930   6.463  16.179  0.00  0.00    +0.000 C 
BRANCH  11  15
ATOM     14  C   UNL     1       5.344   3.852  13.573  0.00  0.00    +0.000 C 
ATOM     15  C   UNL     1       6.164   3.987  14.846  0.00  0.00    +0.000 C 
ENDBRANCH  11  15
ENDBRANCH   1  12
BRANCH   1  16
ATOM     16  C   UNL     1       3.282   6.306  18.297  0.00  0.00    +0.000 C 
ATOM     17  C   UNL     1       2.486   6.417  19.597  0.00  0.00    +0.000 C 
ENDBRANCH   1  16
TORSDOF 3
ENDMDL
MODEL 7
REMARK VINA RESULT:      -6.5      4.205      5.714
REMARK  Name = 
REMARK  6 active torsions:
REMARK  status: ('A' for Active; 'I' for Inactive)
REMARK    1  A    between atoms: C_1  and  C_2
REMARK    2  A    between atoms: C_2  and  C_3
REMARK    3  A    between atoms: C_4  and  C_5
REMARK    4  A    between atoms: C_4  and  C_6
REMARK    5  A    between atoms: C_6  and  C_7
REMARK    6  A    between atoms: C_7  and  C_8
REMARK                            x       y       z     vdW  Elec       q    Type
REMARK                         _______ _______ _______ _____ _____    ______ ____
ROOT
ATOM      1  C   UNL     1       5.861   5.260  16.868  0.00  0.00    +0.000 C 
ATOM      2  C   UNL     1       5.824   6.625  16.136  0.00  0.00    +0.000 C 
ATOM      3  O   UNL     1       5.160   6.753  15.102  0.00  0.00    +0.000 OA
ATOM      4  N   UNL     1       6.401   7.660  16.757  0.00  0.00    +0.000 NA
ATOM      5  C   UNL     1       7.444   7.487  17.558  0.00  0.00    +0.000 C 
ATOM      6  O   UNL     1       8.059   8.400  18.111  0.00  0.00    +0.000 OA
ATOM      7  N   UNL     1       7.890   6.212  17.800  0.00  0.00    +0.000 N 
ATOM      8  C   UNL     1       7.249   5.052  17.470  0.00  0.00    +0.000 C 
ATOM      9  O   UNL     1       7.725   3.953  17.770  0.00  0.00    +0.000 OA
ATOM     10  H   UNL     1       8.737   6.149  18.333  0.00  0.00    +0.000 HD
ENDROOT
BRANCH   1  12
ATOM     11  C   UNL     1       3.448   5.304  17.705  0.00  0.00    +0.000 C 
ATOM     12  C   UNL     1       4.768   5.203  17.992  0.00  0.00    +0.000 C 
ATOM     13  C   UNL     1       5.256   5.000  19.404  0.00  0.00    +0.000 C 
BRANCH  11  15
ATOM     14  C   UNL     1       1.536   3.891  18.484  0.00  0.00    +0.000 C 
ATOM     15  C   UNL     1       2.287   5.202  18.646  0.00  0.00    +0.000 C 
ENDBRANCH  11  15
ENDBRANCH   1  12
BRANCH   1  16
ATOM     16  C   UNL     1       5.547   4.089  15.894  0.00  0.00    +0.000 C 
ATOM     17  C   UNL     1       6.408   4.017  14.633  0.00  0.00    +0.000 C 
ENDBRANCH   1  16
TORSDOF 3
ENDMDL
MODEL 8
REMARK VINA RESULT:      -6.4      2.122      3.838
REMARK  Name = 
REMARK  6 active torsions:
REMARK  status: ('A' for Active; 'I' for Inactive)
REMARK    1  A    between atoms: C_1  and  C_2
REMARK    2  A    between atoms: C_2  and  C_3
REMARK    3  A    between atoms: C_4  and  C_5
REMARK    4  A    between atoms: C_4  and  C_6
REMARK    5  A    between atoms: C_6  and  C_7
REMARK    6  A    between atoms: C_7  and  C_8
REMARK                            x       y       z     vdW  Elec       q    Type
REMARK                         _______ _______ _______ _____ _____    ______ ____
ROOT
ATOM      1  C   UNL     1       3.149   3.398  18.932  0.00  0.00    +0.000 C 
ATOM      2  C   UNL     1       3.203   3.607  17.398  0.00  0.00    +0.000 C 
ATOM      3  O   UNL     1       2.226   3.314  16.701  0.00  0.00    +0.000 OA
ATOM      4  N   UNL     1       4.269   4.253  16.913  0.00  0.00    +0.000 NA
ATOM      5  C   UNL     1       5.453   4.166  17.504  0.00  0.00    +0.000 C 
ATOM      6  O   UNL     1       6.487   4.683  17.077  0.00  0.00    +0.000 OA
ATOM      7  N   UNL     1       5.561   3.451  18.671  0.00  0.00    +0.000 N 
ATOM      8  C   UNL     1       4.529   2.975  19.429  0.00  0.00    +0.000 C 
ATOM      9  O   UNL     1       4.740   2.374  20.487  0.00  0.00    +0.000 OA
ATOM     10  H   UNL     1       6.495   3.339  19.020  0.00  0.00    +0.000 HD
ENDROOT
BRANCH   1  12
ATOM     11  C   UNL     1       2.653   5.902  19.011  0.00  0.00    +0.000 C 
ATOM     12  C   UNL     1       2.691   4.712  19.656  0.00  0.00    +0.000 C 
ATOM     13  C   UNL     1       2.265   4.581  21.096  0.00  0.00    +0.000 C 
BRANCH  11  15
ATOM     14  C   UNL     1       2.131   8.284  18.448  0.00  0.00    +0.000 C 
ATOM     15  C   UNL     1       2.180   7.224  19.536  0.00  0.00    +0.000 C 
ENDBRANCH  11  15
ENDBRANCH   1  12
BRANCH   1  16
ATOM     16  C   UNL     1       2.112   2.304  19.316  0.00  0.00    +0.000 C 
ATOM     17  C   UNL     1       0.648   2.636  19.025  0.00  0.00    +0.000 C 
ENDBRANCH   1  16
TORSDOF 3
ENDMDL
MODEL 9
REMARK VINA RESULT:      -6.4      3.820      5.346
REMARK  Name = 
REMARK  6 active torsions:
REMARK  status: ('A' for Active; 'I' for Inactive)
REMARK    1  A    between atoms: C_1  and  C_2
REMARK    2  A    between atoms: C_2  and  C_3
REMARK    3  A    between atoms: C_4  and  C_5
REMARK    4  A    between atoms: C_4  and  C_6
REMARK    5  A    between atoms: C_6  and  C_7
REMARK    6  A    between atoms: C_7  and  C_8
REMARK                            x       y       z     vdW  Elec       q    Type
REMARK                         _______ _______ _______ _____ _____    ______ ____
ROOT
ATOM      1  C   UNL     1       5.243   5.525  17.303  0.00  0.00    +0.000 C 
ATOM      2  C   UNL     1       5.871   6.569  16.346  0.00  0.00    +0.000 C 
ATOM      3  O   UNL     1       5.485   6.642  15.174  0.00  0.00    +0.000 OA
ATOM      4  N   UNL     1       6.706   7.462  16.889  0.00  0.00    +0.000 NA
ATOM      5  C   UNL     1       7.453   7.154  17.940  0.00  0.00    +0.000 C 
ATOM      6  O   UNL     1       8.285   7.905  18.451  0.00  0.00    +0.000 OA
ATOM      7  N   UNL     1       7.308   5.916  18.516  0.00  0.00    +0.000 N 
ATOM      8  C   UNL     1       6.318   5.011  18.258  0.00  0.00    +0.000 C 
ATOM      9  O   UNL     1       6.263   3.937  18.864  0.00  0.00    +0.000 OA
ATOM     10  H   UNL     1       7.964   5.704  19.245  0.00  0.00    +0.000 HD
ENDROOT
BRANCH   1  12
ATOM     11  C   UNL     1       3.555   5.558  19.219  0.00  0.00    +0.000 C 
ATOM     12  C   UNL     1       4.056   6.155  18.112  0.00  0.00    +0.000 C 
ATOM     13  C   UNL     1       3.520   7.473  17.614  0.00  0.00    +0.000 C 
BRANCH  11  15
ATOM     14  C   UNL     1       1.515   4.955  20.539  0.00  0.00    +0.000 C 
ATOM     15  C   UNL     1       2.478   6.059  20.133  0.00  0.00    +0.000 C 
ENDBRANCH  11  15
ENDBRANCH   1  12
BRANCH   1  16
ATOM     16  C   UNL     1       4.646   4.325  16.514  0.00  0.00    +0.000 C 
ATOM     17  C   UNL     1       5.619   3.564  15.614  0.00  0.00    +0.000 C 
ENDBRANCH   1  16
TORSDOF 3
ENDMDL
