MODEL 1
REMARK VINA RESULT:      -8.1      0.000      0.000
REMARK  Name = 
REMARK  7 active torsions:
REMARK  status: ('A' for Active; 'I' for Inactive)
REMARK    1  A    between atoms: C_1  and  C_2
REMARK    2  A    between atoms: C_2  and  O_3
REMARK    3  A    between atoms: O_3  and  C_4
REMARK    4  A    between atoms: C_4  and  C_6
REMARK    5  A    between atoms: N_9  and  C_10
REMARK    6  A    between atoms: C_15  and  C_16
REMARK    7  A    between atoms: C_22  and  C_23
REMARK                            x       y       z     vdW  Elec       q    Type
REMARK                         _______ _______ _______ _____ _____    ______ ____
ROOT
ATOM      1  C   UNL     1       3.624   5.912  17.701  0.00  0.00    +0.000 A 
ATOM      2  S   UNL     1       3.914   7.488  17.050  0.00  0.00    +0.000 S 
ATOM      3  C   UNL     1       2.729   8.150  18.087  0.00  0.00    +0.000 A 
ATOM      4  N   UNL     1       2.441   9.470  18.046  0.00  0.00    +0.000 N 
ATOM      5  N   UNL     1       2.173   7.281  18.898  0.00  0.00    +0.000 NA
ATOM      6  C   UNL     1       2.677   6.002  18.706  0.00  0.00    +0.000 A 
ATOM      7  H   UNL     1       3.054  10.087  17.527  0.00  0.00    +0.000 HD
ENDROOT
BRANCH   4   8
ATOM      8  C   UNL     1       1.215  10.034  18.431  0.00  0.00    +0.000 A 
ATOM      9  C   UNL     1       1.133  10.778  19.609  0.00  0.00    +0.000 A 
ATOM     10  C   UNL     1      -0.099  11.269  20.051  0.00  0.00    +0.000 A 
ATOM     11  C   UNL     1      -1.271  11.033  19.321  0.00  0.00    +0.000 A 
ATOM     12 CL   UNL     1      -2.729  11.685  19.970  0.00  0.00    +0.000 Cl
ATOM     13  C   UNL     1      -1.222  10.298  18.137  0.00  0.00    +0.000 A 
ATOM     14  C   UNL     1       0.029   9.804  17.718  0.00  0.00    +0.000 A 
BRANCH  13  15
ATOM     15  C   UNL     1      -2.399   9.993  17.248  0.00  0.00    +0.000 C 
ATOM     16  F   UNL     1      -3.370   9.206  17.777  0.00  0.00    +0.000 F 
ATOM     17  F   UNL     1      -3.034  11.134  16.849  0.00  0.00    +0.000 F 
ATOM     18  F   UNL     1      -2.020   9.371  16.093  0.00  0.00    +0.000 F 
ENDBRANCH  13  15
ENDBRANCH   4   8
BRANCH   6  19
ATOM     19  C   UNL     1       2.175   4.922  19.555  0.00  0.00    +0.000 A 
ATOM     20  C   UNL     1       2.581   4.748  20.882  0.00  0.00    +0.000 A 
ATOM     21  C   UNL     1       2.087   3.684  21.645  0.00  0.00    +0.000 A 
ATOM     22  C   UNL     1       1.199   2.770  21.084  0.00  0.00    +0.000 A 
ATOM     23  C   UNL     1       0.806   2.912  19.757  0.00  0.00    +0.000 A 
ATOM     24  C   UNL     1       1.288   3.981  19.001  0.00  0.00    +0.000 A 
ENDBRANCH   6  19
BRANCH   1  25
ATOM     25  C   UNL     1       4.424   4.806  17.245  0.00  0.00    +0.000 C 
ATOM     26  O   UNL     1       4.001   3.750  16.791  0.00  0.00    +0.000 OA
BRANCH  25  27
ATOM     27  O   UNL     1       5.748   5.078  17.437  0.00  0.00    +0.000 OA
BRANCH  27  29
ATOM     28  C   UNL     1       7.483   5.826  18.893  0.00  0.00    +0.000 C 
ATOM     29  C   UNL     1       6.198   5.023  18.795  0.00  0.00    +0.000 C 
ENDBRANCH  27  29
ENDBRANCH  25  27
ENDBRANCH   1  25
TORSDOF 6
ENDMDL
MODEL 2
REMARK VINA RESULT:      -8.0      0.373      1.217
REMARK  Name = 
REMARK  7 active torsions:
REMARK  status: ('A' for Active; 'I' for Inactive)
REMARK    1  A    between atoms: C_1  and  C_2
REMARK    2  A    between atoms: C_2  and  O_3
REMARK    3  A    between atoms: O_3  and  C_4
REMARK    4  A    between atoms: C_4  and  C_6
REMARK    5  A    between atoms: N_9  and  C_10
REMARK    6  A    between atoms: C_15  and  C_16
REMARK    7  A    between atoms: C_22  and  C_23
REMARK                            x       y       z     vdW  Elec       q    Type
REMARK                         _______ _______ _______ _____ _____    ______ ____
ROOT
ATOM      1  C   UNL     1       3.714   5.840  17.682  0.00  0.00    +0.000 A 
ATOM      2  S   UNL     1       4.031   7.428  17.075  0.00  0.00    +0.000 S 
ATOM      3  C   UNL     1       2.818   8.073  18.092  0.00  0.00    +0.000 A 
ATOM      4  N   UNL     1       2.539   9.395  18.071  0.00  0.00    +0.000 N 
ATOM      5  N   UNL     1       2.234   7.189  18.865  0.00  0.00    +0.000 NA
ATOM      6  C   UNL     1       2.737   5.912  18.659  0.00  0.00    +0.000 A 
ATOM      7  H   UNL     1       3.170  10.021  17.586  0.00  0.00    +0.000 HD
ENDROOT
BRANCH   4   8
ATOM      8  C   UNL     1       1.305   9.958  18.432  0.00  0.00    +0.000 A 
ATOM      9  C   UNL     1       1.190  10.674  19.624  0.00  0.00    +0.000 A 
ATOM     10  C   UNL     1      -0.051  11.162  20.040  0.00  0.00    +0.000 A 
ATOM     11  C   UNL     1      -1.202  10.951  19.270  0.00  0.00    +0.000 A 
ATOM     12 CL   UNL     1      -2.676  11.596  19.890  0.00  0.00    +0.000 Cl
ATOM     13  C   UNL     1      -1.121  10.243  18.071  0.00  0.00    +0.000 A 
ATOM     14  C   UNL     1       0.140   9.751  17.679  0.00  0.00    +0.000 A 
BRANCH  13  15
ATOM     15  C   UNL     1      -2.272   9.965  17.140  0.00  0.00    +0.000 C 
ATOM     16  F   UNL     1      -2.937  11.045  16.658  0.00  0.00    +0.000 F 
ATOM     17  F   UNL     1      -1.866   9.267  16.039  0.00  0.00    +0.000 F 
ATOM     18  F   UNL     1      -3.227   9.185  17.726  0.00  0.00    +0.000 F 
ENDBRANCH  13  15
ENDBRANCH   4   8
BRANCH   6  19
ATOM     19  C   UNL     1       2.205   4.815  19.468  0.00  0.00    +0.000 A 
ATOM     20  C   UNL     1       1.294   3.878  18.970  0.00  0.00    +0.000 A 
ATOM     21  C   UNL     1       0.797   2.860  19.791  0.00  0.00    +0.000 A 
ATOM     22  C   UNL     1       1.189   2.780  21.125  0.00  0.00    +0.000 A 
ATOM     23  C   UNL     1       2.074   3.720  21.644  0.00  0.00    +0.000 A 
ATOM     24  C   UNL     1       2.579   4.727  20.821  0.00  0.00    +0.000 A 
ENDBRANCH   6  19
BRANCH   1  25
ATOM     25  C   UNL     1       4.521   4.739  17.224  0.00  0.00    +0.000 C 
ATOM     26  O   UNL     1       4.307   4.052  16.234  0.00  0.00    +0.000 OA
BRANCH  25  27
ATOM     27  O   UNL     1       5.554   4.527  18.092  0.00  0.00    +0.000 OA
BRANCH  27  29
ATOM     28  C   UNL     1       7.560   5.764  18.455  0.00  0.00    +0.000 C 
ATOM     29  C   UNL     1       6.863   4.756  17.560  0.00  0.00    +0.000 C 
ENDBRANCH  27  29
ENDBRANCH  25  27
ENDBRANCH   1  25
TORSDOF 6
ENDMDL
MODEL 3
REMARK VINA RESULT:      -8.0      0.918      1.196
REMARK  Name = 
REMARK  7 active torsions:
REMARK  status: ('A' for Active; 'I' for Inactive)
REMARK    1  A    between atoms: C_1  and  C_2
REMARK    2  A    between atoms: C_2  and  O_3
REMARK    3  A    between atoms: O_3  and  C_4
REMARK    4  A    between atoms: C_4  and  C_6
REMARK    5  A    between atoms: N_9  and  C_10
REMARK    6  A    between atoms: C_15  and  C_16
REMARK    7  A    between atoms: C_22  and  C_23
REMARK                            x       y       z     vdW  Elec       q    Type
REMARK                         _______ _______ _______ _____ _____    ______ ____
ROOT
ATOM      1  C   UNL     1       3.622   5.864  17.707  0.00  0.00    +0.000 A 
ATOM      2  S   UNL     1       3.926   7.437  17.056  0.00  0.00    +0.000 S 
ATOM      3  C   UNL     1       2.754   8.111  18.101  0.00  0.00    +0.000 A 
ATOM      4  N   UNL     1       2.482   9.435  18.063  0.00  0.00    +0.000 N 
ATOM      5  N   UNL     1       2.193   7.248  18.913  0.00  0.00    +0.000 NA
ATOM      6  C   UNL     1       2.681   5.964  18.717  0.00  0.00    +0.000 A 
ATOM      7  H   UNL     1       3.099  10.046  17.542  0.00  0.00    +0.000 HD
ENDROOT
BRANCH   4   8
ATOM      8  C   UNL     1       1.265  10.013  18.455  0.00  0.00    +0.000 A 
ATOM      9  C   UNL     1       1.202  10.773  19.623  0.00  0.00    +0.000 A 
ATOM     10  C   UNL     1      -0.021  11.279  20.074  0.00  0.00    +0.000 A 
ATOM     11  C   UNL     1      -1.204  11.041  19.362  0.00  0.00    +0.000 A 
ATOM     12 CL   UNL     1      -2.649  11.712  20.020  0.00  0.00    +0.000 Cl
ATOM     13  C   UNL     1      -1.174  10.289  18.188  0.00  0.00    +0.000 A 
ATOM     14  C   UNL     1       0.068   9.780  17.760  0.00  0.00    +0.000 A 
BRANCH  13  15
ATOM     15  C   UNL     1      -2.364   9.979  17.318  0.00  0.00    +0.000 C 
ATOM     16  F   UNL     1      -3.306   9.160  17.849  0.00  0.00    +0.000 F 
ATOM     17  F   UNL     1      -3.031  11.116  16.960  0.00  0.00    +0.000 F 
ATOM     18  F   UNL     1      -1.998   9.393  16.140  0.00  0.00    +0.000 F 
ENDBRANCH  13  15
ENDBRANCH   4   8
BRANCH   6  19
ATOM     19  C   UNL     1       2.171   4.887  19.566  0.00  0.00    +0.000 A 
ATOM     20  C   UNL     1       2.572   4.715  20.896  0.00  0.00    +0.000 A 
ATOM     21  C   UNL     1       2.070   3.655  21.659  0.00  0.00    +0.000 A 
ATOM     22  C   UNL     1       1.179   2.744  21.098  0.00  0.00    +0.000 A 
ATOM     23  C   UNL     1       0.791   2.886  19.769  0.00  0.00    +0.000 A 
ATOM     24  C   UNL     1       1.280   3.951  19.012  0.00  0.00    +0.000 A 
ENDBRANCH   6  19
BRANCH   1  25
ATOM     25  C   UNL     1       4.406   4.749  17.244  0.00  0.00    +0.000 C 
ATOM     26  O   UNL     1       4.683   3.746  17.890  0.00  0.00    +0.000 OA
BRANCH  25  27
ATOM     27  O   UNL     1       4.854   4.989  15.977  0.00  0.00    +0.000 OA
BRANCH  27  29
ATOM     28  C   UNL     1       6.245   3.926  14.357  0.00  0.00    +0.000 C 
ATOM     29  C   UNL     1       6.207   4.600  15.717  0.00  0.00    +0.000 C 
ENDBRANCH  27  29
ENDBRANCH  25  27
ENDBRANCH   1  25
TORSDOF 6
ENDMDL
MODEL 4
REMARK VINA RESULT:      -7.9      0.942      1.672
REMARK  Name = 
REMARK  7 active torsions:
REMARK  status: ('A' for Active; 'I' for Inactive)
REMARK    1  A    between atoms: C_1  and  C_2
REMARK    2  A    between atoms: C_2  and  O_3
REMARK    3  A    between atoms: O_3  and  C_4
REMARK    4  A    between atoms: C_4  and  C_6
REMARK    5  A    between atoms: N_9  and  C_10
REMARK    6  A    between atoms: C_15  and  C_16
REMARK    7  A    between atoms: C_22  and  C_23
REMARK                            x       y       z     vdW  Elec       q    Type
REMARK                         _______ _______ _______ _____ _____    ______ ____
ROOT
ATOM      1  C   UNL     1       3.666   5.771  17.626  0.00  0.00    +0.000 A 
ATOM      2  S   UNL     1       3.987   7.350  16.998  0.00  0.00    +0.000 S 
ATOM      3  C   UNL     1       2.805   8.017  18.036  0.00  0.00    +0.000 A 
ATOM      4  N   UNL     1       2.541   9.343  18.010  0.00  0.00    +0.000 N 
ATOM      5  N   UNL     1       2.229   7.147  18.830  0.00  0.00    +0.000 NA
ATOM      6  C   UNL     1       2.712   5.863  18.624  0.00  0.00    +0.000 A 
ATOM      7  H   UNL     1       3.168   9.957  17.506  0.00  0.00    +0.000 HD
ENDROOT
BRANCH   4   8
ATOM      8  C   UNL     1       1.321   9.923  18.394  0.00  0.00    +0.000 A 
ATOM      9  C   UNL     1       1.238  10.638  19.589  0.00  0.00    +0.000 A 
ATOM     10  C   UNL     1       0.011  11.143  20.027  0.00  0.00    +0.000 A 
ATOM     11  C   UNL     1      -1.156  10.951  19.276  0.00  0.00    +0.000 A 
ATOM     12 CL   UNL     1      -2.609  11.616  19.922  0.00  0.00    +0.000 Cl
ATOM     13  C   UNL     1      -1.106  10.245  18.075  0.00  0.00    +0.000 A 
ATOM     14  C   UNL     1       0.141   9.735  17.660  0.00  0.00    +0.000 A 
BRANCH  13  15
ATOM     15  C   UNL     1      -2.276   9.986  17.163  0.00  0.00    +0.000 C 
ATOM     16  F   UNL     1      -2.008   9.339  16.000  0.00  0.00    +0.000 F 
ATOM     17  F   UNL     1      -3.236   9.237  17.782  0.00  0.00    +0.000 F 
ATOM     18  F   UNL     1      -2.905  11.141  16.797  0.00  0.00    +0.000 F 
ENDBRANCH  13  15
ENDBRANCH   4   8
BRANCH   6  19
ATOM     19  C   UNL     1       2.185   4.779  19.454  0.00  0.00    +0.000 A 
ATOM     20  C   UNL     1       1.260   3.842  18.981  0.00  0.00    +0.000 A 
ATOM     21  C   UNL     1       0.770   2.837  19.822  0.00  0.00    +0.000 A 
ATOM     22  C   UNL     1       1.182   2.770  21.150  0.00  0.00    +0.000 A 
ATOM     23  C   UNL     1       2.081   3.710  21.644  0.00  0.00    +0.000 A 
ATOM     24  C   UNL     1       2.581   4.704  20.801  0.00  0.00    +0.000 A 
ENDBRANCH   6  19
BRANCH   1  25
ATOM     25  C   UNL     1       4.450   4.657  17.160  0.00  0.00    +0.000 C 
ATOM     26  O   UNL     1       4.651   3.614  17.768  0.00  0.00    +0.000 OA
BRANCH  25  27
ATOM     27  O   UNL     1       4.995   4.948  15.942  0.00  0.00    +0.000 OA
BRANCH  27  29
ATOM     28  C   UNL     1       6.618   4.591  14.232  0.00  0.00    +0.000 C 
ATOM     29  C   UNL     1       5.918   3.980  15.432  0.00  0.00    +0.000 C 
ENDBRANCH  27  29
ENDBRANCH  25  27
ENDBRANCH   1  25
TORSDOF 6
ENDMDL
MODEL 5
REMARK VINA RESULT:      -7.7      1.823      2.486
REMARK  Name = 
REMARK  7 active torsions:
REMARK  status: ('A' for Active; 'I' for Inactive)
REMARK    1  A    between atoms: C_1  and  C_2
REMARK    2  A    between atoms: C_2  and  O_3
REMARK    3  A    between atoms: O_3  and  C_4
REMARK    4  A    between atoms: C_4  and  C_6
REMARK    5  A    between atoms: N_9  and  C_10
REMARK    6  A    between atoms: C_15  and  C_16
REMARK    7  A    between atoms: C_22  and  C_23
REMARK                            x       y       z     vdW  Elec       q    Type
REMARK                         _______ _______ _______ _____ _____    ______ ____
ROOT
ATOM      1  C   UNL     1       3.844   5.767  17.743  0.00  0.00    +0.000 A 
ATOM      2  S   UNL     1       4.113   7.374  17.162  0.00  0.00    +0.000 S 
ATOM      3  C   UNL     1       2.796   7.944  18.088  0.00  0.00    +0.000 A 
ATOM      4  N   UNL     1       2.444   9.249  18.049  0.00  0.00    +0.000 N 
ATOM      5  N   UNL     1       2.208   7.025  18.817  0.00  0.00    +0.000 NA
ATOM      6  C   UNL     1       2.797   5.780  18.647  0.00  0.00    +0.000 A 
ATOM      7  H   UNL     1       3.072   9.911  17.611  0.00  0.00    +0.000 HD
ENDROOT
BRANCH   4   8
ATOM      8  C   UNL     1       1.156   9.739  18.320  0.00  0.00    +0.000 A 
ATOM      9  C   UNL     1       0.105   9.446  17.450  0.00  0.00    +0.000 A 
ATOM     10  C   UNL     1      -1.160  10.002  17.658  0.00  0.00    +0.000 A 
ATOM     11  C   UNL     1      -1.403  10.853  18.743  0.00  0.00    +0.000 A 
ATOM     12 CL   UNL     1      -3.002  11.480  18.892  0.00  0.00    +0.000 Cl
ATOM     13  C   UNL     1      -0.375  11.161  19.634  0.00  0.00    +0.000 A 
ATOM     14  C   UNL     1       0.895  10.599  19.396  0.00  0.00    +0.000 A 
BRANCH  13  15
ATOM     15  C   UNL     1      -0.505  12.041  20.849  0.00  0.00    +0.000 C 
ATOM     16  F   UNL     1       0.623  12.239  21.578  0.00  0.00    +0.000 F 
ATOM     17  F   UNL     1      -0.947  13.290  20.517  0.00  0.00    +0.000 F 
ATOM     18  F   UNL     1      -1.426  11.559  21.734  0.00  0.00    +0.000 F 
ENDBRANCH  13  15
ENDBRANCH   4   8
BRANCH   6  19
ATOM     19  C   UNL     1       2.270   4.651  19.414  0.00  0.00    +0.000 A 
ATOM     20  C   UNL     1       1.455   3.663  18.850  0.00  0.00    +0.000 A 
ATOM     21  C   UNL     1       0.959   2.615  19.632  0.00  0.00    +0.000 A 
ATOM     22  C   UNL     1       1.254   2.553  20.992  0.00  0.00    +0.000 A 
ATOM     23  C   UNL     1       2.041   3.541  21.575  0.00  0.00    +0.000 A 
ATOM     24  C   UNL     1       2.547   4.579  20.791  0.00  0.00    +0.000 A 
ENDBRANCH   6  19
BRANCH   1  25
ATOM     25  C   UNL     1       4.744   4.717  17.345  0.00  0.00    +0.000 C 
ATOM     26  O   UNL     1       4.642   4.024  16.340  0.00  0.00    +0.000 OA
BRANCH  25  27
ATOM     27  O   UNL     1       5.720   4.558  18.286  0.00  0.00    +0.000 OA
BRANCH  27  29
ATOM     28  C   UNL     1       7.671   5.884  18.635  0.00  0.00    +0.000 C 
ATOM     29  C   UNL     1       7.060   4.756  17.824  0.00  0.00    +0.000 C 
ENDBRANCH  27  29
ENDBRANCH  25  27
ENDBRANCH   1  25
TORSDOF 6
ENDMDL
MODEL 6
REMARK VINA RESULT:      -7.6      1.889      2.390
REMARK  Name = 
REMARK  7 active torsions:
REMARK  status: ('A' for Active; 'I' for Inactive)
REMARK    1  A    between atoms: C_1  and  C_2
REMARK    2  A    between atoms: C_2  and  O_3
REMARK    3  A    between atoms: O_3  and  C_4
REMARK    4  A    between atoms: C_4  and  C_6
REMARK    5  A    between atoms: N_9  and  C_10
REMARK    6  A    between atoms: C_15  and  C_16
REMARK    7  A    between atoms: C_22  and  C_23
REMARK                            x       y       z     vdW  Elec       q    Type
REMARK                         _______ _______ _______ _____ _____    ______ ____
ROOT
ATOM      1  C   UNL     1       3.781   5.772  17.766  0.00  0.00    +0.000 A 
ATOM      2  S   UNL     1       4.074   7.347  17.114  0.00  0.00    +0.000 S 
ATOM      3  C   UNL     1       2.815   7.992  18.072  0.00  0.00    +0.000 A 
ATOM      4  N   UNL     1       2.501   9.305  17.997  0.00  0.00    +0.000 N 
ATOM      5  N   UNL     1       2.231   7.120  18.858  0.00  0.00    +0.000 NA
ATOM      6  C   UNL     1       2.773   5.851  18.711  0.00  0.00    +0.000 A 
ATOM      7  H   UNL     1       3.130   9.931  17.510  0.00  0.00    +0.000 HD
ENDROOT
BRANCH   4   8
ATOM      8  C   UNL     1       1.242   9.845  18.302  0.00  0.00    +0.000 A 
ATOM      9  C   UNL     1       0.129   9.486  17.541  0.00  0.00    +0.000 A 
ATOM     10  C   UNL     1      -1.112  10.084  17.775  0.00  0.00    +0.000 A 
ATOM     11  C   UNL     1      -1.268  11.048  18.780  0.00  0.00    +0.000 A 
ATOM     12 CL   UNL     1      -2.845  11.717  18.970  0.00  0.00    +0.000 Cl
ATOM     13  C   UNL     1      -0.177  11.425  19.562  0.00  0.00    +0.000 A 
ATOM     14  C   UNL     1       1.067  10.817  19.299  0.00  0.00    +0.000 A 
BRANCH  13  15
ATOM     15  C   UNL     1      -0.212  12.428  20.685  0.00  0.00    +0.000 C 
ATOM     16  F   UNL     1      -0.613  13.684  20.364  0.00  0.00    +0.000 F 
ATOM     17  F   UNL     1      -1.045  12.026  21.689  0.00  0.00    +0.000 F 
ATOM     18  F   UNL     1       1.011  12.580  21.274  0.00  0.00    +0.000 F 
ENDBRANCH  13  15
ENDBRANCH   4   8
BRANCH   6  19
ATOM     19  C   UNL     1       2.246   4.768  19.541  0.00  0.00    +0.000 A 
ATOM     20  C   UNL     1       2.567   4.623  20.895  0.00  0.00    +0.000 A 
ATOM     21  C   UNL     1       2.053   3.555  21.640  0.00  0.00    +0.000 A 
ATOM     22  C   UNL     1       1.229   2.610  21.035  0.00  0.00    +0.000 A 
ATOM     23  C   UNL     1       0.920   2.725  19.683  0.00  0.00    +0.000 A 
ATOM     24  C   UNL     1       1.422   3.797  18.944  0.00  0.00    +0.000 A 
ENDBRANCH   6  19
BRANCH   1  25
ATOM     25  C   UNL     1       4.630   4.679  17.371  0.00  0.00    +0.000 C 
ATOM     26  O   UNL     1       4.472   3.962  16.392  0.00  0.00    +0.000 OA
BRANCH  25  27
ATOM     27  O   UNL     1       5.632   4.514  18.284  0.00  0.00    +0.000 OA
BRANCH  27  29
ATOM     28  C   UNL     1       7.602   5.792  18.697  0.00  0.00    +0.000 C 
ATOM     29  C   UNL     1       6.956   4.754  17.798  0.00  0.00    +0.000 C 
ENDBRANCH  27  29
ENDBRANCH  25  27
ENDBRANCH   1  25
TORSDOF 6
ENDMDL
MODEL 7
REMARK VINA RESULT:      -7.6      1.999      2.615
REMARK  Name = 
REMARK  7 active torsions:
REMARK  status: ('A' for Active; 'I' for Inactive)
REMARK    1  A    between atoms: C_1  and  C_2
REMARK    2  A    between atoms: C_2  and  O_3
REMARK    3  A    between atoms: O_3  and  C_4
REMARK    4  A    between atoms: C_4  and  C_6
REMARK    5  A    between atoms: N_9  and  C_10
REMARK    6  A    between atoms: C_15  and  C_16
REMARK    7  A    between atoms: C_22  and  C_23
REMARK                            x       y       z     vdW  Elec       q    Type
REMARK                         _______ _______ _______ _____ _____    ______ ____
ROOT
ATOM      1  C   UNL     1       3.752   5.832  17.851  0.00  0.00    +0.000 A 
ATOM      2  S   UNL     1       4.016   7.413  17.203  0.00  0.00    +0.000 S 
ATOM      3  C   UNL     1       2.718   8.024  18.130  0.00  0.00    +0.000 A 
ATOM      4  N   UNL     1       2.370   9.328  18.046  0.00  0.00    +0.000 N 
ATOM      5  N   UNL     1       2.141   7.137  18.904  0.00  0.00    +0.000 NA
ATOM      6  C   UNL     1       2.722   5.883  18.773  0.00  0.00    +0.000 A 
ATOM      7  H   UNL     1       2.992   9.970  17.571  0.00  0.00    +0.000 HD
ENDROOT
BRANCH   4   8
ATOM      8  C   UNL     1       1.089   9.833  18.320  0.00  0.00    +0.000 A 
ATOM      9  C   UNL     1       0.018   9.496  17.493  0.00  0.00    +0.000 A 
ATOM     10  C   UNL     1      -1.243  10.063  17.701  0.00  0.00    +0.000 A 
ATOM     11  C   UNL     1      -1.460  10.972  18.745  0.00  0.00    +0.000 A 
ATOM     12 CL   UNL     1      -3.055  11.607  18.898  0.00  0.00    +0.000 Cl
ATOM     13  C   UNL     1      -0.411  11.325  19.593  0.00  0.00    +0.000 A 
ATOM     14  C   UNL     1       0.854  10.750  19.356  0.00  0.00    +0.000 A 
BRANCH  13  15
ATOM     15  C   UNL     1      -0.512  12.269  20.762  0.00  0.00    +0.000 C 
ATOM     16  F   UNL     1       0.627  12.483  21.469  0.00  0.00    +0.000 F 
ATOM     17  F   UNL     1      -0.934  13.508  20.370  0.00  0.00    +0.000 F 
ATOM     18  F   UNL     1      -1.433  11.851  21.679  0.00  0.00    +0.000 F 
ENDBRANCH  13  15
ENDBRANCH   4   8
BRANCH   6  19
ATOM     19  C   UNL     1       2.206   4.787  19.593  0.00  0.00    +0.000 A 
ATOM     20  C   UNL     1       2.555   4.614  20.936  0.00  0.00    +0.000 A 
ATOM     21  C   UNL     1       2.050   3.536  21.671  0.00  0.00    +0.000 A 
ATOM     22  C   UNL     1       1.209   2.606  21.066  0.00  0.00    +0.000 A 
ATOM     23  C   UNL     1       0.873   2.748  19.723  0.00  0.00    +0.000 A 
ATOM     24  C   UNL     1       1.365   3.832  18.994  0.00  0.00    +0.000 A 
ENDBRANCH   6  19
BRANCH   1  25
ATOM     25  C   UNL     1       4.641   4.763  17.477  0.00  0.00    +0.000 C 
ATOM     26  O   UNL     1       5.207   3.995  18.245  0.00  0.00    +0.000 OA
BRANCH  25  27
ATOM     27  O   UNL     1       4.814   4.752  16.123  0.00  0.00    +0.000 OA
BRANCH  27  29
ATOM     28  C   UNL     1       6.013   4.056  14.183  0.00  0.00    +0.000 C 
ATOM     29  C   UNL     1       6.110   4.347  15.669  0.00  0.00    +0.000 C 
ENDBRANCH  27  29
ENDBRANCH  25  27
ENDBRANCH   1  25
TORSDOF 6
ENDMDL
MODEL 8
REMARK VINA RESULT:      -7.5      2.046      2.808
REMARK  Name = 
REMARK  7 active torsions:
REMARK  status: ('A' for Active; 'I' for Inactive)
REMARK    1  A    between atoms: C_1  and  C_2
REMARK    2  A    between atoms: C_2  and  O_3
REMARK    3  A    between atoms: O_3  and  C_4
REMARK    4  A    between atoms: C_4  and  C_6
REMARK    5  A    between atoms: N_9  and  C_10
REMARK    6  A    between atoms: C_15  and  C_16
REMARK    7  A    between atoms: C_22  and  C_23
REMARK                            x       y       z     vdW  Elec       q    Type
REMARK                         _______ _______ _______ _____ _____    ______ ____
ROOT
ATOM      1  C   UNL     1       3.732   5.836  17.694  0.00  0.00    +0.000 A 
ATOM      2  S   UNL     1       4.002   7.433  17.089  0.00  0.00    +0.000 S 
ATOM      3  C   UNL     1       2.725   8.029  18.055  0.00  0.00    +0.000 A 
ATOM      4  N   UNL     1       2.389   9.338  18.015  0.00  0.00    +0.000 N 
ATOM      5  N   UNL     1       2.151   7.125  18.811  0.00  0.00    +0.000 NA
ATOM      6  C   UNL     1       2.716   5.870  18.633  0.00  0.00    +0.000 A 
ATOM      7  H   UNL     1       3.010   9.988  17.549  0.00  0.00    +0.000 HD
ENDROOT
BRANCH   4   8
ATOM      8  C   UNL     1       1.118   9.848  18.325  0.00  0.00    +0.000 A 
ATOM      9  C   UNL     1       0.027   9.534  17.513  0.00  0.00    +0.000 A 
ATOM     10  C   UNL     1      -1.224  10.106  17.758  0.00  0.00    +0.000 A 
ATOM     11  C   UNL     1      -1.413  10.997  18.822  0.00  0.00    +0.000 A 
ATOM     12 CL   UNL     1      -3.000  11.641  19.019  0.00  0.00    +0.000 Cl
ATOM     13  C   UNL     1      -0.344  11.327  19.655  0.00  0.00    +0.000 A 
ATOM     14  C   UNL     1       0.911  10.747  19.381  0.00  0.00    +0.000 A 
BRANCH  13  15
ATOM     15  C   UNL     1      -0.414  12.250  20.843  0.00  0.00    +0.000 C 
ATOM     16  F   UNL     1      -0.905  13.495  20.616  0.00  0.00    +0.000 F 
ATOM     17  F   UNL     1      -1.193  11.729  21.836  0.00  0.00    +0.000 F 
ATOM     18  F   UNL     1       0.811  12.444  21.413  0.00  0.00    +0.000 F 
ENDBRANCH  13  15
ENDBRANCH   4   8
BRANCH   6  19
ATOM     19  C   UNL     1       2.202   4.755  19.429  0.00  0.00    +0.000 A 
ATOM     20  C   UNL     1       1.320   3.799  18.914  0.00  0.00    +0.000 A 
ATOM     21  C   UNL     1       0.839   2.763  19.723  0.00  0.00    +0.000 A 
ATOM     22  C   UNL     1       1.218   2.684  21.061  0.00  0.00    +0.000 A 
ATOM     23  C   UNL     1       2.073   3.643  21.596  0.00  0.00    +0.000 A 
ATOM     24  C   UNL     1       2.563   4.667  20.785  0.00  0.00    +0.000 A 
ENDBRANCH   6  19
BRANCH   1  25
ATOM     25  C   UNL     1       4.603   4.770  17.275  0.00  0.00    +0.000 C 
ATOM     26  O   UNL     1       4.941   3.807  17.952  0.00  0.00    +0.000 OA
BRANCH  25  27
ATOM     27  O   UNL     1       5.055   5.007  16.008  0.00  0.00    +0.000 OA
BRANCH  27  29
ATOM     28  C   UNL     1       6.102   3.985  14.125  0.00  0.00    +0.000 C 
ATOM     29  C   UNL     1       6.210   4.259  15.614  0.00  0.00    +0.000 C 
ENDBRANCH  27  29
ENDBRANCH  25  27
ENDBRANCH   1  25
TORSDOF 6
ENDMDL
MODEL 9
REMARK VINA RESULT:      -7.5      0.859      1.599
REMARK  Name = 
REMARK  7 active torsions:
REMARK  status: ('A' for Active; 'I' for Inactive)
REMARK    1  A    between atoms: C_1  and  C_2
REMARK    2  A    between atoms: C_2  and  O_3
REMARK    3  A    between atoms: O_3  and  C_4
REMARK    4  A    between atoms: C_4  and  C_6
REMARK    5  A    between atoms: N_9  and  C_10
REMARK    6  A    between atoms: C_15  and  C_16
REMARK    7  A    between atoms: C_22  and  C_23
REMARK                            x       y       z     vdW  Elec       q    Type
REMARK                         _______ _______ _______ _____ _____    ______ ____
ROOT
ATOM      1  C   UNL     1       3.548   5.826  17.794  0.00  0.00    +0.000 A 
ATOM      2  S   UNL     1       3.834   7.374  17.079  0.00  0.00    +0.000 S 
ATOM      3  C   UNL     1       2.686   8.085  18.125  0.00  0.00    +0.000 A 
ATOM      4  N   UNL     1       2.411   9.406  18.045  0.00  0.00    +0.000 N 
ATOM      5  N   UNL     1       2.145   7.252  18.982  0.00  0.00    +0.000 NA
ATOM      6  C   UNL     1       2.631   5.962  18.821  0.00  0.00    +0.000 A 
ATOM      7  H   UNL     1       3.015   9.998  17.488  0.00  0.00    +0.000 HD
ENDROOT
BRANCH   4   8
ATOM      8  C   UNL     1       1.202   9.998  18.444  0.00  0.00    +0.000 A 
ATOM      9  C   UNL     1       1.150  10.745  19.621  0.00  0.00    +0.000 A 
ATOM     10  C   UNL     1      -0.065  11.263  20.077  0.00  0.00    +0.000 A 
ATOM     11  C   UNL     1      -1.251  11.051  19.363  0.00  0.00    +0.000 A 
ATOM     12 CL   UNL     1      -2.687  11.735  20.028  0.00  0.00    +0.000 Cl
ATOM     13  C   UNL     1      -1.233  10.313  18.180  0.00  0.00    +0.000 A 
ATOM     14  C   UNL     1       0.002   9.790  17.747  0.00  0.00    +0.000 A 
BRANCH  13  15
ATOM     15  C   UNL     1      -2.427  10.030  17.307  0.00  0.00    +0.000 C 
ATOM     16  F   UNL     1      -3.177  11.100  16.941  0.00  0.00    +0.000 F 
ATOM     17  F   UNL     1      -2.060   9.427  16.138  0.00  0.00    +0.000 F 
ATOM     18  F   UNL     1      -3.299   9.162  17.898  0.00  0.00    +0.000 F 
ENDBRANCH  13  15
ENDBRANCH   4   8
BRANCH   6  19
ATOM     19  C   UNL     1       2.142   4.917  19.722  0.00  0.00    +0.000 A 
ATOM     20  C   UNL     1       2.743   4.635  20.954  0.00  0.00    +0.000 A 
ATOM     21  C   UNL     1       2.250   3.610  21.769  0.00  0.00    +0.000 A 
ATOM     22  C   UNL     1       1.166   2.842  21.353  0.00  0.00    +0.000 A 
ATOM     23  C   UNL     1       0.574   3.092  20.119  0.00  0.00    +0.000 A 
ATOM     24  C   UNL     1       1.056   4.123  19.312  0.00  0.00    +0.000 A 
ENDBRANCH   6  19
BRANCH   1  25
ATOM     25  C   UNL     1       4.323   4.695  17.355  0.00  0.00    +0.000 C 
ATOM     26  O   UNL     1       5.542   4.654  17.252  0.00  0.00    +0.000 OA
BRANCH  25  27
ATOM     27  O   UNL     1       3.493   3.667  17.011  0.00  0.00    +0.000 OA
BRANCH  27  29
ATOM     28  C   UNL     1       3.558   1.766  18.449  0.00  0.00    +0.000 C 
ATOM     29  C   UNL     1       4.051   2.355  17.140  0.00  0.00    +0.000 C 
ENDBRANCH  27  29
ENDBRANCH  25  27
ENDBRANCH   1  25
TORSDOF 6
ENDMDL
