MODEL 1
REMARK VINA RESULT:      -7.4      0.000      0.000
REMARK  Name = 
REMARK  13 active torsions:
REMARK  status: ('A' for Active; 'I' for Inactive)
REMARK    1  A    between atoms: C_1  and  O_2
REMARK    2  A    between atoms: O_2  and  C_3
REMARK    3  A    between atoms: C_5  and  C_6
REMARK    4  A    between atoms: C_6  and  O_7
REMARK    5  A    between atoms: C_8  and  O_9
REMARK    6  A    between atoms: C_10  and  O_11
REMARK    7  A    between atoms: O_11  and  C_12
REMARK    8  A    between atoms: C_12  and  C_13
REMARK    9  A    between atoms: N_15  and  C_16
REMARK   10  A    between atoms: C_19  and  S_20
REMARK   11  A    between atoms: S_20  and  N_23
REMARK   12  A    between atoms: C_24  and  C_25
REMARK   13  A    between atoms: C_31  and  O_32
REMARK                            x       y       z     vdW  Elec       q    Type
REMARK                         _______ _______ _______ _____ _____    ______ ____
ROOT
ATOM      1  C   UNL     1       2.623   7.572  18.627  0.00  0.00    +0.000 A 
ATOM      2  C   UNL     1       1.941   8.748  18.853  0.00  0.00    +0.000 A 
ATOM      3  N   UNL     1       1.337   8.587  20.077  0.00  0.00    +0.000 N 
ATOM      4  N   UNL     1       1.692   7.385  20.593  0.00  0.00    +0.000 NA
ATOM      5  N   UNL     1       2.458   6.754  19.709  0.00  0.00    +0.000 NA
ENDROOT
BRANCH   3   6
ATOM      6  C   UNL     1       0.455   9.478  20.744  0.00  0.00    +0.000 A 
ATOM      7  C   UNL     1       0.180   9.315  22.111  0.00  0.00    +0.000 A 
ATOM      8  C   UNL     1      -0.639  10.222  22.780  0.00  0.00    +0.000 A 
ATOM      9  C   UNL     1      -1.180  11.308  22.090  0.00  0.00    +0.000 A 
ATOM     10  C   UNL     1      -0.955  11.458  20.717  0.00  0.00    +0.000 A 
ATOM     11  C   UNL     1      -0.132  10.546  20.045  0.00  0.00    +0.000 A 
BRANCH   9  12
ATOM     12  S   UNL     1      -2.195  12.474  22.960  0.00  0.00    +0.000 S 
ATOM     13  O   UNL     1      -3.149  11.720  23.749  0.00  0.00    +0.000 OA
ATOM     14  O   UNL     1      -1.351  13.471  23.576  0.00  0.00    +0.000 OA
BRANCH  12  15
ATOM     15  N   UNL     1      -3.092  13.177  21.749  0.00  0.00    +0.000 N 
ATOM     16  C   UNL     1      -4.104  14.130  21.936  0.00  0.00    +0.000 C 
ATOM     17  C   UNL     1      -4.827  14.540  20.685  0.00  0.00    +0.000 C 
ATOM     18  O   UNL     1      -4.380  14.611  23.024  0.00  0.00    +0.000 OA
ATOM     19  H   UNL     1      -2.864  12.813  20.826  0.00  0.00    +0.000 HD
ENDBRANCH  12  15
ENDBRANCH   9  12
ENDBRANCH   3   6
BRANCH   1  20
ATOM     20  C   UNL     1       3.504   7.219  17.484  0.00  0.00    +0.000 C 
BRANCH  20  21
ATOM     21  O   UNL     1       4.878   7.034  17.859  0.00  0.00    +0.000 OA
BRANCH  21  26
ATOM     22  C   UNL     1       5.695   4.227  16.697  0.00  0.00    +0.000 C 
ATOM     23  O   UNL     1       7.046   4.208  17.173  0.00  0.00    +0.000 OA
ATOM     24  C   UNL     1       7.464   5.353  17.943  0.00  0.00    +0.000 C 
ATOM     25  C   UNL     1       7.187   6.673  17.205  0.00  0.00    +0.000 C 
ATOM     26  C   UNL     1       5.732   6.787  16.721  0.00  0.00    +0.000 C 
ATOM     27  C   UNL     1       5.381   5.521  15.912  0.00  0.00    +0.000 C 
BRANCH  22  29
ATOM     28  C   UNL     1       3.513   3.521  17.269  0.00  0.00    +0.000 C 
ATOM     29  O   UNL     1       4.752   4.032  17.744  0.00  0.00    +0.000 OA
ENDBRANCH  22  29
BRANCH  25  30
ATOM     30  O   UNL     1       7.567   7.810  17.980  0.00  0.00    +0.000 OA
ATOM     31  H   UNL     1       7.839   8.506  17.351  0.00  0.00    +0.000 HD
ENDBRANCH  25  30
BRANCH  27  32
ATOM     32  O   UNL     1       6.093   5.544  14.662  0.00  0.00    +0.000 OA
ATOM     33  H   UNL     1       6.065   4.648  14.276  0.00  0.00    +0.000 HD
ENDBRANCH  27  32
BRANCH  24  34
ATOM     34  C   UNL     1       6.959   5.312  19.397  0.00  0.00    +0.000 C 
BRANCH  34  35
ATOM     35  O   UNL     1       8.018   5.635  20.302  0.00  0.00    +0.000 OA
ATOM     36  H   UNL     1       8.521   4.813  20.440  0.00  0.00    +0.000 HD
ENDBRANCH  34  35
ENDBRANCH  24  34
ENDBRANCH  21  26
ENDBRANCH  20  21
ENDBRANCH   1  20
TORSDOF 11
ENDMDL
MODEL 2
REMARK VINA RESULT:      -7.4      1.571      3.031
REMARK  Name = 
REMARK  13 active torsions:
REMARK  status: ('A' for Active; 'I' for Inactive)
REMARK    1  A    between atoms: C_1  and  O_2
REMARK    2  A    between atoms: O_2  and  C_3
REMARK    3  A    between atoms: C_5  and  C_6
REMARK    4  A    between atoms: C_6  and  O_7
REMARK    5  A    between atoms: C_8  and  O_9
REMARK    6  A    between atoms: C_10  and  O_11
REMARK    7  A    between atoms: O_11  and  C_12
REMARK    8  A    between atoms: C_12  and  C_13
REMARK    9  A    between atoms: N_15  and  C_16
REMARK   10  A    between atoms: C_19  and  S_20
REMARK   11  A    between atoms: S_20  and  N_23
REMARK   12  A    between atoms: C_24  and  C_25
REMARK   13  A    between atoms: C_31  and  O_32
REMARK                            x       y       z     vdW  Elec       q    Type
REMARK                         _______ _______ _______ _____ _____    ______ ____
ROOT
ATOM      1  C   UNL     1       2.398   7.596  18.497  0.00  0.00    +0.000 A 
ATOM      2  C   UNL     1       1.677   8.066  19.573  0.00  0.00    +0.000 A 
ATOM      3  N   UNL     1       1.277   9.331  19.215  0.00  0.00    +0.000 N 
ATOM      4  N   UNL     1       1.689   9.587  17.949  0.00  0.00    +0.000 NA
ATOM      5  N   UNL     1       2.388   8.543  17.513  0.00  0.00    +0.000 NA
ENDROOT
BRANCH   3   6
ATOM      6  C   UNL     1       0.567  10.280  19.996  0.00  0.00    +0.000 A 
ATOM      7  C   UNL     1       0.528  10.163  21.395  0.00  0.00    +0.000 A 
ATOM      8  C   UNL     1      -0.119  11.126  22.167  0.00  0.00    +0.000 A 
ATOM      9  C   UNL     1      -0.723  12.221  21.547  0.00  0.00    +0.000 A 
ATOM     10  C   UNL     1      -0.735  12.327  20.152  0.00  0.00    +0.000 A 
ATOM     11  C   UNL     1      -0.085  11.360  19.377  0.00  0.00    +0.000 A 
BRANCH   9  12
ATOM     12  S   UNL     1      -1.517  13.456  22.543  0.00  0.00    +0.000 S 
ATOM     13  O   UNL     1      -0.629  13.768  23.644  0.00  0.00    +0.000 OA
ATOM     14  O   UNL     1      -2.026  14.501  21.685  0.00  0.00    +0.000 OA
BRANCH  12  15
ATOM     15  N   UNL     1      -2.788  12.632  23.229  0.00  0.00    +0.000 N 
ATOM     16  C   UNL     1      -3.686  13.160  24.169  0.00  0.00    +0.000 C 
ATOM     17  C   UNL     1      -4.691  12.181  24.704  0.00  0.00    +0.000 C 
ATOM     18  O   UNL     1      -3.675  14.328  24.525  0.00  0.00    +0.000 OA
ATOM     19  H   UNL     1      -2.838  11.661  22.928  0.00  0.00    +0.000 HD
ENDBRANCH  12  15
ENDBRANCH   9  12
ENDBRANCH   3   6
BRANCH   1  20
ATOM     20  C   UNL     1       3.013   6.256  18.311  0.00  0.00    +0.000 C 
BRANCH  20  21
ATOM     21  O   UNL     1       4.388   6.312  17.897  0.00  0.00    +0.000 OA
BRANCH  21  26
ATOM     22  C   UNL     1       7.529   6.158  17.827  0.00  0.00    +0.000 C 
ATOM     23  O   UNL     1       7.645   4.969  17.036  0.00  0.00    +0.000 OA
ATOM     24  C   UNL     1       6.407   4.373  16.599  0.00  0.00    +0.000 C 
ATOM     25  C   UNL     1       5.442   4.129  17.772  0.00  0.00    +0.000 C 
ATOM     26  C   UNL     1       5.222   5.387  18.629  0.00  0.00    +0.000 C 
ATOM     27  C   UNL     1       6.598   5.949  19.044  0.00  0.00    +0.000 C 
BRANCH  22  29
ATOM     28  C   UNL     1       7.610   8.506  17.572  0.00  0.00    +0.000 C 
ATOM     29  O   UNL     1       7.108   7.278  17.058  0.00  0.00    +0.000 OA
ENDBRANCH  22  29
BRANCH  25  30
ATOM     30  O   UNL     1       4.201   3.573  17.337  0.00  0.00    +0.000 OA
ATOM     31  H   UNL     1       3.535   4.285  17.396  0.00  0.00    +0.000 HD
ENDBRANCH  25  30
BRANCH  27  32
ATOM     32  O   UNL     1       7.203   5.061  20.001  0.00  0.00    +0.000 OA
ATOM     33  H   UNL     1       6.493   4.576  20.462  0.00  0.00    +0.000 HD
ENDBRANCH  27  32
BRANCH  24  34
ATOM     34  C   UNL     1       5.784   5.104  15.396  0.00  0.00    +0.000 C 
BRANCH  34  35
ATOM     35  O   UNL     1       6.805   5.544  14.496  0.00  0.00    +0.000 OA
ATOM     36  H   UNL     1       6.525   6.415  14.168  0.00  0.00    +0.000 HD
ENDBRANCH  34  35
ENDBRANCH  24  34
ENDBRANCH  21  26
ENDBRANCH  20  21
ENDBRANCH   1  20
TORSDOF 11
ENDMDL
MODEL 3
REMARK VINA RESULT:      -7.4      3.784     10.672
REMARK  Name = 
REMARK  13 active torsions:
REMARK  status: ('A' for Active; 'I' for Inactive)
REMARK    1  A    between atoms: C_1  and  O_2
REMARK    2  A    between atoms: O_2  and  C_3
REMARK    3  A    between atoms: C_5  and  C_6
REMARK    4  A    between atoms: C_6  and  O_7
REMARK    5  A    between atoms: C_8  and  O_9
REMARK    6  A    between atoms: C_10  and  O_11
REMARK    7  A    between atoms: O_11  and  C_12
REMARK    8  A    between atoms: C_12  and  C_13
REMARK    9  A    between atoms: N_15  and  C_16
REMARK   10  A    between atoms: C_19  and  S_20
REMARK   11  A    between atoms: S_20  and  N_23
REMARK   12  A    between atoms: C_24  and  C_25
REMARK   13  A    between atoms: C_31  and  O_32
REMARK                            x       y       z     vdW  Elec       q    Type
REMARK                         _______ _______ _______ _____ _____    ______ ____
ROOT
ATOM      1  C   UNL     1       1.347   7.767  20.620  0.00  0.00    +0.000 A 
ATOM      2  C   UNL     1       2.022   7.811  19.421  0.00  0.00    +0.000 A 
ATOM      3  N   UNL     1       2.497   6.537  19.225  0.00  0.00    +0.000 N 
ATOM      4  N   UNL     1       2.071   5.742  20.238  0.00  0.00    +0.000 NA
ATOM      5  N   UNL     1       1.386   6.488  21.100  0.00  0.00    +0.000 NA
ENDROOT
BRANCH   3   6
ATOM      6  C   UNL     1       3.322   6.059  18.173  0.00  0.00    +0.000 A 
ATOM      7  C   UNL     1       4.090   6.954  17.410  0.00  0.00    +0.000 A 
ATOM      8  C   UNL     1       4.945   6.482  16.416  0.00  0.00    +0.000 A 
ATOM      9  C   UNL     1       5.048   5.109  16.184  0.00  0.00    +0.000 A 
ATOM     10  C   UNL     1       4.255   4.208  16.902  0.00  0.00    +0.000 A 
ATOM     11  C   UNL     1       3.396   4.683  17.901  0.00  0.00    +0.000 A 
BRANCH   9  12
ATOM     12  S   UNL     1       6.163   4.519  14.937  0.00  0.00    +0.000 S 
ATOM     13  O   UNL     1       6.847   5.669  14.381  0.00  0.00    +0.000 OA
ATOM     14  O   UNL     1       6.909   3.398  15.460  0.00  0.00    +0.000 OA
BRANCH  12  15
ATOM     15  N   UNL     1       5.143   3.995  13.732  0.00  0.00    +0.000 N 
ATOM     16  C   UNL     1       5.546   3.538  12.468  0.00  0.00    +0.000 C 
ATOM     17  C   UNL     1       4.424   3.209  11.527  0.00  0.00    +0.000 C 
ATOM     18  O   UNL     1       6.716   3.401  12.146  0.00  0.00    +0.000 OA
ATOM     19  H   UNL     1       4.160   4.073  13.984  0.00  0.00    +0.000 HD
ENDBRANCH  12  15
ENDBRANCH   9  12
ENDBRANCH   3   6
BRANCH   1  20
ATOM     20  C   UNL     1       0.580   8.849  21.290  0.00  0.00    +0.000 C 
BRANCH  20  21
ATOM     21  O   UNL     1       0.022   9.805  20.374  0.00  0.00    +0.000 OA
BRANCH  21  26
ATOM     22  C   UNL     1      -0.689  12.788  21.075  0.00  0.00    +0.000 C 
ATOM     23  O   UNL     1      -0.884  13.258  19.736  0.00  0.00    +0.000 OA
ATOM     24  C   UNL     1      -0.721  12.280  18.688  0.00  0.00    +0.000 C 
ATOM     25  C   UNL     1       0.626  11.545  18.794  0.00  0.00    +0.000 C 
ATOM     26  C   UNL     1       0.872  10.958  20.194  0.00  0.00    +0.000 C 
ATOM     27  C   UNL     1       0.674  12.075  21.240  0.00  0.00    +0.000 C 
BRANCH  22  29
ATOM     28  C   UNL     1      -1.652  11.626  22.893  0.00  0.00    +0.000 C 
ATOM     29  O   UNL     1      -1.751  11.949  21.511  0.00  0.00    +0.000 OA
ENDBRANCH  22  29
BRANCH  25  30
ATOM     30  O   UNL     1       0.774  10.551  17.781  0.00  0.00    +0.000 OA
ATOM     31  H   UNL     1       1.024   9.721  18.231  0.00  0.00    +0.000 HD
ENDBRANCH  25  30
BRANCH  27  32
ATOM     32  O   UNL     1       1.756  13.017  21.138  0.00  0.00    +0.000 OA
ATOM     33  H   UNL     1       2.032  13.267  22.040  0.00  0.00    +0.000 HD
ENDBRANCH  27  32
BRANCH  24  34
ATOM     34  C   UNL     1      -1.945  11.359  18.536  0.00  0.00    +0.000 C 
BRANCH  34  35
ATOM     35  O   UNL     1      -3.154  12.102  18.713  0.00  0.00    +0.000 OA
ATOM     36  H   UNL     1      -3.878  11.453  18.708  0.00  0.00    +0.000 HD
ENDBRANCH  34  35
ENDBRANCH  24  34
ENDBRANCH  21  26
ENDBRANCH  20  21
ENDBRANCH   1  20
TORSDOF 11
ENDMDL
MODEL 4
REMARK VINA RESULT:      -7.4      2.388      3.775
REMARK  Name = 
REMARK  13 active torsions:
REMARK  status: ('A' for Active; 'I' for Inactive)
REMARK    1  A    between atoms: C_1  and  O_2
REMARK    2  A    between atoms: O_2  and  C_3
REMARK    3  A    between atoms: C_5  and  C_6
REMARK    4  A    between atoms: C_6  and  O_7
REMARK    5  A    between atoms: C_8  and  O_9
REMARK    6  A    between atoms: C_10  and  O_11
REMARK    7  A    between atoms: O_11  and  C_12
REMARK    8  A    between atoms: C_12  and  C_13
REMARK    9  A    between atoms: N_15  and  C_16
REMARK   10  A    between atoms: C_19  and  S_20
REMARK   11  A    between atoms: S_20  and  N_23
REMARK   12  A    between atoms: C_24  and  C_25
REMARK   13  A    between atoms: C_31  and  O_32
REMARK                            x       y       z     vdW  Elec       q    Type
REMARK                         _______ _______ _______ _____ _____    ______ ____
ROOT
ATOM      1  C   UNL     1       2.454   7.240  19.620  0.00  0.00    +0.000 A 
ATOM      2  C   UNL     1       1.640   7.678  20.642  0.00  0.00    +0.000 A 
ATOM      3  N   UNL     1       1.059   8.831  20.173  0.00  0.00    +0.000 N 
ATOM      4  N   UNL     1       1.462   9.046  18.896  0.00  0.00    +0.000 NA
ATOM      5  N   UNL     1       2.326   8.092  18.560  0.00  0.00    +0.000 NA
ENDROOT
BRANCH   3   6
ATOM      6  C   UNL     1       0.189   9.718  20.861  0.00  0.00    +0.000 A 
ATOM      7  C   UNL     1      -0.099   9.519  22.221  0.00  0.00    +0.000 A 
ATOM      8  C   UNL     1      -0.906  10.421  22.911  0.00  0.00    +0.000 A 
ATOM      9  C   UNL     1      -1.421  11.537  22.250  0.00  0.00    +0.000 A 
ATOM     10  C   UNL     1      -1.183  11.725  20.885  0.00  0.00    +0.000 A 
ATOM     11  C   UNL     1      -0.373  10.818  20.191  0.00  0.00    +0.000 A 
BRANCH   9  12
ATOM     12  S   UNL     1      -2.421  12.695  23.149  0.00  0.00    +0.000 S 
ATOM     13  O   UNL     1      -3.400  11.936  23.902  0.00  0.00    +0.000 OA
ATOM     14  O   UNL     1      -1.562  13.652  23.808  0.00  0.00    +0.000 OA
BRANCH  12  15
ATOM     15  N   UNL     1      -3.288  13.458  21.953  0.00  0.00    +0.000 N 
ATOM     16  C   UNL     1      -4.261  14.448  22.159  0.00  0.00    +0.000 C 
ATOM     17  C   UNL     1      -4.966  14.911  20.918  0.00  0.00    +0.000 C 
ATOM     18  O   UNL     1      -4.517  14.918  23.257  0.00  0.00    +0.000 OA
ATOM     19  H   UNL     1      -3.075  13.104  21.022  0.00  0.00    +0.000 HD
ENDBRANCH  12  15
ENDBRANCH   9  12
ENDBRANCH   3   6
BRANCH   1  20
ATOM     20  C   UNL     1       3.274   6.003  19.557  0.00  0.00    +0.000 C 
BRANCH  20  21
ATOM     21  O   UNL     1       2.511   4.802  19.754  0.00  0.00    +0.000 OA
BRANCH  21  26
ATOM     22  C   UNL     1       3.808   2.472  18.085  0.00  0.00    +0.000 C 
ATOM     23  O   UNL     1       2.910   1.429  18.483  0.00  0.00    +0.000 OA
ATOM     24  C   UNL     1       1.851   1.810  19.383  0.00  0.00    +0.000 C 
ATOM     25  C   UNL     1       2.389   2.540  20.626  0.00  0.00    +0.000 C 
ATOM     26  C   UNL     1       3.313   3.716  20.268  0.00  0.00    +0.000 C 
ATOM     27  C   UNL     1       4.407   3.209  19.305  0.00  0.00    +0.000 C 
BRANCH  22  29
ATOM     28  C   UNL     1       4.153   4.219  16.533  0.00  0.00    +0.000 C 
ATOM     29  O   UNL     1       3.200   3.393  17.189  0.00  0.00    +0.000 OA
ENDBRANCH  22  29
BRANCH  25  30
ATOM     30  O   UNL     1       1.339   2.952  21.501  0.00  0.00    +0.000 OA
ATOM     31  H   UNL     1       0.868   2.143  21.780  0.00  0.00    +0.000 HD
ENDBRANCH  25  30
BRANCH  27  32
ATOM     32  O   UNL     1       5.311   2.353  20.024  0.00  0.00    +0.000 OA
ATOM     33  H   UNL     1       5.790   1.800  19.378  0.00  0.00    +0.000 HD
ENDBRANCH  27  32
BRANCH  24  34
ATOM     34  C   UNL     1       0.690   2.528  18.670  0.00  0.00    +0.000 C 
BRANCH  34  35
ATOM     35  O   UNL     1      -0.195   3.118  19.626  0.00  0.00    +0.000 OA
ATOM     36  H   UNL     1       0.347   3.719  20.166  0.00  0.00    +0.000 HD
ENDBRANCH  34  35
ENDBRANCH  24  34
ENDBRANCH  21  26
ENDBRANCH  20  21
ENDBRANCH   1  20
TORSDOF 11
ENDMDL
MODEL 5
REMARK VINA RESULT:      -7.3      3.042     11.092
REMARK  Name = 
REMARK  13 active torsions:
REMARK  status: ('A' for Active; 'I' for Inactive)
REMARK    1  A    between atoms: C_1  and  O_2
REMARK    2  A    between atoms: O_2  and  C_3
REMARK    3  A    between atoms: C_5  and  C_6
REMARK    4  A    between atoms: C_6  and  O_7
REMARK    5  A    between atoms: C_8  and  O_9
REMARK    6  A    between atoms: C_10  and  O_11
REMARK    7  A    between atoms: O_11  and  C_12
REMARK    8  A    between atoms: C_12  and  C_13
REMARK    9  A    between atoms: N_15  and  C_16
REMARK   10  A    between atoms: C_19  and  S_20
REMARK   11  A    between atoms: S_20  and  N_23
REMARK   12  A    between atoms: C_24  and  C_25
REMARK   13  A    between atoms: C_31  and  O_32
REMARK                            x       y       z     vdW  Elec       q    Type
REMARK                         _______ _______ _______ _____ _____    ______ ____
ROOT
ATOM      1  C   UNL     1       0.285   9.928  21.208  0.00  0.00    +0.000 A 
ATOM      2  C   UNL     1       0.789   8.659  21.389  0.00  0.00    +0.000 A 
ATOM      3  N   UNL     1       1.383   8.333  20.193  0.00  0.00    +0.000 N 
ATOM      4  N   UNL     1       1.292   9.389  19.348  0.00  0.00    +0.000 NA
ATOM      5  N   UNL     1       0.609  10.356  19.952  0.00  0.00    +0.000 NA
ENDROOT
BRANCH   3   6
ATOM      6  C   UNL     1       1.992   7.105  19.822  0.00  0.00    +0.000 A 
ATOM      7  C   UNL     1       2.689   6.995  18.608  0.00  0.00    +0.000 A 
ATOM      8  C   UNL     1       3.336   5.808  18.270  0.00  0.00    +0.000 A 
ATOM      9  C   UNL     1       3.301   4.724  19.149  0.00  0.00    +0.000 A 
ATOM     10  C   UNL     1       2.570   4.801  20.339  0.00  0.00    +0.000 A 
ATOM     11  C   UNL     1       1.920   5.993  20.679  0.00  0.00    +0.000 A 
BRANCH   9  12
ATOM     12  S   UNL     1       4.154   3.229  18.721  0.00  0.00    +0.000 S 
ATOM     13  O   UNL     1       4.824   2.750  19.913  0.00  0.00    +0.000 OA
ATOM     14  O   UNL     1       3.261   2.369  17.979  0.00  0.00    +0.000 OA
BRANCH  12  15
ATOM     15  N   UNL     1       5.372   3.760  17.720  0.00  0.00    +0.000 N 
ATOM     16  C   UNL     1       6.465   4.547  18.117  0.00  0.00    +0.000 C 
ATOM     17  C   UNL     1       7.377   4.971  17.003  0.00  0.00    +0.000 C 
ATOM     18  O   UNL     1       6.679   4.860  19.278  0.00  0.00    +0.000 OA
ATOM     19  H   UNL     1       5.233   3.489  16.749  0.00  0.00    +0.000 HD
ENDBRANCH  12  15
ENDBRANCH   9  12
ENDBRANCH   3   6
BRANCH   1  20
ATOM     20  C   UNL     1      -0.403  10.799  22.196  0.00  0.00    +0.000 C 
BRANCH  20  21
ATOM     21  O   UNL     1      -1.304  11.744  21.596  0.00  0.00    +0.000 OA
BRANCH  21  26
ATOM     22  C   UNL     1      -2.673  13.705  23.639  0.00  0.00    +0.000 C 
ATOM     23  O   UNL     1      -3.354  14.529  22.686  0.00  0.00    +0.000 OA
ATOM     24  C   UNL     1      -3.189  14.168  21.300  0.00  0.00    +0.000 C 
ATOM     25  C   UNL     1      -1.706  14.038  20.914  0.00  0.00    +0.000 C 
ATOM     26  C   UNL     1      -0.927  13.112  21.863  0.00  0.00    +0.000 C 
ATOM     27  C   UNL     1      -1.167  13.577  23.314  0.00  0.00    +0.000 C 
BRANCH  22  29
ATOM     28  C   UNL     1      -4.374  12.424  24.664  0.00  0.00    +0.000 C 
ATOM     29  O   UNL     1      -3.272  12.421  23.766  0.00  0.00    +0.000 OA
ENDBRANCH  22  29
BRANCH  25  30
ATOM     30  O   UNL     1      -1.540  13.644  19.552  0.00  0.00    +0.000 OA
ATOM     31  H   UNL     1      -1.747  14.425  19.003  0.00  0.00    +0.000 HD
ENDBRANCH  25  30
BRANCH  27  32
ATOM     32  O   UNL     1      -0.492  14.829  23.529  0.00  0.00    +0.000 OA
ATOM     33  H   UNL     1      -0.490  15.017  24.486  0.00  0.00    +0.000 HD
ENDBRANCH  27  32
BRANCH  24  34
ATOM     34  C   UNL     1      -4.068  12.974  20.885  0.00  0.00    +0.000 C 
BRANCH  34  35
ATOM     35  O   UNL     1      -4.414  13.067  19.500  0.00  0.00    +0.000 OA
ATOM     36  H   UNL     1      -4.896  13.905  19.394  0.00  0.00    +0.000 HD
ENDBRANCH  34  35
ENDBRANCH  24  34
ENDBRANCH  21  26
ENDBRANCH  20  21
ENDBRANCH   1  20
TORSDOF 11
ENDMDL
MODEL 6
REMARK VINA RESULT:      -7.3      1.801      2.560
REMARK  Name = 
REMARK  13 active torsions:
REMARK  status: ('A' for Active; 'I' for Inactive)
REMARK    1  A    between atoms: C_1  and  O_2
REMARK    2  A    between atoms: O_2  and  C_3
REMARK    3  A    between atoms: C_5  and  C_6
REMARK    4  A    between atoms: C_6  and  O_7
REMARK    5  A    between atoms: C_8  and  O_9
REMARK    6  A    between atoms: C_10  and  O_11
REMARK    7  A    between atoms: O_11  and  C_12
REMARK    8  A    between atoms: C_12  and  C_13
REMARK    9  A    between atoms: N_15  and  C_16
REMARK   10  A    between atoms: C_19  and  S_20
REMARK   11  A    between atoms: S_20  and  N_23
REMARK   12  A    between atoms: C_24  and  C_25
REMARK   13  A    between atoms: C_31  and  O_32
REMARK                            x       y       z     vdW  Elec       q    Type
REMARK                         _______ _______ _______ _____ _____    ______ ____
ROOT
ATOM      1  C   UNL     1       1.860   8.290  19.214  0.00  0.00    +0.000 A 
ATOM      2  C   UNL     1       1.095   9.431  19.304  0.00  0.00    +0.000 A 
ATOM      3  N   UNL     1       0.595   9.433  20.584  0.00  0.00    +0.000 N 
ATOM      4  N   UNL     1       1.090   8.364  21.256  0.00  0.00    +0.000 NA
ATOM      5  N   UNL     1       1.846   7.654  20.424  0.00  0.00    +0.000 NA
ENDROOT
BRANCH   3   6
ATOM      6  C   UNL     1      -0.313  10.353  21.171  0.00  0.00    +0.000 A 
ATOM      7  C   UNL     1      -0.996  11.286  20.372  0.00  0.00    +0.000 A 
ATOM      8  C   UNL     1      -1.930  12.150  20.939  0.00  0.00    +0.000 A 
ATOM      9  C   UNL     1      -2.200  12.081  22.307  0.00  0.00    +0.000 A 
ATOM     10  C   UNL     1      -1.494  11.192  23.124  0.00  0.00    +0.000 A 
ATOM     11  C   UNL     1      -0.554  10.323  22.555  0.00  0.00    +0.000 A 
BRANCH   9  12
ATOM     12  S   UNL     1      -3.415  13.166  23.009  0.00  0.00    +0.000 S 
ATOM     13  O   UNL     1      -3.491  12.878  24.427  0.00  0.00    +0.000 OA
ATOM     14  O   UNL     1      -3.176  14.512  22.540  0.00  0.00    +0.000 OA
BRANCH  12  15
ATOM     15  N   UNL     1      -4.843  12.601  22.372  0.00  0.00    +0.000 N 
ATOM     16  C   UNL     1      -6.118  13.116  22.652  0.00  0.00    +0.000 C 
ATOM     17  C   UNL     1      -7.256  12.368  22.020  0.00  0.00    +0.000 C 
ATOM     18  O   UNL     1      -6.305  14.105  23.344  0.00  0.00    +0.000 OA
ATOM     19  H   UNL     1      -4.714  11.791  21.769  0.00  0.00    +0.000 HD
ENDBRANCH  12  15
ENDBRANCH   9  12
ENDBRANCH   3   6
BRANCH   1  20
ATOM     20  C   UNL     1       2.686   7.818  18.073  0.00  0.00    +0.000 C 
BRANCH  20  21
ATOM     21  O   UNL     1       3.506   6.682  18.393  0.00  0.00    +0.000 OA
BRANCH  21  26
ATOM     22  C   UNL     1       3.120   3.671  19.217  0.00  0.00    +0.000 C 
ATOM     23  O   UNL     1       4.402   3.191  18.794  0.00  0.00    +0.000 OA
ATOM     24  C   UNL     1       5.295   4.173  18.233  0.00  0.00    +0.000 C 
ATOM     25  C   UNL     1       4.632   4.968  17.095  0.00  0.00    +0.000 C 
ATOM     26  C   UNL     1       3.276   5.568  17.504  0.00  0.00    +0.000 C 
ATOM     27  C   UNL     1       2.396   4.444  18.090  0.00  0.00    +0.000 C 
BRANCH  22  29
ATOM     28  C   UNL     1       2.159   4.172  21.317  0.00  0.00    +0.000 C 
ATOM     29  O   UNL     1       3.204   4.462  20.396  0.00  0.00    +0.000 OA
ENDBRANCH  22  29
BRANCH  25  30
ATOM     30  O   UNL     1       5.502   5.967  16.562  0.00  0.00    +0.000 OA
ATOM     31  H   UNL     1       4.960   6.536  15.982  0.00  0.00    +0.000 HD
ENDBRANCH  25  30
BRANCH  27  32
ATOM     32  O   UNL     1       2.000   3.552  17.034  0.00  0.00    +0.000 OA
ATOM     33  H   UNL     1       2.617   3.666  16.287  0.00  0.00    +0.000 HD
ENDBRANCH  27  32
BRANCH  24  34
ATOM     34  C   UNL     1       5.982   5.039  19.306  0.00  0.00    +0.000 C 
BRANCH  34  35
ATOM     35  O   UNL     1       7.381   5.152  19.034  0.00  0.00    +0.000 OA
ATOM     36  H   UNL     1       7.781   5.561  19.821  0.00  0.00    +0.000 HD
ENDBRANCH  34  35
ENDBRANCH  24  34
ENDBRANCH  21  26
ENDBRANCH  20  21
ENDBRANCH   1  20
TORSDOF 11
ENDMDL
MODEL 7
REMARK VINA RESULT:      -7.3      2.202      3.618
REMARK  Name = 
REMARK  13 active torsions:
REMARK  status: ('A' for Active; 'I' for Inactive)
REMARK    1  A    between atoms: C_1  and  O_2
REMARK    2  A    between atoms: O_2  and  C_3
REMARK    3  A    between atoms: C_5  and  C_6
REMARK    4  A    between atoms: C_6  and  O_7
REMARK    5  A    between atoms: C_8  and  O_9
REMARK    6  A    between atoms: C_10  and  O_11
REMARK    7  A    between atoms: O_11  and  C_12
REMARK    8  A    between atoms: C_12  and  C_13
REMARK    9  A    between atoms: N_15  and  C_16
REMARK   10  A    between atoms: C_19  and  S_20
REMARK   11  A    between atoms: S_20  and  N_23
REMARK   12  A    between atoms: C_24  and  C_25
REMARK   13  A    between atoms: C_31  and  O_32
REMARK                            x       y       z     vdW  Elec       q    Type
REMARK                         _______ _______ _______ _____ _____    ______ ____
ROOT
ATOM      1  C   UNL     1       2.278   8.279  18.332  0.00  0.00    +0.000 A 
ATOM      2  C   UNL     1       1.520   8.519  19.457  0.00  0.00    +0.000 A 
ATOM      3  N   UNL     1       0.920   9.735  19.236  0.00  0.00    +0.000 N 
ATOM      4  N   UNL     1       1.257  10.181  18.001  0.00  0.00    +0.000 NA
ATOM      5  N   UNL     1       2.098   9.308  17.452  0.00  0.00    +0.000 NA
ENDROOT
BRANCH   3   6
ATOM      6  C   UNL     1       0.091  10.478  20.118  0.00  0.00    +0.000 A 
ATOM      7  C   UNL     1      -0.734  11.502  19.625  0.00  0.00    +0.000 A 
ATOM      8  C   UNL     1      -1.591  12.191  20.481  0.00  0.00    +0.000 A 
ATOM      9  C   UNL     1      -1.639  11.855  21.835  0.00  0.00    +0.000 A 
ATOM     10  C   UNL     1      -0.789  10.870  22.350  0.00  0.00    +0.000 A 
ATOM     11  C   UNL     1       0.072  10.178  21.491  0.00  0.00    +0.000 A 
BRANCH   9  12
ATOM     12  S   UNL     1      -2.757  12.719  22.907  0.00  0.00    +0.000 S 
ATOM     13  O   UNL     1      -3.626  13.527  22.074  0.00  0.00    +0.000 OA
ATOM     14  O   UNL     1      -3.308  11.790  23.866  0.00  0.00    +0.000 OA
BRANCH  12  15
ATOM     15  N   UNL     1      -1.771  13.806  23.689  0.00  0.00    +0.000 N 
ATOM     16  C   UNL     1      -2.190  14.740  24.648  0.00  0.00    +0.000 C 
ATOM     17  C   UNL     1      -1.118  15.670  25.137  0.00  0.00    +0.000 C 
ATOM     18  O   UNL     1      -3.333  14.796  25.075  0.00  0.00    +0.000 OA
ATOM     19  H   UNL     1      -0.804  13.763  23.371  0.00  0.00    +0.000 HD
ENDBRANCH  12  15
ENDBRANCH   9  12
ENDBRANCH   3   6
BRANCH   1  20
ATOM     20  C   UNL     1       3.088   7.078  18.002  0.00  0.00    +0.000 C 
BRANCH  20  21
ATOM     21  O   UNL     1       2.666   5.895  18.700  0.00  0.00    +0.000 OA
BRANCH  21  26
ATOM     22  C   UNL     1       4.818   3.672  18.129  0.00  0.00    +0.000 C 
ATOM     23  O   UNL     1       4.219   2.624  18.899  0.00  0.00    +0.000 OA
ATOM     24  C   UNL     1       2.976   2.946  19.554  0.00  0.00    +0.000 C 
ATOM     25  C   UNL     1       3.091   4.222  20.406  0.00  0.00    +0.000 C 
ATOM     26  C   UNL     1       3.669   5.410  19.619  0.00  0.00    +0.000 C 
ATOM     27  C   UNL     1       4.991   4.966  18.957  0.00  0.00    +0.000 C 
BRANCH  22  29
ATOM     28  C   UNL     1       4.922   4.523  15.926  0.00  0.00    +0.000 C 
ATOM     29  O   UNL     1       4.101   3.936  16.929  0.00  0.00    +0.000 OA
ENDBRANCH  22  29
BRANCH  25  30
ATOM     30  O   UNL     1       1.851   4.565  21.027  0.00  0.00    +0.000 OA
ATOM     31  H   UNL     1       1.278   4.938  20.329  0.00  0.00    +0.000 HD
ENDBRANCH  25  30
BRANCH  27  32
ATOM     32  O   UNL     1       5.994   4.790  19.973  0.00  0.00    +0.000 OA
ATOM     33  H   UNL     1       5.656   5.165  20.808  0.00  0.00    +0.000 HD
ENDBRANCH  27  32
BRANCH  24  34
ATOM     34  C   UNL     1       1.771   2.920  18.596  0.00  0.00    +0.000 C 
BRANCH  34  35
ATOM     35  O   UNL     1       1.924   1.875  17.632  0.00  0.00    +0.000 OA
ATOM     36  H   UNL     1       2.527   2.218  16.950  0.00  0.00    +0.000 HD
ENDBRANCH  34  35
ENDBRANCH  24  34
ENDBRANCH  21  26
ENDBRANCH  20  21
ENDBRANCH   1  20
TORSDOF 11
ENDMDL
MODEL 8
REMARK VINA RESULT:      -7.3      4.000     10.428
REMARK  Name = 
REMARK  13 active torsions:
REMARK  status: ('A' for Active; 'I' for Inactive)
REMARK    1  A    between atoms: C_1  and  O_2
REMARK    2  A    between atoms: O_2  and  C_3
REMARK    3  A    between atoms: C_5  and  C_6
REMARK    4  A    between atoms: C_6  and  O_7
REMARK    5  A    between atoms: C_8  and  O_9
REMARK    6  A    between atoms: C_10  and  O_11
REMARK    7  A    between atoms: O_11  and  C_12
REMARK    8  A    between atoms: C_12  and  C_13
REMARK    9  A    between atoms: N_15  and  C_16
REMARK   10  A    between atoms: C_19  and  S_20
REMARK   11  A    between atoms: S_20  and  N_23
REMARK   12  A    between atoms: C_24  and  C_25
REMARK   13  A    between atoms: C_31  and  O_32
REMARK                            x       y       z     vdW  Elec       q    Type
REMARK                         _______ _______ _______ _____ _____    ______ ____
ROOT
ATOM      1  C   UNL     1       1.449   8.001  20.483  0.00  0.00    +0.000 A 
ATOM      2  C   UNL     1       2.117   8.003  19.279  0.00  0.00    +0.000 A 
ATOM      3  N   UNL     1       2.574   6.718  19.116  0.00  0.00    +0.000 N 
ATOM      4  N   UNL     1       2.145   5.958  20.153  0.00  0.00    +0.000 NA
ATOM      5  N   UNL     1       1.476   6.735  20.998  0.00  0.00    +0.000 NA
ENDROOT
BRANCH   3   6
ATOM      6  C   UNL     1       3.387   6.202  18.072  0.00  0.00    +0.000 A 
ATOM      7  C   UNL     1       4.194   7.060  17.308  0.00  0.00    +0.000 A 
ATOM      8  C   UNL     1       5.036   6.548  16.323  0.00  0.00    +0.000 A 
ATOM      9  C   UNL     1       5.086   5.171  16.100  0.00  0.00    +0.000 A 
ATOM     10  C   UNL     1       4.253   4.307  16.819  0.00  0.00    +0.000 A 
ATOM     11  C   UNL     1       3.407   4.821  17.809  0.00  0.00    +0.000 A 
BRANCH   9  12
ATOM     12  S   UNL     1       6.184   4.529  14.864  0.00  0.00    +0.000 S 
ATOM     13  O   UNL     1       6.909   5.649  14.298  0.00  0.00    +0.000 OA
ATOM     14  O   UNL     1       6.889   3.388  15.403  0.00  0.00    +0.000 OA
BRANCH  12  15
ATOM     15  N   UNL     1       5.151   4.026  13.661  0.00  0.00    +0.000 N 
ATOM     16  C   UNL     1       5.543   3.514  12.415  0.00  0.00    +0.000 C 
ATOM     17  C   UNL     1       4.416   3.220  11.469  0.00  0.00    +0.000 C 
ATOM     18  O   UNL     1       6.708   3.305  12.112  0.00  0.00    +0.000 OA
ATOM     19  H   UNL     1       4.171   4.164  13.899  0.00  0.00    +0.000 HD
ENDBRANCH  12  15
ENDBRANCH   9  12
ENDBRANCH   3   6
BRANCH   1  20
ATOM     20  C   UNL     1       0.700   9.110  21.128  0.00  0.00    +0.000 C 
BRANCH  20  21
ATOM     21  O   UNL     1       1.160  10.413  20.735  0.00  0.00    +0.000 OA
BRANCH  21  26
ATOM     22  C   UNL     1      -1.258  11.577  19.093  0.00  0.00    +0.000 C 
ATOM     23  O   UNL     1      -0.657  12.824  18.724  0.00  0.00    +0.000 OA
ATOM     24  C   UNL     1       0.695  13.037  19.178  0.00  0.00    +0.000 C 
ATOM     25  C   UNL     1       0.832  12.818  20.695  0.00  0.00    +0.000 C 
ATOM     26  C   UNL     1       0.262  11.465  21.151  0.00  0.00    +0.000 C 
ATOM     27  C   UNL     1      -1.180  11.332  20.618  0.00  0.00    +0.000 C 
BRANCH  22  29
ATOM     28  C   UNL     1      -1.561  10.026  17.337  0.00  0.00    +0.000 C 
ATOM     29  O   UNL     1      -0.705  10.480  18.378  0.00  0.00    +0.000 OA
ENDBRANCH  22  29
BRANCH  25  30
ATOM     30  O   UNL     1       2.177  12.991  21.141  0.00  0.00    +0.000 OA
ATOM     31  H   UNL     1       2.178  12.840  22.106  0.00  0.00    +0.000 HD
ENDBRANCH  25  30
BRANCH  27  32
ATOM     32  O   UNL     1      -2.034  12.248  21.326  0.00  0.00    +0.000 OA
ATOM     33  H   UNL     1      -2.899  12.271  20.876  0.00  0.00    +0.000 HD
ENDBRANCH  27  32
BRANCH  24  34
ATOM     34  C   UNL     1       1.736  12.290  18.324  0.00  0.00    +0.000 C 
BRANCH  34  35
ATOM     35  O   UNL     1       2.459  13.210  17.502  0.00  0.00    +0.000 OA
ATOM     36  H   UNL     1       2.145  14.098  17.744  0.00  0.00    +0.000 HD
ENDBRANCH  34  35
ENDBRANCH  24  34
ENDBRANCH  21  26
ENDBRANCH  20  21
ENDBRANCH   1  20
TORSDOF 11
ENDMDL
MODEL 9
REMARK VINA RESULT:      -7.3      1.103      2.857
REMARK  Name = 
REMARK  13 active torsions:
REMARK  status: ('A' for Active; 'I' for Inactive)
REMARK    1  A    between atoms: C_1  and  O_2
REMARK    2  A    between atoms: O_2  and  C_3
REMARK    3  A    between atoms: C_5  and  C_6
REMARK    4  A    between atoms: C_6  and  O_7
REMARK    5  A    between atoms: C_8  and  O_9
REMARK    6  A    between atoms: C_10  and  O_11
REMARK    7  A    between atoms: O_11  and  C_12
REMARK    8  A    between atoms: C_12  and  C_13
REMARK    9  A    between atoms: N_15  and  C_16
REMARK   10  A    between atoms: C_19  and  S_20
REMARK   11  A    between atoms: S_20  and  N_23
REMARK   12  A    between atoms: C_24  and  C_25
REMARK   13  A    between atoms: C_31  and  O_32
REMARK                            x       y       z     vdW  Elec       q    Type
REMARK                         _______ _______ _______ _____ _____    ______ ____
ROOT
ATOM      1  C   UNL     1       2.419   7.603  18.375  0.00  0.00    +0.000 A 
ATOM      2  C   UNL     1       1.624   7.919  19.455  0.00  0.00    +0.000 A 
ATOM      3  N   UNL     1       1.266   9.232  19.269  0.00  0.00    +0.000 N 
ATOM      4  N   UNL     1       1.775   9.670  18.091  0.00  0.00    +0.000 NA
ATOM      5  N   UNL     1       2.493   8.690  17.551  0.00  0.00    +0.000 NA
ENDROOT
BRANCH   3   6
ATOM      6  C   UNL     1       0.509  10.066  20.134  0.00  0.00    +0.000 A 
ATOM      7  C   UNL     1      -0.232  11.141  19.616  0.00  0.00    +0.000 A 
ATOM      8  C   UNL     1      -1.022  11.924  20.456  0.00  0.00    +0.000 A 
ATOM      9  C   UNL     1      -1.087  11.631  21.819  0.00  0.00    +0.000 A 
ATOM     10  C   UNL     1      -0.318  10.595  22.358  0.00  0.00    +0.000 A 
ATOM     11  C   UNL     1       0.476   9.808  21.515  0.00  0.00    +0.000 A 
BRANCH   9  12
ATOM     12  S   UNL     1      -2.120  12.617  22.872  0.00  0.00    +0.000 S 
ATOM     13  O   UNL     1      -2.941  11.712  23.651  0.00  0.00    +0.000 OA
ATOM     14  O   UNL     1      -1.313  13.626  23.518  0.00  0.00    +0.000 OA
BRANCH  12  15
ATOM     15  N   UNL     1      -3.167  13.344  21.804  0.00  0.00    +0.000 N 
ATOM     16  C   UNL     1      -4.326  14.053  22.157  0.00  0.00    +0.000 C 
ATOM     17  C   UNL     1      -5.151  14.533  20.999  0.00  0.00    +0.000 C 
ATOM     18  O   UNL     1      -4.646  14.282  23.313  0.00  0.00    +0.000 OA
ATOM     19  H   UNL     1      -2.910  13.191  20.831  0.00  0.00    +0.000 HD
ENDBRANCH  12  15
ENDBRANCH   9  12
ENDBRANCH   3   6
BRANCH   1  20
ATOM     20  C   UNL     1       3.032   6.294  18.030  0.00  0.00    +0.000 C 
BRANCH  20  21
ATOM     21  O   UNL     1       4.436   6.382  17.735  0.00  0.00    +0.000 OA
BRANCH  21  26
ATOM     22  C   UNL     1       7.573   6.157  17.791  0.00  0.00    +0.000 C 
ATOM     23  O   UNL     1       7.694   4.971  16.997  0.00  0.00    +0.000 OA
ATOM     24  C   UNL     1       6.462   4.406  16.506  0.00  0.00    +0.000 C 
ATOM     25  C   UNL     1       5.445   4.177  17.637  0.00  0.00    +0.000 C 
ATOM     26  C   UNL     1       5.219   5.434  18.493  0.00  0.00    +0.000 C 
ATOM     27  C   UNL     1       6.589   5.961  18.968  0.00  0.00    +0.000 C 
BRANCH  22  29
ATOM     28  C   UNL     1       7.608   8.514  17.621  0.00  0.00    +0.000 C 
ATOM     29  O   UNL     1       7.209   7.291  17.014  0.00  0.00    +0.000 OA
ENDBRANCH  22  29
BRANCH  25  30
ATOM     30  O   UNL     1       4.211   3.652  17.149  0.00  0.00    +0.000 OA
ATOM     31  H   UNL     1       4.331   2.688  17.050  0.00  0.00    +0.000 HD
ENDBRANCH  25  30
BRANCH  27  32
ATOM     32  O   UNL     1       7.134   5.055  19.942  0.00  0.00    +0.000 OA
ATOM     33  H   UNL     1       7.662   5.571  20.581  0.00  0.00    +0.000 HD
ENDBRANCH  27  32
BRANCH  24  34
ATOM     34  C   UNL     1       5.905   5.159  15.284  0.00  0.00    +0.000 C 
BRANCH  34  35
ATOM     35  O   UNL     1       6.971   5.580  14.429  0.00  0.00    +0.000 OA
ATOM     36  H   UNL     1       6.934   5.009  13.643  0.00  0.00    +0.000 HD
ENDBRANCH  34  35
ENDBRANCH  24  34
ENDBRANCH  21  26
ENDBRANCH  20  21
ENDBRANCH   1  20
TORSDOF 11
ENDMDL
