MODEL 1
REMARK VINA RESULT:      -7.1      0.000      0.000
REMARK  Name = 
REMARK  16 active torsions:
REMARK  status: ('A' for Active; 'I' for Inactive)
REMARK    1  A    between atoms: C_1  and  C_2
REMARK    2  A    between atoms: C_2  and  C_3
REMARK    3  A    between atoms: C_3  and  C_4
REMARK    4  A    between atoms: C_4  and  C_5
REMARK    5  A    between atoms: C_5  and  C_6
REMARK    6  A    between atoms: C_6  and  C_7
REMARK    7  A    between atoms: C_7  and  C_8
REMARK    8  A    between atoms: C_8  and  C_9
REMARK    9  A    between atoms: C_9  and  C_10
REMARK   10  A    between atoms: C_10  and  C_11
REMARK   11  A    between atoms: C_11  and  C_12
REMARK   12  A    between atoms: C_12  and  O_13
REMARK   13  A    between atoms: O_13  and  C_14
REMARK   14  A    between atoms: C_17  and  C_18
REMARK   15  A    between atoms: C_19  and  C_20
REMARK   16  A    between atoms: N_24  and  C_25
REMARK                            x       y       z     vdW  Elec       q    Type
REMARK                         _______ _______ _______ _____ _____    ______ ____
ROOT
ATOM      1  C   UNL     1       1.627   8.646  19.274  0.00  0.00    +0.000 A 
ATOM      2  C   UNL     1       1.766   7.850  20.406  0.00  0.00    +0.000 A 
ATOM      3  C   UNL     1       2.312   6.552  20.334  0.00  0.00    +0.000 A 
ATOM      4  C   UNL     1       2.788   5.987  19.131  0.00  0.00    +0.000 A 
ATOM      5  C   UNL     1       2.707   6.848  18.009  0.00  0.00    +0.000 A 
ATOM      6  C   UNL     1       2.131   8.154  18.075  0.00  0.00    +0.000 A 
ENDROOT
BRANCH   4   7
ATOM      7  C   UNL     1       2.882   4.508  18.936  0.00  0.00    +0.000 A 
ATOM      8  C   UNL     1       1.896   3.730  19.455  0.00  0.00    +0.000 A 
ATOM      9  C   UNL     1       0.690   4.120  20.245  0.00  0.00    +0.000 C 
ATOM     10  N   UNL     1       2.177   2.415  19.215  0.00  0.00    +0.000 N 
ATOM     11  C   UNL     1       3.447   2.303  18.548  0.00  0.00    +0.000 A 
ATOM     12  O   UNL     1       3.986   1.261  18.306  0.00  0.00    +0.000 OA
ATOM     13  N   UNL     1       3.882   3.628  18.379  0.00  0.00    +0.000 N 
ATOM     14  H   UNL     1       1.657   1.628  19.537  0.00  0.00    +0.000 HD
BRANCH  13  15
ATOM     15  C   UNL     1       5.339   3.991  18.128  0.00  0.00    +0.000 C 
ATOM     16  C   UNL     1       5.582   3.850  16.641  0.00  0.00    +0.000 C 
ATOM     17  C   UNL     1       4.845   4.993  15.936  0.00  0.00    +0.000 C 
ATOM     18  C   UNL     1       5.801   6.157  15.924  0.00  0.00    +0.000 C 
ATOM     19  C   UNL     1       6.067   6.557  17.379  0.00  0.00    +0.000 C 
ATOM     20  C   UNL     1       6.070   5.387  18.441  0.00  0.00    +0.000 C 
ENDBRANCH  13  15
ENDBRANCH   4   7
BRANCH   1  21
ATOM     21  O   UNL     1       0.895   9.782  19.480  0.00  0.00    +0.000 OA
BRANCH  21  22
ATOM     22  C   UNL     1      -0.177   9.794  20.427  0.00  0.00    +0.000 C 
BRANCH  22  23
ATOM     23  C   UNL     1      -0.655  11.256  20.585  0.00  0.00    +0.000 C 
BRANCH  23  24
ATOM     24  C   UNL     1      -1.782  11.633  19.616  0.00  0.00    +0.000 C 
BRANCH  24  25
ATOM     25  C   UNL     1      -1.341  11.561  18.145  0.00  0.00    +0.000 C 
BRANCH  25  26
ATOM     26  C   UNL     1      -2.121  10.485  17.382  0.00  0.00    +0.000 C 
BRANCH  26  27
ATOM     27  C   UNL     1      -2.527  10.962  15.987  0.00  0.00    +0.000 C 
BRANCH  27  28
ATOM     28  C   UNL     1      -4.039  10.869  15.793  0.00  0.00    +0.000 C 
BRANCH  28  29
ATOM     29  C   UNL     1      -4.767  10.866  17.135  0.00  0.00    +0.000 C 
BRANCH  29  30
ATOM     30  C   UNL     1      -5.572  12.151  17.326  0.00  0.00    +0.000 C 
BRANCH  30  31
ATOM     31  C   UNL     1      -6.915  11.857  17.989  0.00  0.00    +0.000 C 
BRANCH  31  33
ATOM     32  C   UNL     1      -7.291  11.160  20.371  0.00  0.00    +0.000 C 
ATOM     33  C   UNL     1      -6.793  10.722  19.004  0.00  0.00    +0.000 C 
ENDBRANCH  31  33
ENDBRANCH  30  31
ENDBRANCH  29  30
ENDBRANCH  28  29
ENDBRANCH  27  28
ENDBRANCH  26  27
ENDBRANCH  25  26
ENDBRANCH  24  25
ENDBRANCH  23  24
ENDBRANCH  22  23
ENDBRANCH  21  22
ENDBRANCH   1  21
TORSDOF 14
ENDMDL
MODEL 2
REMARK VINA RESULT:      -7.1      1.993      4.075
REMARK  Name = 
REMARK  16 active torsions:
REMARK  status: ('A' for Active; 'I' for Inactive)
REMARK    1  A    between atoms: C_1  and  C_2
REMARK    2  A    between atoms: C_2  and  C_3
REMARK    3  A    between atoms: C_3  and  C_4
REMARK    4  A    between atoms: C_4  and  C_5
REMARK    5  A    between atoms: C_5  and  C_6
REMARK    6  A    between atoms: C_6  and  C_7
REMARK    7  A    between atoms: C_7  and  C_8
REMARK    8  A    between atoms: C_8  and  C_9
REMARK    9  A    between atoms: C_9  and  C_10
REMARK   10  A    between atoms: C_10  and  C_11
REMARK   11  A    between atoms: C_11  and  C_12
REMARK   12  A    between atoms: C_12  and  O_13
REMARK   13  A    between atoms: O_13  and  C_14
REMARK   14  A    between atoms: C_17  and  C_18
REMARK   15  A    between atoms: C_19  and  C_20
REMARK   16  A    between atoms: N_24  and  C_25
REMARK                            x       y       z     vdW  Elec       q    Type
REMARK                         _______ _______ _______ _____ _____    ______ ____
ROOT
ATOM      1  C   UNL     1       1.679   8.323  20.269  0.00  0.00    +0.000 A 
ATOM      2  C   UNL     1       1.776   8.532  18.898  0.00  0.00    +0.000 A 
ATOM      3  C   UNL     1       2.340   7.564  18.041  0.00  0.00    +0.000 A 
ATOM      4  C   UNL     1       2.805   6.313  18.500  0.00  0.00    +0.000 A 
ATOM      5  C   UNL     1       2.622   6.095  19.888  0.00  0.00    +0.000 A 
ATOM      6  C   UNL     1       2.075   7.084  20.762  0.00  0.00    +0.000 A 
ENDROOT
BRANCH   4   7
ATOM      7  C   UNL     1       3.826   5.524  17.746  0.00  0.00    +0.000 A 
ATOM      8  C   UNL     1       4.830   6.201  17.129  0.00  0.00    +0.000 A 
ATOM      9  C   UNL     1       5.083   7.672  17.055  0.00  0.00    +0.000 C 
ATOM     10  N   UNL     1       5.633   5.321  16.461  0.00  0.00    +0.000 N 
ATOM     11  C   UNL     1       5.106   3.988  16.590  0.00  0.00    +0.000 A 
ATOM     12  O   UNL     1       5.554   3.034  16.022  0.00  0.00    +0.000 OA
ATOM     13  N   UNL     1       3.967   4.130  17.401  0.00  0.00    +0.000 N 
ATOM     14  H   UNL     1       6.406   5.549  15.874  0.00  0.00    +0.000 HD
BRANCH  13  15
ATOM     15  C   UNL     1       2.856   3.089  17.449  0.00  0.00    +0.000 C 
ATOM     16  C   UNL     1       3.322   1.985  18.372  0.00  0.00    +0.000 C 
ATOM     17  C   UNL     1       3.306   2.532  19.803  0.00  0.00    +0.000 C 
ATOM     18  C   UNL     1       1.910   2.299  20.320  0.00  0.00    +0.000 C 
ATOM     19  C   UNL     1       0.949   3.124  19.458  0.00  0.00    +0.000 C 
ATOM     20  C   UNL     1       1.340   3.296  17.937  0.00  0.00    +0.000 C 
ENDBRANCH  13  15
ENDBRANCH   4   7
BRANCH   1  21
ATOM     21  O   UNL     1       1.305   9.433  20.975  0.00  0.00    +0.000 OA
BRANCH  21  22
ATOM     22  C   UNL     1       0.999   9.337  22.370  0.00  0.00    +0.000 C 
BRANCH  22  23
ATOM     23  C   UNL     1      -0.541   9.341  22.518  0.00  0.00    +0.000 C 
BRANCH  23  24
ATOM     24  C   UNL     1      -1.084  10.623  23.162  0.00  0.00    +0.000 C 
BRANCH  24  25
ATOM     25  C   UNL     1      -0.694  11.885  22.376  0.00  0.00    +0.000 C 
BRANCH  25  26
ATOM     26  C   UNL     1      -1.745  12.227  21.315  0.00  0.00    +0.000 C 
BRANCH  26  27
ATOM     27  C   UNL     1      -1.101  12.693  20.009  0.00  0.00    +0.000 C 
BRANCH  27  28
ATOM     28  C   UNL     1      -0.500  11.515  19.243  0.00  0.00    +0.000 C 
BRANCH  28  29
ATOM     29  C   UNL     1      -1.333  11.179  18.009  0.00  0.00    +0.000 C 
BRANCH  29  30
ATOM     30  C   UNL     1      -2.385  10.118  18.330  0.00  0.00    +0.000 C 
BRANCH  30  31
ATOM     31  C   UNL     1      -3.380   9.975  17.180  0.00  0.00    +0.000 C 
BRANCH  31  33
ATOM     32  C   UNL     1      -3.006  10.099  14.701  0.00  0.00    +0.000 C 
ATOM     33  C   UNL     1      -3.001  10.875  16.007  0.00  0.00    +0.000 C 
ENDBRANCH  31  33
ENDBRANCH  30  31
ENDBRANCH  29  30
ENDBRANCH  28  29
ENDBRANCH  27  28
ENDBRANCH  26  27
ENDBRANCH  25  26
ENDBRANCH  24  25
ENDBRANCH  23  24
ENDBRANCH  22  23
ENDBRANCH  21  22
ENDBRANCH   1  21
TORSDOF 14
ENDMDL
MODEL 3
REMARK VINA RESULT:      -7.0      5.839      9.249
REMARK  Name = 
REMARK  16 active torsions:
REMARK  status: ('A' for Active; 'I' for Inactive)
REMARK    1  A    between atoms: C_1  and  C_2
REMARK    2  A    between atoms: C_2  and  C_3
REMARK    3  A    between atoms: C_3  and  C_4
REMARK    4  A    between atoms: C_4  and  C_5
REMARK    5  A    between atoms: C_5  and  C_6
REMARK    6  A    between atoms: C_6  and  C_7
REMARK    7  A    between atoms: C_7  and  C_8
REMARK    8  A    between atoms: C_8  and  C_9
REMARK    9  A    between atoms: C_9  and  C_10
REMARK   10  A    between atoms: C_10  and  C_11
REMARK   11  A    between atoms: C_11  and  C_12
REMARK   12  A    between atoms: C_12  and  O_13
REMARK   13  A    between atoms: O_13  and  C_14
REMARK   14  A    between atoms: C_17  and  C_18
REMARK   15  A    between atoms: C_19  and  C_20
REMARK   16  A    between atoms: N_24  and  C_25
REMARK                            x       y       z     vdW  Elec       q    Type
REMARK                         _______ _______ _______ _____ _____    ______ ____
ROOT
ATOM      1  C   UNL     1       7.660   7.647  17.908  0.00  0.00    +0.000 A 
ATOM      2  C   UNL     1       6.383   7.651  17.357  0.00  0.00    +0.000 A 
ATOM      3  C   UNL     1       5.493   6.575  17.549  0.00  0.00    +0.000 A 
ATOM      4  C   UNL     1       5.812   5.446  18.335  0.00  0.00    +0.000 A 
ATOM      5  C   UNL     1       7.088   5.505  18.949  0.00  0.00    +0.000 A 
ATOM      6  C   UNL     1       8.002   6.582  18.735  0.00  0.00    +0.000 A 
ENDROOT
BRANCH   4   7
ATOM      7  C   UNL     1       5.133   4.130  18.141  0.00  0.00    +0.000 A 
ATOM      8  C   UNL     1       5.083   3.615  16.884  0.00  0.00    +0.000 A 
ATOM      9  C   UNL     1       5.597   4.181  15.600  0.00  0.00    +0.000 C 
ATOM     10  N   UNL     1       4.391   2.438  16.899  0.00  0.00    +0.000 N 
ATOM     11  C   UNL     1       3.903   2.178  18.227  0.00  0.00    +0.000 A 
ATOM     12  O   UNL     1       3.180   1.265  18.507  0.00  0.00    +0.000 OA
ATOM     13  N   UNL     1       4.375   3.252  19.000  0.00  0.00    +0.000 N 
ATOM     14  H   UNL     1       4.151   1.879  16.109  0.00  0.00    +0.000 HD
BRANCH  13  15
ATOM     15  C   UNL     1       3.759   3.637  20.338  0.00  0.00    +0.000 C 
ATOM     16  C   UNL     1       2.933   4.884  20.103  0.00  0.00    +0.000 C 
ATOM     17  C   UNL     1       1.699   4.482  19.290  0.00  0.00    +0.000 C 
ATOM     18  C   UNL     1       0.662   4.053  20.295  0.00  0.00    +0.000 C 
ATOM     19  C   UNL     1       1.203   2.819  21.025  0.00  0.00    +0.000 C 
ATOM     20  C   UNL     1       2.766   2.762  21.248  0.00  0.00    +0.000 C 
ENDBRANCH  13  15
ENDBRANCH   4   7
BRANCH   1  21
ATOM     21  O   UNL     1       8.463   8.658  17.458  0.00  0.00    +0.000 OA
BRANCH  21  22
ATOM     22  C   UNL     1       8.221  10.010  17.859  0.00  0.00    +0.000 C 
BRANCH  22  23
ATOM     23  C   UNL     1       9.458  10.500  18.648  0.00  0.00    +0.000 C 
BRANCH  23  24
ATOM     24  C   UNL     1      10.442  11.306  17.793  0.00  0.00    +0.000 C 
BRANCH  24  25
ATOM     25  C   UNL     1      11.040  12.501  18.553  0.00  0.00    +0.000 C 
BRANCH  25  26
ATOM     26  C   UNL     1      11.203  13.718  17.637  0.00  0.00    +0.000 C 
BRANCH  26  27
ATOM     27  C   UNL     1      10.461  14.940  18.180  0.00  0.00    +0.000 C 
BRANCH  27  28
ATOM     28  C   UNL     1       8.984  14.625  18.414  0.00  0.00    +0.000 C 
BRANCH  28  29
ATOM     29  C   UNL     1       8.472  15.294  19.687  0.00  0.00    +0.000 C 
BRANCH  29  30
ATOM     30  C   UNL     1       8.072  14.253  20.731  0.00  0.00    +0.000 C 
BRANCH  30  31
ATOM     31  C   UNL     1       9.257  13.898  21.626  0.00  0.00    +0.000 C 
BRANCH  31  33
ATOM     32  C   UNL     1       8.269  11.836  22.662  0.00  0.00    +0.000 C 
ATOM     33  C   UNL     1       9.388  12.386  21.795  0.00  0.00    +0.000 C 
ENDBRANCH  31  33
ENDBRANCH  30  31
ENDBRANCH  29  30
ENDBRANCH  28  29
ENDBRANCH  27  28
ENDBRANCH  26  27
ENDBRANCH  25  26
ENDBRANCH  24  25
ENDBRANCH  23  24
ENDBRANCH  22  23
ENDBRANCH  21  22
ENDBRANCH   1  21
TORSDOF 14
ENDMDL
MODEL 4
REMARK VINA RESULT:      -7.0      4.218     10.473
REMARK  Name = 
REMARK  16 active torsions:
REMARK  status: ('A' for Active; 'I' for Inactive)
REMARK    1  A    between atoms: C_1  and  C_2
REMARK    2  A    between atoms: C_2  and  C_3
REMARK    3  A    between atoms: C_3  and  C_4
REMARK    4  A    between atoms: C_4  and  C_5
REMARK    5  A    between atoms: C_5  and  C_6
REMARK    6  A    between atoms: C_6  and  C_7
REMARK    7  A    between atoms: C_7  and  C_8
REMARK    8  A    between atoms: C_8  and  C_9
REMARK    9  A    between atoms: C_9  and  C_10
REMARK   10  A    between atoms: C_10  and  C_11
REMARK   11  A    between atoms: C_11  and  C_12
REMARK   12  A    between atoms: C_12  and  O_13
REMARK   13  A    between atoms: O_13  and  C_14
REMARK   14  A    between atoms: C_17  and  C_18
REMARK   15  A    between atoms: C_19  and  C_20
REMARK   16  A    between atoms: N_24  and  C_25
REMARK                            x       y       z     vdW  Elec       q    Type
REMARK                         _______ _______ _______ _____ _____    ______ ____
ROOT
ATOM      1  C   UNL     1       0.460   9.886  19.462  0.00  0.00    +0.000 A 
ATOM      2  C   UNL     1       0.374  10.356  20.768  0.00  0.00    +0.000 A 
ATOM      3  C   UNL     1      -0.442  11.457  21.104  0.00  0.00    +0.000 A 
ATOM      4  C   UNL     1      -1.250  12.128  20.161  0.00  0.00    +0.000 A 
ATOM      5  C   UNL     1      -1.203  11.578  18.856  0.00  0.00    +0.000 A 
ATOM      6  C   UNL     1      -0.358  10.480  18.508  0.00  0.00    +0.000 A 
ENDROOT
BRANCH   4   7
ATOM      7  C   UNL     1      -1.696  13.539  20.364  0.00  0.00    +0.000 A 
ATOM      8  C   UNL     1      -3.011  13.763  20.628  0.00  0.00    +0.000 A 
ATOM      9  C   UNL     1      -4.142  12.792  20.729  0.00  0.00    +0.000 C 
ATOM     10  N   UNL     1      -3.233  15.106  20.739  0.00  0.00    +0.000 N 
ATOM     11  C   UNL     1      -2.013  15.824  20.481  0.00  0.00    +0.000 A 
ATOM     12  O   UNL     1      -1.940  17.017  20.414  0.00  0.00    +0.000 OA
ATOM     13  N   UNL     1      -1.053  14.825  20.245  0.00  0.00    +0.000 N 
ATOM     14  H   UNL     1      -4.114  15.554  20.868  0.00  0.00    +0.000 HD
BRANCH  13  15
ATOM     15  C   UNL     1       0.253  15.097  19.510  0.00  0.00    +0.000 C 
ATOM     16  C   UNL     1       1.234  15.631  20.531  0.00  0.00    +0.000 C 
ATOM     17  C   UNL     1       1.625  14.474  21.456  0.00  0.00    +0.000 C 
ATOM     18  C   UNL     1       2.784  13.783  20.787  0.00  0.00    +0.000 C 
ATOM     19  C   UNL     1       2.283  13.212  19.456  0.00  0.00    +0.000 C 
ATOM     20  C   UNL     1       1.165  14.043  18.711  0.00  0.00    +0.000 C 
ENDBRANCH  13  15
ENDBRANCH   4   7
BRANCH   1  21
ATOM     21  O   UNL     1       1.445   8.957  19.271  0.00  0.00    +0.000 OA
BRANCH  21  22
ATOM     22  C   UNL     1       1.925   8.668  17.954  0.00  0.00    +0.000 C 
BRANCH  22  23
ATOM     23  C   UNL     1       2.860   7.440  18.049  0.00  0.00    +0.000 C 
BRANCH  23  24
ATOM     24  C   UNL     1       2.651   6.616  19.325  0.00  0.00    +0.000 C 
BRANCH  24  25
ATOM     25  C   UNL     1       2.169   5.187  19.029  0.00  0.00    +0.000 C 
BRANCH  25  26
ATOM     26  C   UNL     1       2.722   4.678  17.692  0.00  0.00    +0.000 C 
BRANCH  26  27
ATOM     27  C   UNL     1       3.873   3.692  17.893  0.00  0.00    +0.000 C 
BRANCH  27  28
ATOM     28  C   UNL     1       5.077   4.073  17.033  0.00  0.00    +0.000 C 
BRANCH  28  29
ATOM     29  C   UNL     1       5.615   5.449  17.417  0.00  0.00    +0.000 C 
BRANCH  29  30
ATOM     30  C   UNL     1       6.393   5.386  18.731  0.00  0.00    +0.000 C 
BRANCH  30  31
ATOM     31  C   UNL     1       7.674   6.212  18.643  0.00  0.00    +0.000 C 
BRANCH  31  33
ATOM     32  C   UNL     1       7.993   8.575  17.857  0.00  0.00    +0.000 C 
ATOM     33  C   UNL     1       7.641   7.156  17.443  0.00  0.00    +0.000 C 
ENDBRANCH  31  33
ENDBRANCH  30  31
ENDBRANCH  29  30
ENDBRANCH  28  29
ENDBRANCH  27  28
ENDBRANCH  26  27
ENDBRANCH  25  26
ENDBRANCH  24  25
ENDBRANCH  23  24
ENDBRANCH  22  23
ENDBRANCH  21  22
ENDBRANCH   1  21
TORSDOF 14
ENDMDL
MODEL 5
REMARK VINA RESULT:      -6.9      5.835      9.293
REMARK  Name = 
REMARK  16 active torsions:
REMARK  status: ('A' for Active; 'I' for Inactive)
REMARK    1  A    between atoms: C_1  and  C_2
REMARK    2  A    between atoms: C_2  and  C_3
REMARK    3  A    between atoms: C_3  and  C_4
REMARK    4  A    between atoms: C_4  and  C_5
REMARK    5  A    between atoms: C_5  and  C_6
REMARK    6  A    between atoms: C_6  and  C_7
REMARK    7  A    between atoms: C_7  and  C_8
REMARK    8  A    between atoms: C_8  and  C_9
REMARK    9  A    between atoms: C_9  and  C_10
REMARK   10  A    between atoms: C_10  and  C_11
REMARK   11  A    between atoms: C_11  and  C_12
REMARK   12  A    between atoms: C_12  and  O_13
REMARK   13  A    between atoms: O_13  and  C_14
REMARK   14  A    between atoms: C_17  and  C_18
REMARK   15  A    between atoms: C_19  and  C_20
REMARK   16  A    between atoms: N_24  and  C_25
REMARK                            x       y       z     vdW  Elec       q    Type
REMARK                         _______ _______ _______ _____ _____    ______ ____
ROOT
ATOM      1  C   UNL     1       7.554   7.643  17.774  0.00  0.00    +0.000 A 
ATOM      2  C   UNL     1       6.246   7.628  17.302  0.00  0.00    +0.000 A 
ATOM      3  C   UNL     1       5.386   6.537  17.546  0.00  0.00    +0.000 A 
ATOM      4  C   UNL     1       5.771   5.413  18.310  0.00  0.00    +0.000 A 
ATOM      5  C   UNL     1       7.081   5.491  18.844  0.00  0.00    +0.000 A 
ATOM      6  C   UNL     1       7.963   6.583  18.576  0.00  0.00    +0.000 A 
ENDROOT
BRANCH   4   7
ATOM      7  C   UNL     1       5.102   4.086  18.156  0.00  0.00    +0.000 A 
ATOM      8  C   UNL     1       5.047   3.538  16.913  0.00  0.00    +0.000 A 
ATOM      9  C   UNL     1       5.546   4.075  15.611  0.00  0.00    +0.000 C 
ATOM     10  N   UNL     1       4.366   2.356  16.964  0.00  0.00    +0.000 N 
ATOM     11  C   UNL     1       3.890   2.126  18.303  0.00  0.00    +0.000 A 
ATOM     12  O   UNL     1       3.177   1.215  18.612  0.00  0.00    +0.000 OA
ATOM     13  N   UNL     1       4.359   3.224  19.043  0.00  0.00    +0.000 N 
ATOM     14  H   UNL     1       4.124   1.775  16.191  0.00  0.00    +0.000 HD
BRANCH  13  15
ATOM     15  C   UNL     1       3.749   3.639  20.375  0.00  0.00    +0.000 C 
ATOM     16  C   UNL     1       2.926   4.883  20.118  0.00  0.00    +0.000 C 
ATOM     17  C   UNL     1       1.687   4.467  19.319  0.00  0.00    +0.000 C 
ATOM     18  C   UNL     1       0.654   4.062  20.337  0.00  0.00    +0.000 C 
ATOM     19  C   UNL     1       1.194   2.842  21.091  0.00  0.00    +0.000 C 
ATOM     20  C   UNL     1       2.758   2.786  21.308  0.00  0.00    +0.000 C 
ENDBRANCH  13  15
ENDBRANCH   4   7
BRANCH   1  21
ATOM     21  O   UNL     1       8.311   8.668  17.277  0.00  0.00    +0.000 OA
BRANCH  21  22
ATOM     22  C   UNL     1       8.269   9.962  17.885  0.00  0.00    +0.000 C 
BRANCH  22  23
ATOM     23  C   UNL     1       9.239   9.952  19.090  0.00  0.00    +0.000 C 
BRANCH  23  24
ATOM     24  C   UNL     1      10.313  11.043  19.014  0.00  0.00    +0.000 C 
BRANCH  24  25
ATOM     25  C   UNL     1       9.804  12.321  18.328  0.00  0.00    +0.000 C 
BRANCH  25  26
ATOM     26  C   UNL     1      10.459  13.572  18.925  0.00  0.00    +0.000 C 
BRANCH  26  27
ATOM     27  C   UNL     1      10.968  13.322  20.345  0.00  0.00    +0.000 C 
BRANCH  27  28
ATOM     28  C   UNL     1      10.023  13.927  21.381  0.00  0.00    +0.000 C 
BRANCH  28  29
ATOM     29  C   UNL     1       9.018  12.892  21.881  0.00  0.00    +0.000 C 
BRANCH  29  30
ATOM     30  C   UNL     1       8.545  13.226  23.294  0.00  0.00    +0.000 C 
BRANCH  30  31
ATOM     31  C   UNL     1       8.214  11.954  24.071  0.00  0.00    +0.000 C 
BRANCH  31  33
ATOM     32  C   UNL     1       7.235  13.598  25.696  0.00  0.00    +0.000 C 
ATOM     33  C   UNL     1       7.938  12.260  25.541  0.00  0.00    +0.000 C 
ENDBRANCH  31  33
ENDBRANCH  30  31
ENDBRANCH  29  30
ENDBRANCH  28  29
ENDBRANCH  27  28
ENDBRANCH  26  27
ENDBRANCH  25  26
ENDBRANCH  24  25
ENDBRANCH  23  24
ENDBRANCH  22  23
ENDBRANCH  21  22
ENDBRANCH   1  21
TORSDOF 14
ENDMDL
MODEL 6
REMARK VINA RESULT:      -6.9      0.820      1.540
REMARK  Name = 
REMARK  16 active torsions:
REMARK  status: ('A' for Active; 'I' for Inactive)
REMARK    1  A    between atoms: C_1  and  C_2
REMARK    2  A    between atoms: C_2  and  C_3
REMARK    3  A    between atoms: C_3  and  C_4
REMARK    4  A    between atoms: C_4  and  C_5
REMARK    5  A    between atoms: C_5  and  C_6
REMARK    6  A    between atoms: C_6  and  C_7
REMARK    7  A    between atoms: C_7  and  C_8
REMARK    8  A    between atoms: C_8  and  C_9
REMARK    9  A    between atoms: C_9  and  C_10
REMARK   10  A    between atoms: C_10  and  C_11
REMARK   11  A    between atoms: C_11  and  C_12
REMARK   12  A    between atoms: C_12  and  O_13
REMARK   13  A    between atoms: O_13  and  C_14
REMARK   14  A    between atoms: C_17  and  C_18
REMARK   15  A    between atoms: C_19  and  C_20
REMARK   16  A    between atoms: N_24  and  C_25
REMARK                            x       y       z     vdW  Elec       q    Type
REMARK                         _______ _______ _______ _____ _____    ______ ____
ROOT
ATOM      1  C   UNL     1       1.694   8.703  19.402  0.00  0.00    +0.000 A 
ATOM      2  C   UNL     1       1.905   7.887  20.508  0.00  0.00    +0.000 A 
ATOM      3  C   UNL     1       2.418   6.580  20.374  0.00  0.00    +0.000 A 
ATOM      4  C   UNL     1       2.788   6.026  19.130  0.00  0.00    +0.000 A 
ATOM      5  C   UNL     1       2.637   6.906  18.030  0.00  0.00    +0.000 A 
ATOM      6  C   UNL     1       2.093   8.221  18.160  0.00  0.00    +0.000 A 
ENDROOT
BRANCH   4   7
ATOM      7  C   UNL     1       2.839   4.549  18.906  0.00  0.00    +0.000 A 
ATOM      8  C   UNL     1       1.825   3.792  19.404  0.00  0.00    +0.000 A 
ATOM      9  C   UNL     1       0.626   4.204  20.193  0.00  0.00    +0.000 C 
ATOM     10  N   UNL     1       2.067   2.474  19.140  0.00  0.00    +0.000 N 
ATOM     11  C   UNL     1       3.339   2.336  18.479  0.00  0.00    +0.000 A 
ATOM     12  O   UNL     1       3.847   1.282  18.221  0.00  0.00    +0.000 OA
ATOM     13  N   UNL     1       3.815   3.650  18.340  0.00  0.00    +0.000 N 
ATOM     14  H   UNL     1       1.521   1.697  19.442  0.00  0.00    +0.000 HD
BRANCH  13  15
ATOM     15  C   UNL     1       5.285   3.972  18.106  0.00  0.00    +0.000 C 
ATOM     16  C   UNL     1       5.534   3.854  16.618  0.00  0.00    +0.000 C 
ATOM     17  C   UNL     1       4.838   5.033  15.931  0.00  0.00    +0.000 C 
ATOM     18  C   UNL     1       5.829   6.167  15.951  0.00  0.00    +0.000 C 
ATOM     19  C   UNL     1       6.097   6.529  17.415  0.00  0.00    +0.000 C 
ATOM     20  C   UNL     1       6.056   5.338  18.453  0.00  0.00    +0.000 C 
ENDBRANCH  13  15
ENDBRANCH   4   7
BRANCH   1  21
ATOM     21  O   UNL     1       1.002   9.849  19.681  0.00  0.00    +0.000 OA
BRANCH  21  22
ATOM     22  C   UNL     1      -0.401   9.801  19.956  0.00  0.00    +0.000 C 
BRANCH  22  23
ATOM     23  C   UNL     1      -1.150  10.259  18.682  0.00  0.00    +0.000 C 
BRANCH  23  24
ATOM     24  C   UNL     1      -2.122  11.418  18.934  0.00  0.00    +0.000 C 
BRANCH  24  25
ATOM     25  C   UNL     1      -3.037  11.689  17.729  0.00  0.00    +0.000 C 
BRANCH  25  26
ATOM     26  C   UNL     1      -4.493  11.326  18.041  0.00  0.00    +0.000 C 
BRANCH  26  27
ATOM     27  C   UNL     1      -5.443  11.793  16.937  0.00  0.00    +0.000 C 
BRANCH  27  28
ATOM     28  C   UNL     1      -6.659  12.504  17.526  0.00  0.00    +0.000 C 
BRANCH  28  29
ATOM     29  C   UNL     1      -6.347  13.080  18.905  0.00  0.00    +0.000 C 
BRANCH  29  30
ATOM     30  C   UNL     1      -7.432  12.705  19.914  0.00  0.00    +0.000 C 
BRANCH  30  31
ATOM     31  C   UNL     1      -6.956  11.581  20.830  0.00  0.00    +0.000 C 
BRANCH  31  33
ATOM     32  C   UNL     1      -7.207   9.211  20.041  0.00  0.00    +0.000 C 
ATOM     33  C   UNL     1      -7.884  10.372  20.749  0.00  0.00    +0.000 C 
ENDBRANCH  31  33
ENDBRANCH  30  31
ENDBRANCH  29  30
ENDBRANCH  28  29
ENDBRANCH  27  28
ENDBRANCH  26  27
ENDBRANCH  25  26
ENDBRANCH  24  25
ENDBRANCH  23  24
ENDBRANCH  22  23
ENDBRANCH  21  22
ENDBRANCH   1  21
TORSDOF 14
ENDMDL
MODEL 7
REMARK VINA RESULT:      -6.9      1.635      2.569
REMARK  Name = 
REMARK  16 active torsions:
REMARK  status: ('A' for Active; 'I' for Inactive)
REMARK    1  A    between atoms: C_1  and  C_2
REMARK    2  A    between atoms: C_2  and  C_3
REMARK    3  A    between atoms: C_3  and  C_4
REMARK    4  A    between atoms: C_4  and  C_5
REMARK    5  A    between atoms: C_5  and  C_6
REMARK    6  A    between atoms: C_6  and  C_7
REMARK    7  A    between atoms: C_7  and  C_8
REMARK    8  A    between atoms: C_8  and  C_9
REMARK    9  A    between atoms: C_9  and  C_10
REMARK   10  A    between atoms: C_10  and  C_11
REMARK   11  A    between atoms: C_11  and  C_12
REMARK   12  A    between atoms: C_12  and  O_13
REMARK   13  A    between atoms: O_13  and  C_14
REMARK   14  A    between atoms: C_17  and  C_18
REMARK   15  A    between atoms: C_19  and  C_20
REMARK   16  A    between atoms: N_24  and  C_25
REMARK                            x       y       z     vdW  Elec       q    Type
REMARK                         _______ _______ _______ _____ _____    ______ ____
ROOT
ATOM      1  C   UNL     1       1.501   8.805  19.167  0.00  0.00    +0.000 A 
ATOM      2  C   UNL     1       1.654   8.048  20.324  0.00  0.00    +0.000 A 
ATOM      3  C   UNL     1       2.221   6.757  20.292  0.00  0.00    +0.000 A 
ATOM      4  C   UNL     1       2.706   6.162  19.106  0.00  0.00    +0.000 A 
ATOM      5  C   UNL     1       2.609   6.987  17.958  0.00  0.00    +0.000 A 
ATOM      6  C   UNL     1       2.011   8.284  17.983  0.00  0.00    +0.000 A 
ENDROOT
BRANCH   4   7
ATOM      7  C   UNL     1       2.825   4.680  18.957  0.00  0.00    +0.000 A 
ATOM      8  C   UNL     1       1.839   3.903  19.480  0.00  0.00    +0.000 A 
ATOM      9  C   UNL     1       0.612   4.300  20.234  0.00  0.00    +0.000 C 
ATOM     10  N   UNL     1       2.143   2.587  19.286  0.00  0.00    +0.000 N 
ATOM     11  C   UNL     1       3.428   2.473  18.647  0.00  0.00    +0.000 A 
ATOM     12  O   UNL     1       3.986   1.432  18.448  0.00  0.00    +0.000 OA
ATOM     13  N   UNL     1       3.848   3.799  18.448  0.00  0.00    +0.000 N 
ATOM     14  H   UNL     1       1.628   1.802  19.620  0.00  0.00    +0.000 HD
BRANCH  13  15
ATOM     15  C   UNL     1       5.305   4.175  18.215  0.00  0.00    +0.000 C 
ATOM     16  C   UNL     1       5.603   3.915  16.755  0.00  0.00    +0.000 C 
ATOM     17  C   UNL     1       4.866   4.975  15.930  0.00  0.00    +0.000 C 
ATOM     18  C   UNL     1       5.796   6.157  15.850  0.00  0.00    +0.000 C 
ATOM     19  C   UNL     1       6.002   6.686  17.274  0.00  0.00    +0.000 C 
ATOM     20  C   UNL     1       5.993   5.611  18.431  0.00  0.00    +0.000 C 
ENDBRANCH  13  15
ENDBRANCH   4   7
BRANCH   1  21
ATOM     21  O   UNL     1       0.750   9.935  19.338  0.00  0.00    +0.000 OA
BRANCH  21  22
ATOM     22  C   UNL     1       1.381  11.194  19.593  0.00  0.00    +0.000 C 
BRANCH  22  23
ATOM     23  C   UNL     1       0.363  12.093  20.334  0.00  0.00    +0.000 C 
BRANCH  23  24
ATOM     24  C   UNL     1      -1.096  11.710  20.059  0.00  0.00    +0.000 C 
BRANCH  24  25
ATOM     25  C   UNL     1      -1.664  12.412  18.815  0.00  0.00    +0.000 C 
BRANCH  25  26
ATOM     26  C   UNL     1      -2.782  11.587  18.171  0.00  0.00    +0.000 C 
BRANCH  26  27
ATOM     27  C   UNL     1      -2.419  10.103  18.093  0.00  0.00    +0.000 C 
BRANCH  27  28
ATOM     28  C   UNL     1      -1.934   9.731  16.693  0.00  0.00    +0.000 C 
BRANCH  28  29
ATOM     29  C   UNL     1      -2.694  10.507  15.621  0.00  0.00    +0.000 C 
BRANCH  29  30
ATOM     30  C   UNL     1      -3.258   9.565  14.558  0.00  0.00    +0.000 C 
BRANCH  30  31
ATOM     31  C   UNL     1      -4.270  10.289  13.673  0.00  0.00    +0.000 C 
BRANCH  31  33
ATOM     32  C   UNL     1      -5.578   9.207  11.824  0.00  0.00    +0.000 C 
ATOM     33  C   UNL     1      -4.227   9.763  12.241  0.00  0.00    +0.000 C 
ENDBRANCH  31  33
ENDBRANCH  30  31
ENDBRANCH  29  30
ENDBRANCH  28  29
ENDBRANCH  27  28
ENDBRANCH  26  27
ENDBRANCH  25  26
ENDBRANCH  24  25
ENDBRANCH  23  24
ENDBRANCH  22  23
ENDBRANCH  21  22
ENDBRANCH   1  21
TORSDOF 14
ENDMDL
MODEL 8
REMARK VINA RESULT:      -6.9      1.224      3.195
REMARK  Name = 
REMARK  16 active torsions:
REMARK  status: ('A' for Active; 'I' for Inactive)
REMARK    1  A    between atoms: C_1  and  C_2
REMARK    2  A    between atoms: C_2  and  C_3
REMARK    3  A    between atoms: C_3  and  C_4
REMARK    4  A    between atoms: C_4  and  C_5
REMARK    5  A    between atoms: C_5  and  C_6
REMARK    6  A    between atoms: C_6  and  C_7
REMARK    7  A    between atoms: C_7  and  C_8
REMARK    8  A    between atoms: C_8  and  C_9
REMARK    9  A    between atoms: C_9  and  C_10
REMARK   10  A    between atoms: C_10  and  C_11
REMARK   11  A    between atoms: C_11  and  C_12
REMARK   12  A    between atoms: C_12  and  O_13
REMARK   13  A    between atoms: O_13  and  C_14
REMARK   14  A    between atoms: C_17  and  C_18
REMARK   15  A    between atoms: C_19  and  C_20
REMARK   16  A    between atoms: N_24  and  C_25
REMARK                            x       y       z     vdW  Elec       q    Type
REMARK                         _______ _______ _______ _____ _____    ______ ____
ROOT
ATOM      1  C   UNL     1       1.423   8.932  19.641  0.00  0.00    +0.000 A 
ATOM      2  C   UNL     1       1.506   8.830  18.256  0.00  0.00    +0.000 A 
ATOM      3  C   UNL     1       2.073   7.699  17.632  0.00  0.00    +0.000 A 
ATOM      4  C   UNL     1       2.555   6.586  18.354  0.00  0.00    +0.000 A 
ATOM      5  C   UNL     1       2.385   6.682  19.758  0.00  0.00    +0.000 A 
ATOM      6  C   UNL     1       1.835   7.838  20.393  0.00  0.00    +0.000 A 
ENDROOT
BRANCH   4   7
ATOM      7  C   UNL     1       3.577   5.656  17.785  0.00  0.00    +0.000 A 
ATOM      8  C   UNL     1       4.633   6.197  17.121  0.00  0.00    +0.000 A 
ATOM      9  C   UNL     1       4.946   7.628  16.831  0.00  0.00    +0.000 C 
ATOM     10  N   UNL     1       5.430   5.198  16.639  0.00  0.00    +0.000 N 
ATOM     11  C   UNL     1       4.847   3.919  16.949  0.00  0.00    +0.000 A 
ATOM     12  O   UNL     1       5.283   2.873  16.560  0.00  0.00    +0.000 OA
ATOM     13  N   UNL     1       3.680   4.222  17.669  0.00  0.00    +0.000 N 
ATOM     14  H   UNL     1       6.237   5.306  16.064  0.00  0.00    +0.000 HD
BRANCH  13  15
ATOM     15  C   UNL     1       2.528   3.237  17.823  0.00  0.00    +0.000 C 
ATOM     16  C   UNL     1       3.004   2.139  18.749  0.00  0.00    +0.000 C 
ATOM     17  C   UNL     1       3.109   2.727  20.160  0.00  0.00    +0.000 C 
ATOM     18  C   UNL     1       1.742   2.575  20.774  0.00  0.00    +0.000 C 
ATOM     19  C   UNL     1       0.764   3.419  19.951  0.00  0.00    +0.000 C 
ATOM     20  C   UNL     1       1.059   3.529  18.403  0.00  0.00    +0.000 C 
ENDBRANCH  13  15
ENDBRANCH   4   7
BRANCH   1  21
ATOM     21  O   UNL     1       1.043  10.168  20.085  0.00  0.00    +0.000 OA
BRANCH  21  22
ATOM     22  C   UNL     1       0.721  10.377  21.463  0.00  0.00    +0.000 C 
BRANCH  22  23
ATOM     23  C   UNL     1      -0.260  11.570  21.545  0.00  0.00    +0.000 C 
BRANCH  23  24
ATOM     24  C   UNL     1      -1.453  11.440  20.591  0.00  0.00    +0.000 C 
BRANCH  24  25
ATOM     25  C   UNL     1      -1.464  12.533  19.511  0.00  0.00    +0.000 C 
BRANCH  25  26
ATOM     26  C   UNL     1      -1.092  11.963  18.138  0.00  0.00    +0.000 C 
BRANCH  26  27
ATOM     27  C   UNL     1      -1.951  10.751  17.775  0.00  0.00    +0.000 C 
BRANCH  27  28
ATOM     28  C   UNL     1      -2.649  10.957  16.432  0.00  0.00    +0.000 C 
BRANCH  28  29
ATOM     29  C   UNL     1      -4.120  11.317  16.623  0.00  0.00    +0.000 C 
BRANCH  29  30
ATOM     30  C   UNL     1      -4.646  10.780  17.954  0.00  0.00    +0.000 C 
BRANCH  30  31
ATOM     31  C   UNL     1      -6.121  11.130  18.135  0.00  0.00    +0.000 C 
BRANCH  31  33
ATOM     32  C   UNL     1      -7.407  10.957  20.284  0.00  0.00    +0.000 C 
ATOM     33  C   UNL     1      -6.796  10.185  19.127  0.00  0.00    +0.000 C 
ENDBRANCH  31  33
ENDBRANCH  30  31
ENDBRANCH  29  30
ENDBRANCH  28  29
ENDBRANCH  27  28
ENDBRANCH  26  27
ENDBRANCH  25  26
ENDBRANCH  24  25
ENDBRANCH  23  24
ENDBRANCH  22  23
ENDBRANCH  21  22
ENDBRANCH   1  21
TORSDOF 14
ENDMDL
MODEL 9
REMARK VINA RESULT:      -6.8      1.803      2.910
REMARK  Name = 
REMARK  16 active torsions:
REMARK  status: ('A' for Active; 'I' for Inactive)
REMARK    1  A    between atoms: C_1  and  C_2
REMARK    2  A    between atoms: C_2  and  C_3
REMARK    3  A    between atoms: C_3  and  C_4
REMARK    4  A    between atoms: C_4  and  C_5
REMARK    5  A    between atoms: C_5  and  C_6
REMARK    6  A    between atoms: C_6  and  C_7
REMARK    7  A    between atoms: C_7  and  C_8
REMARK    8  A    between atoms: C_8  and  C_9
REMARK    9  A    between atoms: C_9  and  C_10
REMARK   10  A    between atoms: C_10  and  C_11
REMARK   11  A    between atoms: C_11  and  C_12
REMARK   12  A    between atoms: C_12  and  O_13
REMARK   13  A    between atoms: O_13  and  C_14
REMARK   14  A    between atoms: C_17  and  C_18
REMARK   15  A    between atoms: C_19  and  C_20
REMARK   16  A    between atoms: N_24  and  C_25
REMARK                            x       y       z     vdW  Elec       q    Type
REMARK                         _______ _______ _______ _____ _____    ______ ____
ROOT
ATOM      1  C   UNL     1       0.966   9.573  19.468  0.00  0.00    +0.000 A 
ATOM      2  C   UNL     1       1.245   8.662  20.481  0.00  0.00    +0.000 A 
ATOM      3  C   UNL     1       1.947   7.466  20.225  0.00  0.00    +0.000 A 
ATOM      4  C   UNL     1       2.446   7.128  18.948  0.00  0.00    +0.000 A 
ATOM      5  C   UNL     1       2.216   8.110  17.953  0.00  0.00    +0.000 A 
ATOM      6  C   UNL     1       1.483   9.310  18.204  0.00  0.00    +0.000 A 
ENDROOT
BRANCH   4   7
ATOM      7  C   UNL     1       2.719   5.712  18.556  0.00  0.00    +0.000 A 
ATOM      8  C   UNL     1       2.187   4.722  19.322  0.00  0.00    +0.000 A 
ATOM      9  C   UNL     1       1.358   4.816  20.561  0.00  0.00    +0.000 C 
ATOM     10  N   UNL     1       2.579   3.508  18.836  0.00  0.00    +0.000 N 
ATOM     11  C   UNL     1       3.465   3.694  17.717  0.00  0.00    +0.000 A 
ATOM     12  O   UNL     1       4.038   2.801  17.161  0.00  0.00    +0.000 OA
ATOM     13  N   UNL     1       3.547   5.087  17.553  0.00  0.00    +0.000 N 
ATOM     14  H   UNL     1       2.387   2.616  19.238  0.00  0.00    +0.000 HD
BRANCH  13  15
ATOM     15  C   UNL     1       4.684   5.762  16.798  0.00  0.00    +0.000 C 
ATOM     16  C   UNL     1       5.673   6.255  17.833  0.00  0.00    +0.000 C 
ATOM     17  C   UNL     1       6.372   5.031  18.433  0.00  0.00    +0.000 C 
ATOM     18  C   UNL     1       7.545   4.742  17.533  0.00  0.00    +0.000 C 
ATOM     19  C   UNL     1       6.993   4.375  16.151  0.00  0.00    +0.000 C 
ATOM     20  C   UNL     1       5.664   5.103  15.708  0.00  0.00    +0.000 C 
ENDBRANCH  13  15
ENDBRANCH   4   7
BRANCH   1  21
ATOM     21  O   UNL     1       0.105  10.568  19.837  0.00  0.00    +0.000 OA
BRANCH  21  22
ATOM     22  C   UNL     1      -0.600  11.324  18.847  0.00  0.00    +0.000 C 
BRANCH  22  23
ATOM     23  C   UNL     1      -1.792  10.469  18.358  0.00  0.00    +0.000 C 
BRANCH  23  24
ATOM     24  C   UNL     1      -2.401  10.974  17.044  0.00  0.00    +0.000 C 
BRANCH  24  25
ATOM     25  C   UNL     1      -3.868  10.547  16.874  0.00  0.00    +0.000 C 
BRANCH  25  26
ATOM     26  C   UNL     1      -4.825  11.696  17.208  0.00  0.00    +0.000 C 
BRANCH  26  27
ATOM     27  C   UNL     1      -5.802  11.314  18.320  0.00  0.00    +0.000 C 
BRANCH  27  28
ATOM     28  C   UNL     1      -5.766  12.335  19.456  0.00  0.00    +0.000 C 
BRANCH  28  29
ATOM     29  C   UNL     1      -4.331  12.639  19.878  0.00  0.00    +0.000 C 
BRANCH  29  30
ATOM     30  C   UNL     1      -4.193  12.622  21.400  0.00  0.00    +0.000 C 
BRANCH  30  31
ATOM     31  C   UNL     1      -2.997  13.460  21.845  0.00  0.00    +0.000 C 
BRANCH  31  33
ATOM     32  C   UNL     1      -3.835  12.507  24.011  0.00  0.00    +0.000 C 
ATOM     33  C   UNL     1      -2.706  13.262  23.331  0.00  0.00    +0.000 C 
ENDBRANCH  31  33
ENDBRANCH  30  31
ENDBRANCH  29  30
ENDBRANCH  28  29
ENDBRANCH  27  28
ENDBRANCH  26  27
ENDBRANCH  25  26
ENDBRANCH  24  25
ENDBRANCH  23  24
ENDBRANCH  22  23
ENDBRANCH  21  22
ENDBRANCH   1  21
TORSDOF 14
ENDMDL
