MODEL 1
REMARK VINA RESULT:      -4.9      0.000      0.000
REMARK  Name = 
REMARK  5 active torsions:
REMARK  status: ('A' for Active; 'I' for Inactive)
REMARK    1  A    between atoms: C_1  and  N_2
REMARK    2  A    between atoms: C_3  and  N_4
REMARK    3  A    between atoms: C_9  and  C_10
REMARK    4  A    between atoms: C_10  and  C_11
REMARK    5  A    between atoms: C_11  and  O_12
REMARK                            x       y       z     vdW  Elec       q    Type
REMARK                         _______ _______ _______ _____ _____    ______ ____
ROOT
ATOM      1  C   UNL     1       3.477   2.089  18.246  0.00  0.00    +0.000 C 
ATOM      2  N   UNL     1       3.518   3.400  18.854  0.00  0.00    +0.000 N 
ATOM      3  C   UNL     1       4.428   4.421  18.716  0.00  0.00    +0.000 A 
ATOM      4  C   UNL     1       3.988   5.434  19.532  0.00  0.00    +0.000 A 
ATOM      5  N   UNL     1       2.825   5.077  20.158  0.00  0.00    +0.000 NA
ATOM      6  C   UNL     1       2.551   3.853  19.744  0.00  0.00    +0.000 A 
ENDROOT
BRANCH   3   7
ATOM      7  N   UNL     1       5.589   4.442  17.894  0.00  0.00    +0.000 N 
ATOM      8  O   UNL     1       5.443   4.504  16.668  0.00  0.00    +0.000 OA
ATOM      9  O   UNL     1       6.676   4.401  18.480  0.00  0.00    +0.000 OA
ENDBRANCH   3   7
BRANCH   6  10
ATOM     10  C   UNL     1       1.339   3.057  20.138  0.00  0.00    +0.000 C 
BRANCH  10  11
ATOM     11  C   UNL     1       1.348   2.664  21.617  0.00  0.00    +0.000 C 
BRANCH  11  12
ATOM     12  O   UNL     1       2.678   2.596  22.124  0.00  0.00    +0.000 OA
ATOM     13  H   UNL     1       2.887   1.640  22.166  0.00  0.00    +0.000 HD
ENDBRANCH  11  12
ENDBRANCH  10  11
ENDBRANCH   6  10
TORSDOF 4
ENDMDL
MODEL 2
REMARK VINA RESULT:      -4.9      2.217      3.052
REMARK  Name = 
REMARK  5 active torsions:
REMARK  status: ('A' for Active; 'I' for Inactive)
REMARK    1  A    between atoms: C_1  and  N_2
REMARK    2  A    between atoms: C_3  and  N_4
REMARK    3  A    between atoms: C_9  and  C_10
REMARK    4  A    between atoms: C_10  and  C_11
REMARK    5  A    between atoms: C_11  and  O_12
REMARK                            x       y       z     vdW  Elec       q    Type
REMARK                         _______ _______ _______ _____ _____    ______ ____
ROOT
ATOM      1  C   UNL     1       5.568   5.126  19.437  0.00  0.00    +0.000 C 
ATOM      2  N   UNL     1       5.196   4.627  18.133  0.00  0.00    +0.000 N 
ATOM      3  C   UNL     1       5.918   4.548  16.967  0.00  0.00    +0.000 A 
ATOM      4  C   UNL     1       5.073   4.003  16.032  0.00  0.00    +0.000 A 
ATOM      5  N   UNL     1       3.854   3.728  16.589  0.00  0.00    +0.000 NA
ATOM      6  C   UNL     1       3.938   4.106  17.851  0.00  0.00    +0.000 A 
ENDROOT
BRANCH   3   7
ATOM      7  N   UNL     1       7.271   4.938  16.756  0.00  0.00    +0.000 N 
ATOM      8  O   UNL     1       8.169   4.224  17.214  0.00  0.00    +0.000 OA
ATOM      9  O   UNL     1       7.446   5.981  16.116  0.00  0.00    +0.000 OA
ENDBRANCH   3   7
BRANCH   6  10
ATOM     10  C   UNL     1       2.845   3.961  18.873  0.00  0.00    +0.000 C 
BRANCH  10  11
ATOM     11  C   UNL     1       2.573   2.501  19.239  0.00  0.00    +0.000 C 
BRANCH  11  12
ATOM     12  O   UNL     1       2.318   1.716  18.078  0.00  0.00    +0.000 OA
ATOM     13  H   UNL     1       1.394   1.926  17.825  0.00  0.00    +0.000 HD
ENDBRANCH  11  12
ENDBRANCH  10  11
ENDBRANCH   6  10
TORSDOF 4
ENDMDL
MODEL 3
REMARK VINA RESULT:      -4.9      1.185      1.940
REMARK  Name = 
REMARK  5 active torsions:
REMARK  status: ('A' for Active; 'I' for Inactive)
REMARK    1  A    between atoms: C_1  and  N_2
REMARK    2  A    between atoms: C_3  and  N_4
REMARK    3  A    between atoms: C_9  and  C_10
REMARK    4  A    between atoms: C_10  and  C_11
REMARK    5  A    between atoms: C_11  and  O_12
REMARK                            x       y       z     vdW  Elec       q    Type
REMARK                         _______ _______ _______ _____ _____    ______ ____
ROOT
ATOM      1  C   UNL     1       2.889   6.096  19.881  0.00  0.00    +0.000 C 
ATOM      2  N   UNL     1       3.491   4.813  19.598  0.00  0.00    +0.000 N 
ATOM      3  C   UNL     1       4.766   4.493  19.198  0.00  0.00    +0.000 A 
ATOM      4  C   UNL     1       4.790   3.126  19.064  0.00  0.00    +0.000 A 
ATOM      5  N   UNL     1       3.573   2.590  19.384  0.00  0.00    +0.000 NA
ATOM      6  C   UNL     1       2.800   3.612  19.704  0.00  0.00    +0.000 A 
ENDROOT
BRANCH   3   7
ATOM      7  N   UNL     1       5.854   5.383  18.973  0.00  0.00    +0.000 N 
ATOM      8  O   UNL     1       5.834   6.094  17.962  0.00  0.00    +0.000 OA
ATOM      9  O   UNL     1       6.751   5.379  19.824  0.00  0.00    +0.000 OA
ENDBRANCH   3   7
BRANCH   6  10
ATOM     10  C   UNL     1       1.373   3.506  20.164  0.00  0.00    +0.000 C 
BRANCH  10  11
ATOM     11  C   UNL     1       1.242   2.805  21.518  0.00  0.00    +0.000 C 
BRANCH  11  12
ATOM     12  O   UNL     1       2.500   2.733  22.185  0.00  0.00    +0.000 OA
ATOM     13  H   UNL     1       3.135   2.436  21.501  0.00  0.00    +0.000 HD
ENDBRANCH  11  12
ENDBRANCH  10  11
ENDBRANCH   6  10
TORSDOF 4
ENDMDL
MODEL 4
REMARK VINA RESULT:      -4.9      1.432      4.555
REMARK  Name = 
REMARK  5 active torsions:
REMARK  status: ('A' for Active; 'I' for Inactive)
REMARK    1  A    between atoms: C_1  and  N_2
REMARK    2  A    between atoms: C_3  and  N_4
REMARK    3  A    between atoms: C_9  and  C_10
REMARK    4  A    between atoms: C_10  and  C_11
REMARK    5  A    between atoms: C_11  and  O_12
REMARK                            x       y       z     vdW  Elec       q    Type
REMARK                         _______ _______ _______ _____ _____    ______ ____
ROOT
ATOM      1  C   UNL     1       3.164   5.504  19.730  0.00  0.00    +0.000 C 
ATOM      2  N   UNL     1       3.249   4.143  19.253  0.00  0.00    +0.000 N 
ATOM      3  C   UNL     1       2.824   2.968  19.824  0.00  0.00    +0.000 A 
ATOM      4  C   UNL     1       3.170   1.971  18.945  0.00  0.00    +0.000 A 
ATOM      5  N   UNL     1       3.781   2.497  17.839  0.00  0.00    +0.000 NA
ATOM      6  C   UNL     1       3.823   3.802  18.034  0.00  0.00    +0.000 A 
ENDROOT
BRANCH   3   7
ATOM      7  N   UNL     1       2.154   2.800  21.068  0.00  0.00    +0.000 N 
ATOM      8  O   UNL     1       0.941   3.031  21.121  0.00  0.00    +0.000 OA
ATOM      9  O   UNL     1       2.849   2.426  22.019  0.00  0.00    +0.000 OA
ENDBRANCH   3   7
BRANCH   6  10
ATOM     10  C   UNL     1       4.377   4.805  17.060  0.00  0.00    +0.000 C 
BRANCH  10  11
ATOM     11  C   UNL     1       5.860   5.096  17.296  0.00  0.00    +0.000 C 
BRANCH  11  12
ATOM     12  O   UNL     1       6.478   4.055  18.047  0.00  0.00    +0.000 OA
ATOM     13  H   UNL     1       7.130   3.651  17.437  0.00  0.00    +0.000 HD
ENDBRANCH  11  12
ENDBRANCH  10  11
ENDBRANCH   6  10
TORSDOF 4
ENDMDL
MODEL 5
REMARK VINA RESULT:      -4.9      2.348      2.770
REMARK  Name = 
REMARK  5 active torsions:
REMARK  status: ('A' for Active; 'I' for Inactive)
REMARK    1  A    between atoms: C_1  and  N_2
REMARK    2  A    between atoms: C_3  and  N_4
REMARK    3  A    between atoms: C_9  and  C_10
REMARK    4  A    between atoms: C_10  and  C_11
REMARK    5  A    between atoms: C_11  and  O_12
REMARK                            x       y       z     vdW  Elec       q    Type
REMARK                         _______ _______ _______ _____ _____    ______ ____
ROOT
ATOM      1  C   UNL     1       5.026   4.037  15.756  0.00  0.00    +0.000 C 
ATOM      2  N   UNL     1       5.085   4.366  17.162  0.00  0.00    +0.000 N 
ATOM      3  C   UNL     1       6.128   4.825  17.929  0.00  0.00    +0.000 A 
ATOM      4  C   UNL     1       5.634   4.957  19.203  0.00  0.00    +0.000 A 
ATOM      5  N   UNL     1       4.312   4.608  19.244  0.00  0.00    +0.000 NA
ATOM      6  C   UNL     1       3.992   4.254  18.013  0.00  0.00    +0.000 A 
ENDROOT
BRANCH   3   7
ATOM      7  N   UNL     1       7.455   5.118  17.503  0.00  0.00    +0.000 N 
ATOM      8  O   UNL     1       8.276   4.196  17.456  0.00  0.00    +0.000 OA
ATOM      9  O   UNL     1       7.687   6.295  17.204  0.00  0.00    +0.000 OA
ENDBRANCH   3   7
BRANCH   6  10
ATOM     10  C   UNL     1       2.622   3.827  17.563  0.00  0.00    +0.000 C 
BRANCH  10  11
ATOM     11  C   UNL     1       2.388   2.325  17.739  0.00  0.00    +0.000 C 
BRANCH  11  12
ATOM     12  O   UNL     1       3.402   1.736  18.549  0.00  0.00    +0.000 OA
ATOM     13  H   UNL     1       3.492   0.818  18.219  0.00  0.00    +0.000 HD
ENDBRANCH  11  12
ENDBRANCH  10  11
ENDBRANCH   6  10
TORSDOF 4
ENDMDL
MODEL 6
REMARK VINA RESULT:      -4.9      2.356      4.705
REMARK  Name = 
REMARK  5 active torsions:
REMARK  status: ('A' for Active; 'I' for Inactive)
REMARK    1  A    between atoms: C_1  and  N_2
REMARK    2  A    between atoms: C_3  and  N_4
REMARK    3  A    between atoms: C_9  and  C_10
REMARK    4  A    between atoms: C_10  and  C_11
REMARK    5  A    between atoms: C_11  and  O_12
REMARK                            x       y       z     vdW  Elec       q    Type
REMARK                         _______ _______ _______ _____ _____    ______ ____
ROOT
ATOM      1  C   UNL     1       3.639   6.455  17.858  0.00  0.00    +0.000 C 
ATOM      2  N   UNL     1       4.013   5.180  18.427  0.00  0.00    +0.000 N 
ATOM      3  C   UNL     1       3.242   4.103  18.791  0.00  0.00    +0.000 A 
ATOM      4  C   UNL     1       4.111   3.164  19.288  0.00  0.00    +0.000 A 
ATOM      5  N   UNL     1       5.400   3.620  19.226  0.00  0.00    +0.000 NA
ATOM      6  C   UNL     1       5.329   4.833  18.707  0.00  0.00    +0.000 A 
ENDROOT
BRANCH   3   7
ATOM      7  N   UNL     1       1.829   3.970  18.677  0.00  0.00    +0.000 N 
ATOM      8  O   UNL     1       1.352   3.679  17.575  0.00  0.00    +0.000 OA
ATOM      9  O   UNL     1       1.176   4.155  19.710  0.00  0.00    +0.000 OA
ENDBRANCH   3   7
BRANCH   6  10
ATOM     10  C   UNL     1       6.509   5.717  18.412  0.00  0.00    +0.000 C 
BRANCH  10  11
ATOM     11  C   UNL     1       7.292   5.261  17.179  0.00  0.00    +0.000 C 
BRANCH  11  12
ATOM     12  O   UNL     1       8.073   4.104  17.463  0.00  0.00    +0.000 OA
ATOM     13  H   UNL     1       7.425   3.376  17.563  0.00  0.00    +0.000 HD
ENDBRANCH  11  12
ENDBRANCH  10  11
ENDBRANCH   6  10
TORSDOF 4
ENDMDL
MODEL 7
REMARK VINA RESULT:      -4.9      2.169      4.659
REMARK  Name = 
REMARK  5 active torsions:
REMARK  status: ('A' for Active; 'I' for Inactive)
REMARK    1  A    between atoms: C_1  and  N_2
REMARK    2  A    between atoms: C_3  and  N_4
REMARK    3  A    between atoms: C_9  and  C_10
REMARK    4  A    between atoms: C_10  and  C_11
REMARK    5  A    between atoms: C_11  and  O_12
REMARK                            x       y       z     vdW  Elec       q    Type
REMARK                         _______ _______ _______ _____ _____    ______ ____
ROOT
ATOM      1  C   UNL     1       3.320   6.234  18.816  0.00  0.00    +0.000 C 
ATOM      2  N   UNL     1       3.712   4.868  19.076  0.00  0.00    +0.000 N 
ATOM      3  C   UNL     1       2.953   3.732  19.220  0.00  0.00    +0.000 A 
ATOM      4  C   UNL     1       3.839   2.712  19.467  0.00  0.00    +0.000 A 
ATOM      5  N   UNL     1       5.124   3.180  19.464  0.00  0.00    +0.000 NA
ATOM      6  C   UNL     1       5.037   4.476  19.228  0.00  0.00    +0.000 A 
ENDROOT
BRANCH   3   7
ATOM      7  N   UNL     1       1.537   3.617  19.126  0.00  0.00    +0.000 N 
ATOM      8  O   UNL     1       0.857   3.890  20.121  0.00  0.00    +0.000 OA
ATOM      9  O   UNL     1       1.088   3.249  18.035  0.00  0.00    +0.000 OA
ENDBRANCH   3   7
BRANCH   6  10
ATOM     10  C   UNL     1       6.207   5.412  19.096  0.00  0.00    +0.000 C 
BRANCH  10  11
ATOM     11  C   UNL     1       6.988   5.196  17.798  0.00  0.00    +0.000 C 
BRANCH  11  12
ATOM     12  O   UNL     1       7.794   4.023  17.870  0.00  0.00    +0.000 OA
ATOM     13  H   UNL     1       7.330   3.432  18.499  0.00  0.00    +0.000 HD
ENDBRANCH  11  12
ENDBRANCH  10  11
ENDBRANCH   6  10
TORSDOF 4
ENDMDL
MODEL 8
REMARK VINA RESULT:      -4.8      1.465      4.250
REMARK  Name = 
REMARK  5 active torsions:
REMARK  status: ('A' for Active; 'I' for Inactive)
REMARK    1  A    between atoms: C_1  and  N_2
REMARK    2  A    between atoms: C_3  and  N_4
REMARK    3  A    between atoms: C_9  and  C_10
REMARK    4  A    between atoms: C_10  and  C_11
REMARK    5  A    between atoms: C_11  and  O_12
REMARK                            x       y       z     vdW  Elec       q    Type
REMARK                         _______ _______ _______ _____ _____    ______ ____
ROOT
ATOM      1  C   UNL     1       3.098   1.930  18.130  0.00  0.00    +0.000 C 
ATOM      2  N   UNL     1       3.280   3.212  18.770  0.00  0.00    +0.000 N 
ATOM      3  C   UNL     1       2.817   3.684  19.975  0.00  0.00    +0.000 A 
ATOM      4  C   UNL     1       3.278   4.973  20.081  0.00  0.00    +0.000 A 
ATOM      5  N   UNL     1       4.027   5.307  18.986  0.00  0.00    +0.000 NA
ATOM      6  C   UNL     1       4.022   4.243  18.204  0.00  0.00    +0.000 A 
ENDROOT
BRANCH   3   7
ATOM      7  N   UNL     1       2.026   2.988  20.932  0.00  0.00    +0.000 N 
ATOM      8  O   UNL     1       0.825   2.820  20.694  0.00  0.00    +0.000 OA
ATOM      9  O   UNL     1       2.613   2.596  21.946  0.00  0.00    +0.000 OA
ENDBRANCH   3   7
BRANCH   6  10
ATOM     10  C   UNL     1       4.751   4.127  16.895  0.00  0.00    +0.000 C 
BRANCH  10  11
ATOM     11  C   UNL     1       6.201   4.606  16.985  0.00  0.00    +0.000 C 
BRANCH  11  12
ATOM     12  O   UNL     1       6.808   4.187  18.204  0.00  0.00    +0.000 OA
ATOM     13  H   UNL     1       7.269   3.350  17.986  0.00  0.00    +0.000 HD
ENDBRANCH  11  12
ENDBRANCH  10  11
ENDBRANCH   6  10
TORSDOF 4
ENDMDL
MODEL 9
REMARK VINA RESULT:      -4.8      2.551      3.039
REMARK  Name = 
REMARK  5 active torsions:
REMARK  status: ('A' for Active; 'I' for Inactive)
REMARK    1  A    between atoms: C_1  and  N_2
REMARK    2  A    between atoms: C_3  and  N_4
REMARK    3  A    between atoms: C_9  and  C_10
REMARK    4  A    between atoms: C_10  and  C_11
REMARK    5  A    between atoms: C_11  and  O_12
REMARK                            x       y       z     vdW  Elec       q    Type
REMARK                         _______ _______ _______ _____ _____    ______ ____
ROOT
ATOM      1  C   UNL     1       4.534   3.460  16.926  0.00  0.00    +0.000 C 
ATOM      2  N   UNL     1       4.830   4.870  17.036  0.00  0.00    +0.000 N 
ATOM      3  C   UNL     1       5.970   5.571  16.724  0.00  0.00    +0.000 A 
ATOM      4  C   UNL     1       5.709   6.881  17.040  0.00  0.00    +0.000 A 
ATOM      5  N   UNL     1       4.435   7.015  17.522  0.00  0.00    +0.000 NA
ATOM      6  C   UNL     1       3.916   5.801  17.516  0.00  0.00    +0.000 A 
ENDROOT
BRANCH   3   7
ATOM      7  N   UNL     1       7.180   5.059  16.177  0.00  0.00    +0.000 N 
ATOM      8  O   UNL     1       7.429   5.278  14.987  0.00  0.00    +0.000 OA
ATOM      9  O   UNL     1       7.906   4.425  16.952  0.00  0.00    +0.000 OA
ENDBRANCH   3   7
BRANCH   6  10
ATOM     10  C   UNL     1       2.512   5.458  17.929  0.00  0.00    +0.000 C 
BRANCH  10  11
ATOM     11  C   UNL     1       2.384   5.215  19.434  0.00  0.00    +0.000 C 
BRANCH  11  12
ATOM     12  O   UNL     1       3.499   5.754  20.140  0.00  0.00    +0.000 OA
ATOM     13  H   UNL     1       3.649   6.638  19.745  0.00  0.00    +0.000 HD
ENDBRANCH  11  12
ENDBRANCH  10  11
ENDBRANCH   6  10
TORSDOF 4
ENDMDL
