MODEL 1
REMARK VINA RESULT:      -7.9      0.000      0.000
REMARK  Name = 
REMARK  5 active torsions:
REMARK  status: ('A' for Active; 'I' for Inactive)
REMARK    1  A    between atoms: C_1  and  C_2
REMARK    2  A    between atoms: C_10  and  C_11
REMARK    3  A    between atoms: C_11  and  C_12
REMARK    4  A    between atoms: C_11  and  N_18
REMARK    5  A    between atoms: C_21  and  C_22
REMARK                            x       y       z     vdW  Elec       q    Type
REMARK                         _______ _______ _______ _____ _____    ______ ____
ROOT
ATOM      1  C   UNL     1       4.881   4.008  18.081  0.00  0.00    +0.000 C 
ENDROOT
BRANCH   1  11
ATOM      2  C   UNL     1       7.278   6.196  18.314  0.00  0.00    +0.000 C 
ATOM      3  C   UNL     1       7.026   5.202  17.241  0.00  0.00    +0.000 A 
ATOM      4  N   UNL     1       7.885   5.143  16.181  0.00  0.00    +0.000 N 
ATOM      5  C   UNL     1       7.188   4.733  15.074  0.00  0.00    +0.000 A 
ATOM      6  C   UNL     1       7.549   4.881  13.729  0.00  0.00    +0.000 A 
ATOM      7  C   UNL     1       6.603   4.532  12.773  0.00  0.00    +0.000 A 
ATOM      8  C   UNL     1       5.395   3.966  13.164  0.00  0.00    +0.000 A 
ATOM      9  C   UNL     1       5.104   3.726  14.522  0.00  0.00    +0.000 A 
ATOM     10  C   UNL     1       5.986   4.181  15.537  0.00  0.00    +0.000 A 
ATOM     11  C   UNL     1       5.949   4.333  16.999  0.00  0.00    +0.000 A 
ATOM     12  H   UNL     1       8.769   5.611  16.132  0.00  0.00    +0.000 HD
ENDBRANCH   1  11
BRANCH   1  13
ATOM     13  N   UNL     1       3.936   2.892  17.860  0.00  0.00    +0.000 NA
ATOM     14  C   UNL     1       2.675   3.301  17.205  0.00  0.00    +0.000 C 
ATOM     15  C   UNL     1       1.417   3.555  18.067  0.00  0.00    +0.000 C 
ATOM     16  C   UNL     1       1.316   2.831  19.415  0.00  0.00    +0.000 C 
ATOM     17  C   UNL     1       0.585   3.707  20.447  0.00  0.00    +0.000 C 
ATOM     18  C   UNL     1       2.660   2.379  19.980  0.00  0.00    +0.000 C 
ATOM     19  C   UNL     1       3.666   1.936  18.920  0.00  0.00    +0.000 C 
ENDBRANCH   1  13
BRANCH   1  20
ATOM     20  C   UNL     1       4.162   5.350  18.273  0.00  0.00    +0.000 A 
ATOM     21  C   UNL     1       3.618   5.711  19.511  0.00  0.00    +0.000 A 
ATOM     22  C   UNL     1       2.794   6.820  19.599  0.00  0.00    +0.000 A 
ATOM     23  N   UNL     1       2.547   7.650  18.569  0.00  0.00    +0.000 NA
ATOM     24  C   UNL     1       3.155   7.349  17.403  0.00  0.00    +0.000 A 
ATOM     25  C   UNL     1       3.958   6.233  17.207  0.00  0.00    +0.000 A 
ENDBRANCH   1  20
TORSDOF 3
ENDMDL
MODEL 2
REMARK VINA RESULT:      -7.7      0.420      1.040
REMARK  Name = 
REMARK  5 active torsions:
REMARK  status: ('A' for Active; 'I' for Inactive)
REMARK    1  A    between atoms: C_1  and  C_2
REMARK    2  A    between atoms: C_10  and  C_11
REMARK    3  A    between atoms: C_11  and  C_12
REMARK    4  A    between atoms: C_11  and  N_18
REMARK    5  A    between atoms: C_21  and  C_22
REMARK                            x       y       z     vdW  Elec       q    Type
REMARK                         _______ _______ _______ _____ _____    ______ ____
ROOT
ATOM      1  C   UNL     1       4.977   4.059  18.496  0.00  0.00    +0.000 C 
ENDROOT
BRANCH   1  11
ATOM      2  C   UNL     1       7.386   6.243  18.618  0.00  0.00    +0.000 C 
ATOM      3  C   UNL     1       7.097   5.235  17.568  0.00  0.00    +0.000 A 
ATOM      4  N   UNL     1       7.920   5.159  16.482  0.00  0.00    +0.000 N 
ATOM      5  C   UNL     1       7.186   4.736  15.404  0.00  0.00    +0.000 A 
ATOM      6  C   UNL     1       7.502   4.863  14.047  0.00  0.00    +0.000 A 
ATOM      7  C   UNL     1       6.524   4.504  13.127  0.00  0.00    +0.000 A 
ATOM      8  C   UNL     1       5.329   3.947  13.566  0.00  0.00    +0.000 A 
ATOM      9  C   UNL     1       5.082   3.727  14.936  0.00  0.00    +0.000 A 
ATOM     10  C   UNL     1       5.998   4.194  15.914  0.00  0.00    +0.000 A 
ATOM     11  C   UNL     1       6.009   4.366  17.374  0.00  0.00    +0.000 A 
ATOM     12  H   UNL     1       8.803   5.624  16.398  0.00  0.00    +0.000 HD
ENDBRANCH   1  11
BRANCH   1  13
ATOM     13  N   UNL     1       4.225   2.786  18.465  0.00  0.00    +0.000 NA
ATOM     14  C   UNL     1       3.010   2.834  17.625  0.00  0.00    +0.000 C 
ATOM     15  C   UNL     1       1.634   3.068  18.289  0.00  0.00    +0.000 C 
ATOM     16  C   UNL     1       1.468   2.655  19.756  0.00  0.00    +0.000 C 
ATOM     17  C   UNL     1       0.506   3.612  20.482  0.00  0.00    +0.000 C 
ATOM     18  C   UNL     1       2.781   2.561  20.527  0.00  0.00    +0.000 C 
ATOM     19  C   UNL     1       3.960   2.060  19.694  0.00  0.00    +0.000 C 
ENDBRANCH   1  13
BRANCH   1  20
ATOM     20  C   UNL     1       4.052   5.283  18.459  0.00  0.00    +0.000 A 
ATOM     21  C   UNL     1       3.905   6.045  17.295  0.00  0.00    +0.000 A 
ATOM     22  C   UNL     1       3.239   7.258  17.351  0.00  0.00    +0.000 A 
ATOM     23  N   UNL     1       2.628   7.724  18.456  0.00  0.00    +0.000 NA
ATOM     24  C   UNL     1       2.692   6.935  19.549  0.00  0.00    +0.000 A 
ATOM     25  C   UNL     1       3.377   5.728  19.601  0.00  0.00    +0.000 A 
ENDBRANCH   1  20
TORSDOF 3
ENDMDL
MODEL 3
REMARK VINA RESULT:      -7.5      1.834      6.102
REMARK  Name = 
REMARK  5 active torsions:
REMARK  status: ('A' for Active; 'I' for Inactive)
REMARK    1  A    between atoms: C_1  and  C_2
REMARK    2  A    between atoms: C_10  and  C_11
REMARK    3  A    between atoms: C_11  and  C_12
REMARK    4  A    between atoms: C_11  and  N_18
REMARK    5  A    between atoms: C_21  and  C_22
REMARK                            x       y       z     vdW  Elec       q    Type
REMARK                         _______ _______ _______ _____ _____    ______ ____
ROOT
ATOM      1  C   UNL     1       4.382   5.721  18.967  0.00  0.00    +0.000 C 
ENDROOT
BRANCH   1  11
ATOM      2  C   UNL     1       2.214   4.682  21.158  0.00  0.00    +0.000 C 
ATOM      3  C   UNL     1       2.428   6.056  20.642  0.00  0.00    +0.000 A 
ATOM      4  N   UNL     1       1.645   7.069  21.116  0.00  0.00    +0.000 N 
ATOM      5  C   UNL     1       1.499   8.009  20.128  0.00  0.00    +0.000 A 
ATOM      6  C   UNL     1       0.516   9.000  20.025  0.00  0.00    +0.000 A 
ATOM      7  C   UNL     1       0.471   9.736  18.847  0.00  0.00    +0.000 A 
ATOM      8  C   UNL     1       1.442   9.543  17.871  0.00  0.00    +0.000 A 
ATOM      9  C   UNL     1       2.487   8.613  18.049  0.00  0.00    +0.000 A 
ATOM     10  C   UNL     1       2.498   7.754  19.178  0.00  0.00    +0.000 A 
ATOM     11  C   UNL     1       3.235   6.555  19.604  0.00  0.00    +0.000 A 
ATOM     12  H   UNL     1       1.031   6.999  21.903  0.00  0.00    +0.000 HD
ENDBRANCH   1  11
BRANCH   1  13
ATOM     13  N   UNL     1       5.348   6.384  18.064  0.00  0.00    +0.000 NA
ATOM     14  C   UNL     1       4.815   6.641  16.709  0.00  0.00    +0.000 C 
ATOM     15  C   UNL     1       5.152   5.664  15.560  0.00  0.00    +0.000 C 
ATOM     16  C   UNL     1       6.445   4.846  15.672  0.00  0.00    +0.000 C 
ATOM     17  C   UNL     1       6.265   3.458  15.033  0.00  0.00    +0.000 C 
ATOM     18  C   UNL     1       6.961   4.694  17.100  0.00  0.00    +0.000 C 
ATOM     19  C   UNL     1       6.720   5.916  17.985  0.00  0.00    +0.000 C 
ENDBRANCH   1  13
BRANCH   1  20
ATOM     20  C   UNL     1       3.634   4.573  18.277  0.00  0.00    +0.000 A 
ATOM     21  C   UNL     1       2.372   4.771  17.704  0.00  0.00    +0.000 A 
ATOM     22  C   UNL     1       1.632   3.678  17.284  0.00  0.00    +0.000 A 
ATOM     23  N   UNL     1       2.092   2.413  17.304  0.00  0.00    +0.000 NA
ATOM     24  C   UNL     1       3.348   2.244  17.768  0.00  0.00    +0.000 A 
ATOM     25  C   UNL     1       4.145   3.271  18.255  0.00  0.00    +0.000 A 
ENDBRANCH   1  20
TORSDOF 3
ENDMDL
MODEL 4
REMARK VINA RESULT:      -7.3      6.312      9.170
REMARK  Name = 
REMARK  5 active torsions:
REMARK  status: ('A' for Active; 'I' for Inactive)
REMARK    1  A    between atoms: C_1  and  C_2
REMARK    2  A    between atoms: C_10  and  C_11
REMARK    3  A    between atoms: C_11  and  C_12
REMARK    4  A    between atoms: C_11  and  N_18
REMARK    5  A    between atoms: C_21  and  C_22
REMARK                            x       y       z     vdW  Elec       q    Type
REMARK                         _______ _______ _______ _____ _____    ______ ____
ROOT
ATOM      1  C   UNL     1      -0.616  10.297  19.108  0.00  0.00    +0.000 C 
ENDROOT
BRANCH   1  11
ATOM      2  C   UNL     1       2.143   9.151  17.821  0.00  0.00    +0.000 C 
ATOM      3  C   UNL     1       1.712  10.560  17.990  0.00  0.00    +0.000 A 
ATOM      4  N   UNL     1       2.537  11.560  17.561  0.00  0.00    +0.000 N 
ATOM      5  C   UNL     1       2.340  12.661  18.354  0.00  0.00    +0.000 A 
ATOM      6  C   UNL     1       3.194  13.757  18.527  0.00  0.00    +0.000 A 
ATOM      7  C   UNL     1       2.858  14.679  19.511  0.00  0.00    +0.000 A 
ATOM      8  C   UNL     1       1.662  14.546  20.207  0.00  0.00    +0.000 A 
ATOM      9  C   UNL     1       0.767  13.491  19.935  0.00  0.00    +0.000 A 
ATOM     10  C   UNL     1       1.129  12.460  19.029  0.00  0.00    +0.000 A 
ATOM     11  C   UNL     1       0.615  11.133  18.657  0.00  0.00    +0.000 A 
ATOM     12  H   UNL     1       3.353  11.427  16.997  0.00  0.00    +0.000 HD
ENDBRANCH   1  11
BRANCH   1  13
ATOM     13  N   UNL     1      -1.978  10.821  18.868  0.00  0.00    +0.000 NA
ATOM     14  C   UNL     1      -2.977   9.770  18.578  0.00  0.00    +0.000 C 
ATOM     15  C   UNL     1      -3.360   9.466  17.112  0.00  0.00    +0.000 C 
ATOM     16  C   UNL     1      -3.191  10.589  16.081  0.00  0.00    +0.000 C 
ATOM     17  C   UNL     1      -2.792  10.012  14.712  0.00  0.00    +0.000 C 
ATOM     18  C   UNL     1      -2.196  11.668  16.497  0.00  0.00    +0.000 C 
ATOM     19  C   UNL     1      -2.183  11.964  17.995  0.00  0.00    +0.000 C 
ENDBRANCH   1  13
BRANCH   1  20
ATOM     20  C   UNL     1      -0.341  10.051  20.597  0.00  0.00    +0.000 A 
ATOM     21  C   UNL     1      -1.011  10.778  21.587  0.00  0.00    +0.000 A 
ATOM     22  C   UNL     1      -0.590  10.690  22.903  0.00  0.00    +0.000 A 
ATOM     23  N   UNL     1       0.385   9.862  23.322  0.00  0.00    +0.000 NA
ATOM     24  C   UNL     1       0.960   9.093  22.374  0.00  0.00    +0.000 A 
ATOM     25  C   UNL     1       0.638   9.147  21.024  0.00  0.00    +0.000 A 
ENDBRANCH   1  20
TORSDOF 3
ENDMDL
MODEL 5
REMARK VINA RESULT:      -7.3      8.186     11.432
REMARK  Name = 
REMARK  5 active torsions:
REMARK  status: ('A' for Active; 'I' for Inactive)
REMARK    1  A    between atoms: C_1  and  C_2
REMARK    2  A    between atoms: C_10  and  C_11
REMARK    3  A    between atoms: C_11  and  C_12
REMARK    4  A    between atoms: C_11  and  N_18
REMARK    5  A    between atoms: C_21  and  C_22
REMARK                            x       y       z     vdW  Elec       q    Type
REMARK                         _______ _______ _______ _____ _____    ______ ____
ROOT
ATOM      1  C   UNL     1      -0.706  13.041  20.872  0.00  0.00    +0.000 C 
ENDROOT
BRANCH   1  11
ATOM      2  C   UNL     1      -3.862  13.180  21.650  0.00  0.00    +0.000 C 
ATOM      3  C   UNL     1      -3.239  12.831  20.349  0.00  0.00    +0.000 A 
ATOM      4  N   UNL     1      -4.046  12.522  19.292  0.00  0.00    +0.000 N 
ATOM      5  C   UNL     1      -3.389  11.630  18.484  0.00  0.00    +0.000 A 
ATOM      6  C   UNL     1      -3.942  10.775  17.523  0.00  0.00    +0.000 A 
ATOM      7  C   UNL     1      -3.096   9.838  16.941  0.00  0.00    +0.000 A 
ATOM      8  C   UNL     1      -1.740   9.843  17.245  0.00  0.00    +0.000 A 
ATOM      9  C   UNL     1      -1.191  10.788  18.135  0.00  0.00    +0.000 A 
ATOM     10  C   UNL     1      -2.036  11.679  18.847  0.00  0.00    +0.000 A 
ATOM     11  C   UNL     1      -1.902  12.611  19.976  0.00  0.00    +0.000 A 
ATOM     12  H   UNL     1      -5.038  12.658  19.269  0.00  0.00    +0.000 HD
ENDBRANCH   1  11
BRANCH   1  13
ATOM     13  N   UNL     1       0.453  13.726  20.259  0.00  0.00    +0.000 NA
ATOM     14  C   UNL     1       1.168  14.629  21.185  0.00  0.00    +0.000 C 
ATOM     15  C   UNL     1       0.872  16.145  21.153  0.00  0.00    +0.000 C 
ATOM     16  C   UNL     1       0.347  16.743  19.842  0.00  0.00    +0.000 C 
ATOM     17  C   UNL     1      -0.631  17.897  20.126  0.00  0.00    +0.000 C 
ATOM     18  C   UNL     1      -0.311  15.725  18.915  0.00  0.00    +0.000 C 
ATOM     19  C   UNL     1       0.334  14.341  18.948  0.00  0.00    +0.000 C 
ENDBRANCH   1  13
BRANCH   1  20
ATOM     20  C   UNL     1      -0.307  11.733  21.568  0.00  0.00    +0.000 A 
ATOM     21  C   UNL     1       0.721  10.929  21.066  0.00  0.00    +0.000 A 
ATOM     22  C   UNL     1       0.912   9.659  21.584  0.00  0.00    +0.000 A 
ATOM     23  N   UNL     1       0.220   9.167  22.628  0.00  0.00    +0.000 NA
ATOM     24  C   UNL     1      -0.704   9.988  23.169  0.00  0.00    +0.000 A 
ATOM     25  C   UNL     1      -0.999  11.256  22.687  0.00  0.00    +0.000 A 
ENDBRANCH   1  20
TORSDOF 3
ENDMDL
MODEL 6
REMARK VINA RESULT:      -7.2      1.255      3.095
REMARK  Name = 
REMARK  5 active torsions:
REMARK  status: ('A' for Active; 'I' for Inactive)
REMARK    1  A    between atoms: C_1  and  C_2
REMARK    2  A    between atoms: C_10  and  C_11
REMARK    3  A    between atoms: C_11  and  C_12
REMARK    4  A    between atoms: C_11  and  N_18
REMARK    5  A    between atoms: C_21  and  C_22
REMARK                            x       y       z     vdW  Elec       q    Type
REMARK                         _______ _______ _______ _____ _____    ______ ____
ROOT
ATOM      1  C   UNL     1       4.098   5.392  16.929  0.00  0.00    +0.000 C 
ENDROOT
BRANCH   1  11
ATOM      2  C   UNL     1       6.790   7.209  17.103  0.00  0.00    +0.000 C 
ATOM      3  C   UNL     1       6.556   5.967  16.326  0.00  0.00    +0.000 A 
ATOM      4  N   UNL     1       7.571   5.462  15.566  0.00  0.00    +0.000 N 
ATOM      5  C   UNL     1       7.028   4.814  14.485  0.00  0.00    +0.000 A 
ATOM      6  C   UNL     1       7.659   4.477  13.282  0.00  0.00    +0.000 A 
ATOM      7  C   UNL     1       6.861   3.967  12.265  0.00  0.00    +0.000 A 
ATOM      8  C   UNL     1       5.514   3.716  12.498  0.00  0.00    +0.000 A 
ATOM      9  C   UNL     1       4.929   3.963  13.757  0.00  0.00    +0.000 A 
ATOM     10  C   UNL     1       5.676   4.599  14.783  0.00  0.00    +0.000 A 
ATOM     11  C   UNL     1       5.393   5.213  16.088  0.00  0.00    +0.000 A 
ATOM     12  H   UNL     1       8.522   5.771  15.601  0.00  0.00    +0.000 HD
ENDBRANCH   1  11
BRANCH   1  13
ATOM     13  N   UNL     1       4.126   6.248  18.135  0.00  0.00    +0.000 NA
ATOM     14  C   UNL     1       4.541   5.534  19.361  0.00  0.00    +0.000 C 
ATOM     15  C   UNL     1       3.465   5.019  20.344  0.00  0.00    +0.000 C 
ATOM     16  C   UNL     1       2.111   5.740  20.366  0.00  0.00    +0.000 C 
ATOM     17  C   UNL     1       0.974   4.748  20.666  0.00  0.00    +0.000 C 
ATOM     18  C   UNL     1       1.799   6.511  19.087  0.00  0.00    +0.000 C 
ATOM     19  C   UNL     1       3.021   7.145  18.425  0.00  0.00    +0.000 C 
ENDBRANCH   1  13
BRANCH   1  20
ATOM     20  C   UNL     1       3.690   3.948  17.249  0.00  0.00    +0.000 A 
ATOM     21  C   UNL     1       2.344   3.572  17.310  0.00  0.00    +0.000 A 
ATOM     22  C   UNL     1       2.003   2.326  17.809  0.00  0.00    +0.000 A 
ATOM     23  N   UNL     1       2.905   1.392  18.164  0.00  0.00    +0.000 NA
ATOM     24  C   UNL     1       4.202   1.728  18.010  0.00  0.00    +0.000 A 
ATOM     25  C   UNL     1       4.639   2.969  17.563  0.00  0.00    +0.000 A 
ENDBRANCH   1  20
TORSDOF 3
ENDMDL
MODEL 7
REMARK VINA RESULT:      -7.1      7.908     11.109
REMARK  Name = 
REMARK  5 active torsions:
REMARK  status: ('A' for Active; 'I' for Inactive)
REMARK    1  A    between atoms: C_1  and  C_2
REMARK    2  A    between atoms: C_10  and  C_11
REMARK    3  A    between atoms: C_11  and  C_12
REMARK    4  A    between atoms: C_11  and  N_18
REMARK    5  A    between atoms: C_21  and  C_22
REMARK                            x       y       z     vdW  Elec       q    Type
REMARK                         _______ _______ _______ _____ _____    ______ ____
ROOT
ATOM      1  C   UNL     1      -0.424  12.673  20.673  0.00  0.00    +0.000 C 
ENDROOT
BRANCH   1  11
ATOM      2  C   UNL     1      -3.484  13.009  21.725  0.00  0.00    +0.000 C 
ATOM      3  C   UNL     1      -3.000  12.708  20.355  0.00  0.00    +0.000 A 
ATOM      4  N   UNL     1      -3.912  12.545  19.353  0.00  0.00    +0.000 N 
ATOM      5  C   UNL     1      -3.402  11.664  18.434  0.00  0.00    +0.000 A 
ATOM      6  C   UNL     1      -4.101  10.931  17.469  0.00  0.00    +0.000 A 
ATOM      7  C   UNL     1      -3.389   9.974  16.755  0.00  0.00    +0.000 A 
ATOM      8  C   UNL     1      -2.017   9.846  16.942  0.00  0.00    +0.000 A 
ATOM      9  C   UNL     1      -1.319  10.676  17.843  0.00  0.00    +0.000 A 
ATOM     10  C   UNL     1      -2.025  11.577  18.682  0.00  0.00    +0.000 A 
ATOM     11  C   UNL     1      -1.720  12.409  19.856  0.00  0.00    +0.000 A 
ATOM     12  H   UNL     1      -4.887  12.762  19.424  0.00  0.00    +0.000 HD
ENDBRANCH   1  11
BRANCH   1  13
ATOM     13  N   UNL     1       0.767  13.222  19.990  0.00  0.00    +0.000 NA
ATOM     14  C   UNL     1       1.719  13.892  20.901  0.00  0.00    +0.000 C 
ATOM     15  C   UNL     1       1.688  15.431  21.037  0.00  0.00    +0.000 C 
ATOM     16  C   UNL     1       1.144  16.243  19.855  0.00  0.00    +0.000 C 
ATOM     17  C   UNL     1       0.415  17.503  20.352  0.00  0.00    +0.000 C 
ATOM     18  C   UNL     1       0.229  15.450  18.926  0.00  0.00    +0.000 C 
ATOM     19  C   UNL     1       0.624  13.984  18.762  0.00  0.00    +0.000 C 
ENDBRANCH   1  13
BRANCH   1  20
ATOM     20  C   UNL     1      -0.145  11.314  21.329  0.00  0.00    +0.000 A 
ATOM     21  C   UNL     1      -0.683  10.989  22.579  0.00  0.00    +0.000 A 
ATOM     22  C   UNL     1      -0.242   9.854  23.239  0.00  0.00    +0.000 A 
ATOM     23  N   UNL     1       0.621   8.969  22.707  0.00  0.00    +0.000 NA
ATOM     24  C   UNL     1       1.059   9.241  21.460  0.00  0.00    +0.000 A 
ATOM     25  C   UNL     1       0.712  10.377  20.741  0.00  0.00    +0.000 A 
ENDBRANCH   1  20
TORSDOF 3
ENDMDL
MODEL 8
REMARK VINA RESULT:      -7.0      2.040      6.250
REMARK  Name = 
REMARK  5 active torsions:
REMARK  status: ('A' for Active; 'I' for Inactive)
REMARK    1  A    between atoms: C_1  and  C_2
REMARK    2  A    between atoms: C_10  and  C_11
REMARK    3  A    between atoms: C_11  and  C_12
REMARK    4  A    between atoms: C_11  and  N_18
REMARK    5  A    between atoms: C_21  and  C_22
REMARK                            x       y       z     vdW  Elec       q    Type
REMARK                         _______ _______ _______ _____ _____    ______ ____
ROOT
ATOM      1  C   UNL     1       3.702   5.404  18.656  0.00  0.00    +0.000 C 
ENDROOT
BRANCH   1  11
ATOM      2  C   UNL     1       1.938   4.885  21.339  0.00  0.00    +0.000 C 
ATOM      3  C   UNL     1       2.229   6.167  20.652  0.00  0.00    +0.000 A 
ATOM      4  N   UNL     1       1.721   7.324  21.169  0.00  0.00    +0.000 N 
ATOM      5  C   UNL     1       1.500   8.204  20.140  0.00  0.00    +0.000 A 
ATOM      6  C   UNL     1       0.671   9.332  20.140  0.00  0.00    +0.000 A 
ATOM      7  C   UNL     1       0.478   9.981  18.926  0.00  0.00    +0.000 A 
ATOM      8  C   UNL     1       1.174   9.565  17.798  0.00  0.00    +0.000 A 
ATOM      9  C   UNL     1       2.088   8.494  17.853  0.00  0.00    +0.000 A 
ATOM     10  C   UNL     1       2.221   7.725  19.039  0.00  0.00    +0.000 A 
ATOM     11  C   UNL     1       2.853   6.455  19.426  0.00  0.00    +0.000 A 
ATOM     12  H   UNL     1       1.290   7.409  22.068  0.00  0.00    +0.000 HD
ENDBRANCH   1  11
BRANCH   1  13
ATOM     13  N   UNL     1       4.355   5.785  17.384  0.00  0.00    +0.000 NA
ATOM     14  C   UNL     1       4.735   4.632  16.542  0.00  0.00    +0.000 C 
ATOM     15  C   UNL     1       6.192   4.115  16.571  0.00  0.00    +0.000 C 
ATOM     16  C   UNL     1       7.295   5.107  16.959  0.00  0.00    +0.000 C 
ATOM     17  C   UNL     1       8.420   4.392  17.728  0.00  0.00    +0.000 C 
ATOM     18  C   UNL     1       6.799   6.304  17.764  0.00  0.00    +0.000 C 
ATOM     19  C   UNL     1       5.405   6.788  17.370  0.00  0.00    +0.000 C 
ENDBRANCH   1  13
BRANCH   1  20
ATOM     20  C   UNL     1       2.728   4.232  18.482  0.00  0.00    +0.000 A 
ATOM     21  C   UNL     1       1.471   4.415  17.896  0.00  0.00    +0.000 A 
ATOM     22  C   UNL     1       0.536   3.395  17.949  0.00  0.00    +0.000 A 
ATOM     23  N   UNL     1       0.790   2.175  18.455  0.00  0.00    +0.000 NA
ATOM     24  C   UNL     1       2.037   1.976  18.930  0.00  0.00    +0.000 A 
ATOM     25  C   UNL     1       3.024   2.952  18.964  0.00  0.00    +0.000 A 
ENDBRANCH   1  20
TORSDOF 3
ENDMDL
MODEL 9
REMARK VINA RESULT:      -6.9      1.922      4.755
REMARK  Name = 
REMARK  5 active torsions:
REMARK  status: ('A' for Active; 'I' for Inactive)
REMARK    1  A    between atoms: C_1  and  C_2
REMARK    2  A    between atoms: C_10  and  C_11
REMARK    3  A    between atoms: C_11  and  C_12
REMARK    4  A    between atoms: C_11  and  N_18
REMARK    5  A    between atoms: C_21  and  C_22
REMARK                            x       y       z     vdW  Elec       q    Type
REMARK                         _______ _______ _______ _____ _____    ______ ____
ROOT
ATOM      1  C   UNL     1       2.411   5.772  18.759  0.00  0.00    +0.000 C 
ENDROOT
BRANCH   1  11
ATOM      2  C   UNL     1       1.976   2.808  17.490  0.00  0.00    +0.000 C 
ATOM      3  C   UNL     1       2.969   3.844  17.113  0.00  0.00    +0.000 A 
ATOM      4  N   UNL     1       3.845   3.582  16.099  0.00  0.00    +0.000 N 
ATOM      5  C   UNL     1       5.012   4.260  16.341  0.00  0.00    +0.000 A 
ATOM      6  C   UNL     1       6.277   4.012  15.796  0.00  0.00    +0.000 A 
ATOM      7  C   UNL     1       7.348   4.729  16.316  0.00  0.00    +0.000 A 
ATOM      8  C   UNL     1       7.124   5.719  17.266  0.00  0.00    +0.000 A 
ATOM      9  C   UNL     1       5.824   6.023  17.717  0.00  0.00    +0.000 A 
ATOM     10  C   UNL     1       4.719   5.233  17.307  0.00  0.00    +0.000 A 
ATOM     11  C   UNL     1       3.311   5.075  17.700  0.00  0.00    +0.000 A 
ATOM     12  H   UNL     1       3.781   2.803  15.474  0.00  0.00    +0.000 HD
ENDBRANCH   1  11
BRANCH   1  13
ATOM     13  N   UNL     1       2.785   7.111  19.264  0.00  0.00    +0.000 NA
ATOM     14  C   UNL     1       1.894   7.614  20.330  0.00  0.00    +0.000 C 
ATOM     15  C   UNL     1       0.759   8.600  19.972  0.00  0.00    +0.000 C 
ATOM     16  C   UNL     1       0.937   9.473  18.724  0.00  0.00    +0.000 C 
ATOM     17  C   UNL     1      -0.419   9.723  18.040  0.00  0.00    +0.000 C 
ATOM     18  C   UNL     1       1.930   8.912  17.711  0.00  0.00    +0.000 C 
ATOM     19  C   UNL     1       3.115   8.179  18.337  0.00  0.00    +0.000 C 
ENDBRANCH   1  13
BRANCH   1  20
ATOM     20  C   UNL     1       2.327   4.729  19.882  0.00  0.00    +0.000 A 
ATOM     21  C   UNL     1       3.475   4.095  20.369  0.00  0.00    +0.000 A 
ATOM     22  C   UNL     1       3.348   3.012  21.222  0.00  0.00    +0.000 A 
ATOM     23  N   UNL     1       2.169   2.572  21.701  0.00  0.00    +0.000 NA
ATOM     24  C   UNL     1       1.075   3.252  21.302  0.00  0.00    +0.000 A 
ATOM     25  C   UNL     1       1.099   4.318  20.412  0.00  0.00    +0.000 A 
ENDBRANCH   1  20
TORSDOF 3
ENDMDL
