MODEL 1
REMARK VINA RESULT:      -8.1      0.000      0.000
REMARK  Name = 
REMARK  10 active torsions:
REMARK  status: ('A' for Active; 'I' for Inactive)
REMARK    1  A    between atoms: C_1  and  C_2
REMARK    2  A    between atoms: C_2  and  O_3
REMARK    3  A    between atoms: O_3  and  P_4
REMARK    4  A    between atoms: P_4  and  O_6
REMARK    5  A    between atoms: P_4  and  C_9
REMARK    6  A    between atoms: O_6  and  C_7
REMARK    7  A    between atoms: C_7  and  C_8
REMARK    8  A    between atoms: C_11  and  C_12
REMARK    9  A    between atoms: C_16  and  N_17
REMARK   10  A    between atoms: C_22  and  N_23
REMARK                            x       y       z     vdW  Elec       q    Type
REMARK                         _______ _______ _______ _____ _____    ______ ____
ROOT
ATOM      1  C   UNL     1       4.284   6.452  17.513  0.00  0.00    +0.000 A 
ATOM      2  N   UNL     1       3.842   7.757  17.783  0.00  0.00    +0.000 NA
ATOM      3  C   UNL     1       2.698   7.587  18.411  0.00  0.00    +0.000 A 
ATOM      4  O   UNL     1       2.380   6.301  18.663  0.00  0.00    +0.000 OA
ATOM      5  C   UNL     1       3.392   5.543  18.147  0.00  0.00    +0.000 A 
ENDROOT
BRANCH   3   6
ATOM      6  C   UNL     1       1.734   8.555  18.884  0.00  0.00    +0.000 A 
ATOM      7  C   UNL     1       1.190   9.547  18.042  0.00  0.00    +0.000 A 
ATOM      8  C   UNL     1       0.265  10.477  18.521  0.00  0.00    +0.000 A 
ATOM      9  C   UNL     1      -0.135  10.435  19.852  0.00  0.00    +0.000 A 
ATOM     10  C   UNL     1       0.394   9.453  20.707  0.00  0.00    +0.000 A 
ATOM     11  C   UNL     1       1.320   8.515  20.227  0.00  0.00    +0.000 A 
BRANCH  10  12
ATOM     12  N   UNL     1      -0.015   9.398  22.106  0.00  0.00    +0.000 N 
ATOM     13  O   UNL     1       0.440  10.267  22.870  0.00  0.00    +0.000 OA
ATOM     14  O   UNL     1      -0.786   8.505  22.463  0.00  0.00    +0.000 OA
ENDBRANCH  10  12
ENDBRANCH   3   6
BRANCH   5  15
ATOM     15  N   UNL     1       3.230   4.196  18.409  0.00  0.00    +0.000 N 
ATOM     16  C   UNL     1       3.445   3.696  19.748  0.00  0.00    +0.000 C 
ATOM     17  C   UNL     1       4.135   2.338  19.641  0.00  0.00    +0.000 C 
ATOM     18  C   UNL     1       3.135   1.355  19.049  0.00  0.00    +0.000 C 
ATOM     19  C   UNL     1       2.602   1.889  17.716  0.00  0.00    +0.000 C 
ATOM     20  C   UNL     1       2.186   3.379  17.751  0.00  0.00    +0.000 C 
ENDBRANCH   5  15
BRANCH   1  21
ATOM     21  P   UNL     1       5.831   6.093  16.604  0.00  0.00    +0.000 P 
ATOM     22  O   UNL     1       6.169   5.251  17.838  0.00  0.00    +0.000 OA
BRANCH  21  23
ATOM     23  O   UNL     1       7.294   5.753  15.744  0.00  0.00    +0.000 OA
BRANCH  23  25
ATOM     24  C   UNL     1       5.996   4.042  14.630  0.00  0.00    +0.000 C 
ATOM     25  C   UNL     1       7.124   5.044  14.514  0.00  0.00    +0.000 C 
ENDBRANCH  23  25
ENDBRANCH  21  23
BRANCH  21  26
ATOM     26  O   UNL     1       6.587   7.582  16.765  0.00  0.00    +0.000 OA
BRANCH  26  27
ATOM     27  C   UNL     1       7.757   7.802  17.601  0.00  0.00    +0.000 C 
ATOM     28  C   UNL     1       8.282   9.166  18.034  0.00  0.00    +0.000 C 
ENDBRANCH  26  27
ENDBRANCH  21  26
ENDBRANCH   1  21
TORSDOF 8
ENDMDL
MODEL 2
REMARK VINA RESULT:      -7.7      0.816      1.283
REMARK  Name = 
REMARK  10 active torsions:
REMARK  status: ('A' for Active; 'I' for Inactive)
REMARK    1  A    between atoms: C_1  and  C_2
REMARK    2  A    between atoms: C_2  and  O_3
REMARK    3  A    between atoms: O_3  and  P_4
REMARK    4  A    between atoms: P_4  and  O_6
REMARK    5  A    between atoms: P_4  and  C_9
REMARK    6  A    between atoms: O_6  and  C_7
REMARK    7  A    between atoms: C_7  and  C_8
REMARK    8  A    between atoms: C_11  and  C_12
REMARK    9  A    between atoms: C_16  and  N_17
REMARK   10  A    between atoms: C_22  and  N_23
REMARK                            x       y       z     vdW  Elec       q    Type
REMARK                         _______ _______ _______ _____ _____    ______ ____
ROOT
ATOM      1  C   UNL     1       4.043   6.478  17.275  0.00  0.00    +0.000 A 
ATOM      2  N   UNL     1       3.669   7.808  17.531  0.00  0.00    +0.000 NA
ATOM      3  C   UNL     1       2.649   7.704  18.357  0.00  0.00    +0.000 A 
ATOM      4  O   UNL     1       2.364   6.444  18.743  0.00  0.00    +0.000 OA
ATOM      5  C   UNL     1       3.263   5.632  18.112  0.00  0.00    +0.000 A 
ENDROOT
BRANCH   3   6
ATOM      6  C   UNL     1       1.794   8.722  18.924  0.00  0.00    +0.000 A 
ATOM      7  C   UNL     1       1.432   9.883  18.211  0.00  0.00    +0.000 A 
ATOM      8  C   UNL     1       0.610  10.857  18.781  0.00  0.00    +0.000 A 
ATOM      9  C   UNL     1       0.132  10.690  20.075  0.00  0.00    +0.000 A 
ATOM     10  C   UNL     1       0.479   9.540  20.802  0.00  0.00    +0.000 A 
ATOM     11  C   UNL     1       1.302   8.557  20.231  0.00  0.00    +0.000 A 
BRANCH  10  12
ATOM     12  N   UNL     1      -0.014   9.351  22.163  0.00  0.00    +0.000 N 
ATOM     13  O   UNL     1       0.372  10.158  23.027  0.00  0.00    +0.000 OA
ATOM     14  O   UNL     1      -0.782   8.415  22.390  0.00  0.00    +0.000 OA
ENDBRANCH  10  12
ENDBRANCH   3   6
BRANCH   5  15
ATOM     15  N   UNL     1       3.132   4.308  18.484  0.00  0.00    +0.000 N 
ATOM     16  C   UNL     1       2.234   3.444  17.753  0.00  0.00    +0.000 C 
ATOM     17  C   UNL     1       1.547   2.518  18.754  0.00  0.00    +0.000 C 
ATOM     18  C   UNL     1       2.598   1.561  19.297  0.00  0.00    +0.000 C 
ATOM     19  C   UNL     1       3.772   2.351  19.884  0.00  0.00    +0.000 C 
ATOM     20  C   UNL     1       4.272   3.506  18.984  0.00  0.00    +0.000 C 
ENDBRANCH   5  15
BRANCH   1  21
ATOM     21  P   UNL     1       5.404   6.028  16.139  0.00  0.00    +0.000 P 
ATOM     22  O   UNL     1       4.531   4.805  15.840  0.00  0.00    +0.000 OA
BRANCH  21  23
ATOM     23  O   UNL     1       6.691   5.602  15.064  0.00  0.00    +0.000 OA
BRANCH  23  25
ATOM     24  C   UNL     1       6.449   4.016  13.253  0.00  0.00    +0.000 C 
ATOM     25  C   UNL     1       6.761   4.215  14.720  0.00  0.00    +0.000 C 
ENDBRANCH  23  25
ENDBRANCH  21  23
BRANCH  21  26
ATOM     26  O   UNL     1       6.560   5.580  17.270  0.00  0.00    +0.000 OA
BRANCH  26  27
ATOM     27  C   UNL     1       7.321   6.535  18.060  0.00  0.00    +0.000 C 
ATOM     28  C   UNL     1       7.722   7.932  17.600  0.00  0.00    +0.000 C 
ENDBRANCH  26  27
ENDBRANCH  21  26
ENDBRANCH   1  21
TORSDOF 8
ENDMDL
MODEL 3
REMARK VINA RESULT:      -7.5      1.116      1.194
REMARK  Name = 
REMARK  10 active torsions:
REMARK  status: ('A' for Active; 'I' for Inactive)
REMARK    1  A    between atoms: C_1  and  C_2
REMARK    2  A    between atoms: C_2  and  O_3
REMARK    3  A    between atoms: O_3  and  P_4
REMARK    4  A    between atoms: P_4  and  O_6
REMARK    5  A    between atoms: P_4  and  C_9
REMARK    6  A    between atoms: O_6  and  C_7
REMARK    7  A    between atoms: C_7  and  C_8
REMARK    8  A    between atoms: C_11  and  C_12
REMARK    9  A    between atoms: C_16  and  N_17
REMARK   10  A    between atoms: C_22  and  N_23
REMARK                            x       y       z     vdW  Elec       q    Type
REMARK                         _______ _______ _______ _____ _____    ______ ____
ROOT
ATOM      1  C   UNL     1       3.532   6.818  17.715  0.00  0.00    +0.000 A 
ATOM      2  N   UNL     1       3.246   8.162  18.008  0.00  0.00    +0.000 NA
ATOM      3  C   UNL     1       2.158   8.107  18.747  0.00  0.00    +0.000 A 
ATOM      4  O   UNL     1       1.745   6.859  19.048  0.00  0.00    +0.000 OA
ATOM      5  C   UNL     1       2.624   6.004  18.446  0.00  0.00    +0.000 A 
ENDROOT
BRANCH   3   6
ATOM      6  C   UNL     1       1.343   9.166  19.298  0.00  0.00    +0.000 A 
ATOM      7  C   UNL     1       0.859  10.230  18.509  0.00  0.00    +0.000 A 
ATOM      8  C   UNL     1       0.079  11.247  19.063  0.00  0.00    +0.000 A 
ATOM      9  C   UNL     1      -0.233  11.222  20.417  0.00  0.00    +0.000 A 
ATOM     10  C   UNL     1       0.239  10.170  21.221  0.00  0.00    +0.000 A 
ATOM     11  C   UNL     1       1.019   9.145  20.666  0.00  0.00    +0.000 A 
BRANCH  10  12
ATOM     12  N   UNL     1      -0.078  10.132  22.645  0.00  0.00    +0.000 N 
ATOM     13  O   UNL     1       0.786   9.670  23.411  0.00  0.00    +0.000 OA
ATOM     14  O   UNL     1      -1.174  10.556  23.018  0.00  0.00    +0.000 OA
ENDBRANCH  10  12
ENDBRANCH   3   6
BRANCH   5  15
ATOM     15  N   UNL     1       2.359   4.680  18.742  0.00  0.00    +0.000 N 
ATOM     16  C   UNL     1       1.916   4.318  20.069  0.00  0.00    +0.000 C 
ATOM     17  C   UNL     1       2.577   2.994  20.444  0.00  0.00    +0.000 C 
ATOM     18  C   UNL     1       1.978   1.910  19.560  0.00  0.00    +0.000 C 
ATOM     19  C   UNL     1       2.137   2.290  18.084  0.00  0.00    +0.000 C 
ATOM     20  C   UNL     1       1.752   3.753  17.761  0.00  0.00    +0.000 C 
ENDBRANCH   5  15
BRANCH   1  21
ATOM     21  P   UNL     1       4.939   6.307  16.663  0.00  0.00    +0.000 P 
ATOM     22  O   UNL     1       4.999   5.105  17.611  0.00  0.00    +0.000 OA
BRANCH  21  23
ATOM     23  O   UNL     1       6.270   5.823  15.669  0.00  0.00    +0.000 OA
BRANCH  23  25
ATOM     24  C   UNL     1       6.343   4.140  13.932  0.00  0.00    +0.000 C 
ATOM     25  C   UNL     1       6.362   4.418  15.420  0.00  0.00    +0.000 C 
ENDBRANCH  23  25
ENDBRANCH  21  23
BRANCH  21  26
ATOM     26  O   UNL     1       6.076   7.431  17.173  0.00  0.00    +0.000 OA
BRANCH  26  27
ATOM     27  C   UNL     1       7.456   7.092  17.484  0.00  0.00    +0.000 C 
ATOM     28  C   UNL     1       7.930   6.448  18.782  0.00  0.00    +0.000 C 
ENDBRANCH  26  27
ENDBRANCH  21  26
ENDBRANCH   1  21
TORSDOF 8
ENDMDL
MODEL 4
REMARK VINA RESULT:      -7.5      2.039      2.426
REMARK  Name = 
REMARK  10 active torsions:
REMARK  status: ('A' for Active; 'I' for Inactive)
REMARK    1  A    between atoms: C_1  and  C_2
REMARK    2  A    between atoms: C_2  and  O_3
REMARK    3  A    between atoms: O_3  and  P_4
REMARK    4  A    between atoms: P_4  and  O_6
REMARK    5  A    between atoms: P_4  and  C_9
REMARK    6  A    between atoms: O_6  and  C_7
REMARK    7  A    between atoms: C_7  and  C_8
REMARK    8  A    between atoms: C_11  and  C_12
REMARK    9  A    between atoms: C_16  and  N_17
REMARK   10  A    between atoms: C_22  and  N_23
REMARK                            x       y       z     vdW  Elec       q    Type
REMARK                         _______ _______ _______ _____ _____    ______ ____
ROOT
ATOM      1  C   UNL     1       3.697   6.725  17.607  0.00  0.00    +0.000 A 
ATOM      2  N   UNL     1       3.534   8.114  17.480  0.00  0.00    +0.000 NA
ATOM      3  C   UNL     1       2.394   8.362  18.089  0.00  0.00    +0.000 A 
ATOM      4  O   UNL     1       1.829   7.292  18.684  0.00  0.00    +0.000 OA
ATOM      5  C   UNL     1       2.655   6.232  18.440  0.00  0.00    +0.000 A 
ENDROOT
BRANCH   3   6
ATOM      6  C   UNL     1       1.656   9.597  18.235  0.00  0.00    +0.000 A 
ATOM      7  C   UNL     1       2.299  10.849  18.330  0.00  0.00    +0.000 A 
ATOM      8  C   UNL     1       1.567  12.030  18.478  0.00  0.00    +0.000 A 
ATOM      9  C   UNL     1       0.179  11.983  18.532  0.00  0.00    +0.000 A 
ATOM     10  C   UNL     1      -0.480  10.746  18.436  0.00  0.00    +0.000 A 
ATOM     11  C   UNL     1       0.252   9.559  18.284  0.00  0.00    +0.000 A 
BRANCH  10  12
ATOM     12  N   UNL     1      -1.937  10.682  18.494  0.00  0.00    +0.000 N 
ATOM     13  O   UNL     1      -2.490   9.725  17.922  0.00  0.00    +0.000 OA
ATOM     14  O   UNL     1      -2.545  11.565  19.101  0.00  0.00    +0.000 OA
ENDBRANCH  10  12
ENDBRANCH   3   6
BRANCH   5  15
ATOM     15  N   UNL     1       2.230   5.076  19.066  0.00  0.00    +0.000 N 
ATOM     16  C   UNL     1       2.123   3.849  18.308  0.00  0.00    +0.000 C 
ATOM     17  C   UNL     1       0.879   3.104  18.786  0.00  0.00    +0.000 C 
ATOM     18  C   UNL     1       1.142   2.624  20.206  0.00  0.00    +0.000 C 
ATOM     19  C   UNL     1       1.539   3.808  21.094  0.00  0.00    +0.000 C 
ATOM     20  C   UNL     1       2.593   4.749  20.463  0.00  0.00    +0.000 C 
ENDBRANCH   5  15
BRANCH   1  21
ATOM     21  P   UNL     1       5.118   5.820  16.892  0.00  0.00    +0.000 P 
ATOM     22  O   UNL     1       5.312   5.320  18.326  0.00  0.00    +0.000 OA
BRANCH  21  23
ATOM     23  O   UNL     1       6.461   4.965  16.215  0.00  0.00    +0.000 OA
BRANCH  23  25
ATOM     24  C   UNL     1       6.325   4.114  13.955  0.00  0.00    +0.000 C 
ATOM     25  C   UNL     1       6.118   3.823  15.425  0.00  0.00    +0.000 C 
ENDBRANCH  23  25
ENDBRANCH  21  23
BRANCH  21  26
ATOM     26  O   UNL     1       6.159   7.112  16.643  0.00  0.00    +0.000 OA
BRANCH  26  27
ATOM     27  C   UNL     1       7.379   7.318  17.408  0.00  0.00    +0.000 C 
ATOM     28  C   UNL     1       7.986   8.675  17.745  0.00  0.00    +0.000 C 
ENDBRANCH  26  27
ENDBRANCH  21  26
ENDBRANCH   1  21
TORSDOF 8
ENDMDL
MODEL 5
REMARK VINA RESULT:      -7.5      1.721      1.984
REMARK  Name = 
REMARK  10 active torsions:
REMARK  status: ('A' for Active; 'I' for Inactive)
REMARK    1  A    between atoms: C_1  and  C_2
REMARK    2  A    between atoms: C_2  and  O_3
REMARK    3  A    between atoms: O_3  and  P_4
REMARK    4  A    between atoms: P_4  and  O_6
REMARK    5  A    between atoms: P_4  and  C_9
REMARK    6  A    between atoms: O_6  and  C_7
REMARK    7  A    between atoms: C_7  and  C_8
REMARK    8  A    between atoms: C_11  and  C_12
REMARK    9  A    between atoms: C_16  and  N_17
REMARK   10  A    between atoms: C_22  and  N_23
REMARK                            x       y       z     vdW  Elec       q    Type
REMARK                         _______ _______ _______ _____ _____    ______ ____
ROOT
ATOM      1  C   UNL     1       3.887   6.585  17.428  0.00  0.00    +0.000 A 
ATOM      2  N   UNL     1       3.517   7.889  17.798  0.00  0.00    +0.000 NA
ATOM      3  C   UNL     1       2.510   7.715  18.628  0.00  0.00    +0.000 A 
ATOM      4  O   UNL     1       2.231   6.427  18.913  0.00  0.00    +0.000 OA
ATOM      5  C   UNL     1       3.121   5.671  18.203  0.00  0.00    +0.000 A 
ENDROOT
BRANCH   3   6
ATOM      6  C   UNL     1       1.662   8.681  19.291  0.00  0.00    +0.000 A 
ATOM      7  C   UNL     1       1.133   8.457  20.579  0.00  0.00    +0.000 A 
ATOM      8  C   UNL     1       0.310   9.400  21.198  0.00  0.00    +0.000 A 
ATOM      9  C   UNL     1       0.000  10.586  20.544  0.00  0.00    +0.000 A 
ATOM     10  C   UNL     1       0.519  10.830  19.261  0.00  0.00    +0.000 A 
ATOM     11  C   UNL     1       1.349   9.886  18.637  0.00  0.00    +0.000 A 
BRANCH  10  12
ATOM     12  N   UNL     1       0.200  12.069  18.561  0.00  0.00    +0.000 N 
ATOM     13  O   UNL     1       1.128  12.876  18.376  0.00  0.00    +0.000 OA
ATOM     14  O   UNL     1      -0.959  12.256  18.187  0.00  0.00    +0.000 OA
ENDBRANCH  10  12
ENDBRANCH   3   6
BRANCH   5  15
ATOM     15  N   UNL     1       2.996   4.321  18.467  0.00  0.00    +0.000 N 
ATOM     16  C   UNL     1       3.351   3.812  19.773  0.00  0.00    +0.000 C 
ATOM     17  C   UNL     1       4.037   2.461  19.584  0.00  0.00    +0.000 C 
ATOM     18  C   UNL     1       2.990   1.474  19.088  0.00  0.00    +0.000 C 
ATOM     19  C   UNL     1       2.319   2.014  17.821  0.00  0.00    +0.000 C 
ATOM     20  C   UNL     1       1.897   3.500  17.911  0.00  0.00    +0.000 C 
ENDBRANCH   5  15
BRANCH   1  21
ATOM     21  P   UNL     1       5.230   6.233  16.236  0.00  0.00    +0.000 P 
ATOM     22  O   UNL     1       5.570   5.097  17.206  0.00  0.00    +0.000 OA
BRANCH  21  23
ATOM     23  O   UNL     1       6.501   5.899  15.110  0.00  0.00    +0.000 OA
BRANCH  23  25
ATOM     24  C   UNL     1       6.198   3.914  13.761  0.00  0.00    +0.000 C 
ATOM     25  C   UNL     1       6.853   4.519  14.984  0.00  0.00    +0.000 C 
ENDBRANCH  23  25
ENDBRANCH  21  23
BRANCH  21  26
ATOM     26  O   UNL     1       6.238   7.531  16.578  0.00  0.00    +0.000 OA
BRANCH  26  27
ATOM     27  C   UNL     1       7.416   7.430  17.425  0.00  0.00    +0.000 C 
ATOM     28  C   UNL     1       8.208   8.613  17.971  0.00  0.00    +0.000 C 
ENDBRANCH  26  27
ENDBRANCH  21  26
ENDBRANCH   1  21
TORSDOF 8
ENDMDL
MODEL 6
REMARK VINA RESULT:      -7.4      0.950      1.441
REMARK  Name = 
REMARK  10 active torsions:
REMARK  status: ('A' for Active; 'I' for Inactive)
REMARK    1  A    between atoms: C_1  and  C_2
REMARK    2  A    between atoms: C_2  and  O_3
REMARK    3  A    between atoms: O_3  and  P_4
REMARK    4  A    between atoms: P_4  and  O_6
REMARK    5  A    between atoms: P_4  and  C_9
REMARK    6  A    between atoms: O_6  and  C_7
REMARK    7  A    between atoms: C_7  and  C_8
REMARK    8  A    between atoms: C_11  and  C_12
REMARK    9  A    between atoms: C_16  and  N_17
REMARK   10  A    between atoms: C_22  and  N_23
REMARK                            x       y       z     vdW  Elec       q    Type
REMARK                         _______ _______ _______ _____ _____    ______ ____
ROOT
ATOM      1  C   UNL     1       3.763   6.274  17.770  0.00  0.00    +0.000 A 
ATOM      2  N   UNL     1       3.554   7.656  17.899  0.00  0.00    +0.000 NA
ATOM      3  C   UNL     1       2.450   7.751  18.610  0.00  0.00    +0.000 A 
ATOM      4  O   UNL     1       1.956   6.572  19.041  0.00  0.00    +0.000 OA
ATOM      5  C   UNL     1       2.793   5.603  18.565  0.00  0.00    +0.000 A 
ENDROOT
BRANCH   3   6
ATOM      6  C   UNL     1       1.690   8.912  19.015  0.00  0.00    +0.000 A 
ATOM      7  C   UNL     1       1.375   9.953  18.117  0.00  0.00    +0.000 A 
ATOM      8  C   UNL     1       0.645  11.070  18.530  0.00  0.00    +0.000 A 
ATOM      9  C   UNL     1       0.216  11.169  19.848  0.00  0.00    +0.000 A 
ATOM     10  C   UNL     1       0.519  10.142  20.758  0.00  0.00    +0.000 A 
ATOM     11  C   UNL     1       1.248   9.017  20.345  0.00  0.00    +0.000 A 
BRANCH  10  12
ATOM     12  N   UNL     1       0.077  10.233  22.146  0.00  0.00    +0.000 N 
ATOM     13  O   UNL     1      -0.970  10.864  22.372  0.00  0.00    +0.000 OA
ATOM     14  O   UNL     1       0.753   9.685  23.019  0.00  0.00    +0.000 OA
ENDBRANCH  10  12
ENDBRANCH   3   6
BRANCH   5  15
ATOM     15  N   UNL     1       2.443   4.341  19.003  0.00  0.00    +0.000 N 
ATOM     16  C   UNL     1       2.077   3.326  18.041  0.00  0.00    +0.000 C 
ATOM     17  C   UNL     1       0.927   2.511  18.627  0.00  0.00    +0.000 C 
ATOM     18  C   UNL     1       1.476   1.710  19.799  0.00  0.00    +0.000 C 
ATOM     19  C   UNL     1       2.150   2.648  20.805  0.00  0.00    +0.000 C 
ATOM     20  C   UNL     1       3.095   3.692  20.163  0.00  0.00    +0.000 C 
ENDBRANCH   5  15
BRANCH   1  21
ATOM     21  P   UNL     1       5.158   5.563  16.822  0.00  0.00    +0.000 P 
ATOM     22  O   UNL     1       5.528   4.920  18.162  0.00  0.00    +0.000 OA
BRANCH  21  23
ATOM     23  O   UNL     1       6.476   4.890  15.926  0.00  0.00    +0.000 OA
BRANCH  23  25
ATOM     24  C   UNL     1       7.074   4.809  13.583  0.00  0.00    +0.000 C 
ATOM     25  C   UNL     1       6.125   4.328  14.659  0.00  0.00    +0.000 C 
ENDBRANCH  23  25
ENDBRANCH  21  23
BRANCH  21  26
ATOM     26  O   UNL     1       6.087   6.948  16.633  0.00  0.00    +0.000 OA
BRANCH  26  27
ATOM     27  C   UNL     1       7.330   7.183  17.349  0.00  0.00    +0.000 C 
ATOM     28  C   UNL     1       7.887   8.555  17.714  0.00  0.00    +0.000 C 
ENDBRANCH  26  27
ENDBRANCH  21  26
ENDBRANCH   1  21
TORSDOF 8
ENDMDL
MODEL 7
REMARK VINA RESULT:      -7.4      3.321      8.177
REMARK  Name = 
REMARK  10 active torsions:
REMARK  status: ('A' for Active; 'I' for Inactive)
REMARK    1  A    between atoms: C_1  and  C_2
REMARK    2  A    between atoms: C_2  and  O_3
REMARK    3  A    between atoms: O_3  and  P_4
REMARK    4  A    between atoms: P_4  and  O_6
REMARK    5  A    between atoms: P_4  and  C_9
REMARK    6  A    between atoms: O_6  and  C_7
REMARK    7  A    between atoms: C_7  and  C_8
REMARK    8  A    between atoms: C_11  and  C_12
REMARK    9  A    between atoms: C_16  and  N_17
REMARK   10  A    between atoms: C_22  and  N_23
REMARK                            x       y       z     vdW  Elec       q    Type
REMARK                         _______ _______ _______ _____ _____    ______ ____
ROOT
ATOM      1  C   UNL     1       4.329   4.043  18.157  0.00  0.00    +0.000 A 
ATOM      2  N   UNL     1       5.176   3.482  17.187  0.00  0.00    +0.000 NA
ATOM      3  C   UNL     1       5.186   4.368  16.215  0.00  0.00    +0.000 A 
ATOM      4  O   UNL     1       4.502   5.500  16.479  0.00  0.00    +0.000 OA
ATOM      5  C   UNL     1       3.977   5.354  17.731  0.00  0.00    +0.000 A 
ENDROOT
BRANCH   3   6
ATOM      6  C   UNL     1       5.820   4.331  14.916  0.00  0.00    +0.000 A 
ATOM      7  C   UNL     1       6.979   5.080  14.624  0.00  0.00    +0.000 A 
ATOM      8  C   UNL     1       7.572   5.035  13.360  0.00  0.00    +0.000 A 
ATOM      9  C   UNL     1       7.019   4.241  12.363  0.00  0.00    +0.000 A 
ATOM     10  C   UNL     1       5.865   3.485  12.634  0.00  0.00    +0.000 A 
ATOM     11  C   UNL     1       5.270   3.525  13.904  0.00  0.00    +0.000 A 
BRANCH  10  12
ATOM     12  N   UNL     1       5.272   2.649  11.596  0.00  0.00    +0.000 N 
ATOM     13  O   UNL     1       5.899   1.630  11.255  0.00  0.00    +0.000 OA
ATOM     14  O   UNL     1       4.189   2.984  11.114  0.00  0.00    +0.000 OA
ENDBRANCH  10  12
ENDBRANCH   3   6
BRANCH   5  15
ATOM     15  N   UNL     1       3.311   6.485  18.162  0.00  0.00    +0.000 N 
ATOM     16  C   UNL     1       3.177   6.741  19.578  0.00  0.00    +0.000 C 
ATOM     17  C   UNL     1       1.787   7.321  19.825  0.00  0.00    +0.000 C 
ATOM     18  C   UNL     1       1.747   8.711  19.206  0.00  0.00    +0.000 C 
ATOM     19  C   UNL     1       2.138   8.637  17.726  0.00  0.00    +0.000 C 
ATOM     20  C   UNL     1       3.393   7.776  17.444  0.00  0.00    +0.000 C 
ENDBRANCH   5  15
BRANCH   1  21
ATOM     21  P   UNL     1       3.918   3.198  19.728  0.00  0.00    +0.000 P 
ATOM     22  O   UNL     1       5.411   2.859  19.746  0.00  0.00    +0.000 OA
BRANCH  21  23
ATOM     23  O   UNL     1       3.529   2.400  21.212  0.00  0.00    +0.000 OA
BRANCH  23  25
ATOM     24  C   UNL     1       1.813   4.097  21.381  0.00  0.00    +0.000 C 
ATOM     25  C   UNL     1       2.228   2.685  21.732  0.00  0.00    +0.000 C 
ENDBRANCH  23  25
ENDBRANCH  21  23
BRANCH  21  26
ATOM     26  O   UNL     1       3.089   1.876  19.111  0.00  0.00    +0.000 OA
BRANCH  26  27
ATOM     27  C   UNL     1       1.972   1.989  18.186  0.00  0.00    +0.000 C 
ATOM     28  C   UNL     1       0.541   2.337  18.578  0.00  0.00    +0.000 C 
ENDBRANCH  26  27
ENDBRANCH  21  26
ENDBRANCH   1  21
TORSDOF 8
ENDMDL
MODEL 8
REMARK VINA RESULT:      -7.4      2.234      2.568
REMARK  Name = 
REMARK  10 active torsions:
REMARK  status: ('A' for Active; 'I' for Inactive)
REMARK    1  A    between atoms: C_1  and  C_2
REMARK    2  A    between atoms: C_2  and  O_3
REMARK    3  A    between atoms: O_3  and  P_4
REMARK    4  A    between atoms: P_4  and  O_6
REMARK    5  A    between atoms: P_4  and  C_9
REMARK    6  A    between atoms: O_6  and  C_7
REMARK    7  A    between atoms: C_7  and  C_8
REMARK    8  A    between atoms: C_11  and  C_12
REMARK    9  A    between atoms: C_16  and  N_17
REMARK   10  A    between atoms: C_22  and  N_23
REMARK                            x       y       z     vdW  Elec       q    Type
REMARK                         _______ _______ _______ _____ _____    ______ ____
ROOT
ATOM      1  C   UNL     1       3.612   6.635  17.722  0.00  0.00    +0.000 A 
ATOM      2  N   UNL     1       3.435   8.020  17.573  0.00  0.00    +0.000 NA
ATOM      3  C   UNL     1       2.300   8.269  18.191  0.00  0.00    +0.000 A 
ATOM      4  O   UNL     1       1.751   7.204  18.810  0.00  0.00    +0.000 OA
ATOM      5  C   UNL     1       2.584   6.147  18.575  0.00  0.00    +0.000 A 
ENDROOT
BRANCH   3   6
ATOM      6  C   UNL     1       1.552   9.500  18.323  0.00  0.00    +0.000 A 
ATOM      7  C   UNL     1       0.144   9.534  18.255  0.00  0.00    +0.000 A 
ATOM      8  C   UNL     1      -0.558  10.735  18.379  0.00  0.00    +0.000 A 
ATOM      9  C   UNL     1       0.133  11.925  18.573  0.00  0.00    +0.000 A 
ATOM     10  C   UNL     1       1.536  11.912  18.645  0.00  0.00    +0.000 A 
ATOM     11  C   UNL     1       2.244  10.707  18.525  0.00  0.00    +0.000 A 
BRANCH  10  12
ATOM     12  N   UNL     1       2.275  13.154  18.845  0.00  0.00    +0.000 N 
ATOM     13  O   UNL     1       2.463  13.525  20.017  0.00  0.00    +0.000 OA
ATOM     14  O   UNL     1       2.678  13.769  17.856  0.00  0.00    +0.000 OA
ENDBRANCH  10  12
ENDBRANCH   3   6
BRANCH   5  15
ATOM     15  N   UNL     1       2.177   4.998  19.226  0.00  0.00    +0.000 N 
ATOM     16  C   UNL     1       1.663   5.083  20.574  0.00  0.00    +0.000 C 
ATOM     17  C   UNL     1       2.174   3.874  21.353  0.00  0.00    +0.000 C 
ATOM     18  C   UNL     1       1.491   2.636  20.788  0.00  0.00    +0.000 C 
ATOM     19  C   UNL     1       1.729   2.550  19.277  0.00  0.00    +0.000 C 
ATOM     20  C   UNL     1       1.505   3.883  18.523  0.00  0.00    +0.000 C 
ENDBRANCH   5  15
BRANCH   1  21
ATOM     21  P   UNL     1       5.033   5.731  17.006  0.00  0.00    +0.000 P 
ATOM     22  O   UNL     1       5.286   5.309  18.456  0.00  0.00    +0.000 OA
BRANCH  21  23
ATOM     23  O   UNL     1       6.377   4.876  16.329  0.00  0.00    +0.000 OA
BRANCH  23  25
ATOM     24  C   UNL     1       6.315   4.172  14.015  0.00  0.00    +0.000 C 
ATOM     25  C   UNL     1       6.032   3.799  15.454  0.00  0.00    +0.000 C 
ENDBRANCH  23  25
ENDBRANCH  21  23
BRANCH  21  26
ATOM     26  O   UNL     1       6.032   7.034  16.660  0.00  0.00    +0.000 OA
BRANCH  26  27
ATOM     27  C   UNL     1       7.339   7.228  17.269  0.00  0.00    +0.000 C 
ATOM     28  C   UNL     1       7.886   8.560  17.768  0.00  0.00    +0.000 C 
ENDBRANCH  26  27
ENDBRANCH  21  26
ENDBRANCH   1  21
TORSDOF 8
ENDMDL
MODEL 9
REMARK VINA RESULT:      -7.3      1.974      2.477
REMARK  Name = 
REMARK  10 active torsions:
REMARK  status: ('A' for Active; 'I' for Inactive)
REMARK    1  A    between atoms: C_1  and  C_2
REMARK    2  A    between atoms: C_2  and  O_3
REMARK    3  A    between atoms: O_3  and  P_4
REMARK    4  A    between atoms: P_4  and  O_6
REMARK    5  A    between atoms: P_4  and  C_9
REMARK    6  A    between atoms: O_6  and  C_7
REMARK    7  A    between atoms: C_7  and  C_8
REMARK    8  A    between atoms: C_11  and  C_12
REMARK    9  A    between atoms: C_16  and  N_17
REMARK   10  A    between atoms: C_22  and  N_23
REMARK                            x       y       z     vdW  Elec       q    Type
REMARK                         _______ _______ _______ _____ _____    ______ ____
ROOT
ATOM      1  C   UNL     1       3.737   6.729  17.585  0.00  0.00    +0.000 A 
ATOM      2  N   UNL     1       3.441   8.080  17.827  0.00  0.00    +0.000 NA
ATOM      3  C   UNL     1       2.389   8.044  18.616  0.00  0.00    +0.000 A 
ATOM      4  O   UNL     1       2.011   6.806  18.994  0.00  0.00    +0.000 OA
ATOM      5  C   UNL     1       2.877   5.936  18.394  0.00  0.00    +0.000 A 
ENDROOT
BRANCH   3   6
ATOM      6  C   UNL     1       1.581   9.115  19.154  0.00  0.00    +0.000 A 
ATOM      7  C   UNL     1       0.771   8.945  20.296  0.00  0.00    +0.000 A 
ATOM      8  C   UNL     1      -0.008   9.992  20.795  0.00  0.00    +0.000 A 
ATOM      9  C   UNL     1       0.008  11.229  20.162  0.00  0.00    +0.000 A 
ATOM     10  C   UNL     1       0.809  11.420  19.025  0.00  0.00    +0.000 A 
ATOM     11  C   UNL     1       1.596  10.372  18.523  0.00  0.00    +0.000 A 
BRANCH  10  12
ATOM     12  N   UNL     1       0.833  12.713  18.349  0.00  0.00    +0.000 N 
ATOM     13  O   UNL     1      -0.260  13.257  18.115  0.00  0.00    +0.000 OA
ATOM     14  O   UNL     1       1.923  13.203  18.048  0.00  0.00    +0.000 OA
ENDBRANCH  10  12
ENDBRANCH   3   6
BRANCH   5  15
ATOM     15  N   UNL     1       2.649   4.624  18.762  0.00  0.00    +0.000 N 
ATOM     16  C   UNL     1       2.198   3.671  17.773  0.00  0.00    +0.000 C 
ATOM     17  C   UNL     1       1.179   2.747  18.437  0.00  0.00    +0.000 C 
ATOM     18  C   UNL     1       1.923   1.887  19.448  0.00  0.00    +0.000 C 
ATOM     19  C   UNL     1       2.689   2.778  20.431  0.00  0.00    +0.000 C 
ATOM     20  C   UNL     1       3.486   3.922  19.761  0.00  0.00    +0.000 C 
ENDBRANCH   5  15
BRANCH   1  21
ATOM     21  P   UNL     1       5.106   6.189  16.495  0.00  0.00    +0.000 P 
ATOM     22  O   UNL     1       5.399   5.200  17.628  0.00  0.00    +0.000 OA
BRANCH  21  23
ATOM     23  O   UNL     1       6.399   5.679  15.466  0.00  0.00    +0.000 OA
BRANCH  23  25
ATOM     24  C   UNL     1       5.868   3.906  13.908  0.00  0.00    +0.000 C 
ATOM     25  C   UNL     1       6.478   4.269  15.244  0.00  0.00    +0.000 C 
ENDBRANCH  23  25
ENDBRANCH  21  23
BRANCH  21  26
ATOM     26  O   UNL     1       6.127   7.508  16.677  0.00  0.00    +0.000 OA
BRANCH  26  27
ATOM     27  C   UNL     1       7.346   7.476  17.470  0.00  0.00    +0.000 C 
ATOM     28  C   UNL     1       8.134   8.702  17.918  0.00  0.00    +0.000 C 
ENDBRANCH  26  27
ENDBRANCH  21  26
ENDBRANCH   1  21
TORSDOF 8
ENDMDL
