MODEL 1
REMARK VINA RESULT:      -8.4      0.000      0.000
REMARK  Name = 
REMARK  7 active torsions:
REMARK  status: ('A' for Active; 'I' for Inactive)
REMARK    1  A    between atoms: C_1  and  C_2
REMARK    2  A    between atoms: C_2  and  O_4
REMARK    3  A    between atoms: O_4  and  C_5
REMARK    4  A    between atoms: C_5  and  C_6
REMARK    5  A    between atoms: C_13  and  C_14
REMARK    6  A    between atoms: C_14  and  O_16
REMARK    7  A    between atoms: O_16  and  C_17
REMARK                            x       y       z     vdW  Elec       q    Type
REMARK                         _______ _______ _______ _____ _____    ______ ____
ROOT
ATOM      1  C   UNL     1       5.898   3.731  12.874  0.00  0.00    +0.000 A 
ATOM      2  C   UNL     1       7.048   4.509  12.665  0.00  0.00    +0.000 A 
ATOM      3  C   UNL     1       7.639   5.193  13.724  0.00  0.00    +0.000 A 
ATOM      4  C   UNL     1       7.075   5.090  14.992  0.00  0.00    +0.000 A 
ATOM      5  O   UNL     1       7.691   5.806  16.033  0.00  0.00    +0.000 OA
ATOM      6  C   UNL     1       7.205   5.772  17.338  0.00  0.00    +0.000 A 
ATOM      7  O   UNL     1       7.813   6.345  18.236  0.00  0.00    +0.000 OA
ATOM      8  C   UNL     1       5.959   5.008  17.566  0.00  0.00    +0.000 A 
ATOM      9  C   UNL     1       5.382   4.307  16.573  0.00  0.00    +0.000 A 
ATOM     10  C   UNL     1       5.944   4.321  15.233  0.00  0.00    +0.000 A 
ATOM     11  C   UNL     1       5.354   3.637  14.166  0.00  0.00    +0.000 A 
ENDROOT
BRANCH   8  12
ATOM     12  C   UNL     1       5.215   5.048  18.851  0.00  0.00    +0.000 C 
ATOM     13  O   UNL     1       5.584   4.484  19.872  0.00  0.00    +0.000 OA
BRANCH  12  14
ATOM     14  O   UNL     1       3.997   5.674  18.671  0.00  0.00    +0.000 OA
BRANCH  14  15
ATOM     15  C   UNL     1       2.858   4.953  19.062  0.00  0.00    +0.000 A 
ATOM     16  C   UNL     1       2.272   4.116  18.115  0.00  0.00    +0.000 A 
ATOM     17  C   UNL     1       1.239   3.261  18.504  0.00  0.00    +0.000 A 
ATOM     18  C   UNL     1       0.812   3.239  19.833  0.00  0.00    +0.000 A 
ATOM     19  C   UNL     1       1.409   4.075  20.776  0.00  0.00    +0.000 A 
ATOM     20  C   UNL     1       2.438   4.931  20.393  0.00  0.00    +0.000 A 
ENDBRANCH  14  15
ENDBRANCH  12  14
ENDBRANCH   8  12
BRANCH   1  21
ATOM     21  C   UNL     1       5.228   3.044  11.708  0.00  0.00    +0.000 C 
BRANCH  21  22
ATOM     22  O   UNL     1       4.427   3.982  10.976  0.00  0.00    +0.000 OA
BRANCH  22  24
ATOM     23  C   UNL     1       2.743   4.407   9.405  0.00  0.00    +0.000 C 
ATOM     24  C   UNL     1       3.288   3.468  10.437  0.00  0.00    +0.000 C 
ATOM     25  O   UNL     1       2.776   2.397  10.733  0.00  0.00    +0.000 OA
ENDBRANCH  22  24
ENDBRANCH  21  22
ENDBRANCH   1  21
TORSDOF 6
ENDMDL
MODEL 2
REMARK VINA RESULT:      -8.4      0.673      1.150
REMARK  Name = 
REMARK  7 active torsions:
REMARK  status: ('A' for Active; 'I' for Inactive)
REMARK    1  A    between atoms: C_1  and  C_2
REMARK    2  A    between atoms: C_2  and  O_4
REMARK    3  A    between atoms: O_4  and  C_5
REMARK    4  A    between atoms: C_5  and  C_6
REMARK    5  A    between atoms: C_13  and  C_14
REMARK    6  A    between atoms: C_14  and  O_16
REMARK    7  A    between atoms: O_16  and  C_17
REMARK                            x       y       z     vdW  Elec       q    Type
REMARK                         _______ _______ _______ _____ _____    ______ ____
ROOT
ATOM      1  C   UNL     1       5.552   3.596  12.391  0.00  0.00    +0.000 A 
ATOM      2  C   UNL     1       6.789   4.210  12.134  0.00  0.00    +0.000 A 
ATOM      3  C   UNL     1       7.471   4.873  13.151  0.00  0.00    +0.000 A 
ATOM      4  C   UNL     1       6.912   4.914  14.425  0.00  0.00    +0.000 A 
ATOM      5  O   UNL     1       7.623   5.605  15.421  0.00  0.00    +0.000 OA
ATOM      6  C   UNL     1       7.150   5.706  16.727  0.00  0.00    +0.000 A 
ATOM      7  O   UNL     1       7.833   6.248  17.589  0.00  0.00    +0.000 OA
ATOM      8  C   UNL     1       5.819   5.120  17.002  0.00  0.00    +0.000 A 
ATOM      9  C   UNL     1       5.149   4.442  16.053  0.00  0.00    +0.000 A 
ATOM     10  C   UNL     1       5.695   4.309  14.712  0.00  0.00    +0.000 A 
ATOM     11  C   UNL     1       5.013   3.646  13.688  0.00  0.00    +0.000 A 
ENDROOT
BRANCH   8  12
ATOM     12  C   UNL     1       5.099   5.327  18.284  0.00  0.00    +0.000 C 
ATOM     13  O   UNL     1       5.601   5.150  19.386  0.00  0.00    +0.000 OA
BRANCH  12  14
ATOM     14  O   UNL     1       3.766   5.590  18.038  0.00  0.00    +0.000 OA
BRANCH  14  15
ATOM     15  C   UNL     1       2.834   4.794  18.721  0.00  0.00    +0.000 A 
ATOM     16  C   UNL     1       2.346   5.274  19.934  0.00  0.00    +0.000 A 
ATOM     17  C   UNL     1       1.302   4.597  20.568  0.00  0.00    +0.000 A 
ATOM     18  C   UNL     1       0.747   3.458  19.980  0.00  0.00    +0.000 A 
ATOM     19  C   UNL     1       1.237   2.988  18.761  0.00  0.00    +0.000 A 
ATOM     20  C   UNL     1       2.279   3.658  18.126  0.00  0.00    +0.000 A 
ENDBRANCH  14  15
ENDBRANCH  12  14
ENDBRANCH   8  12
BRANCH   1  21
ATOM     21  C   UNL     1       4.789   2.935  11.268  0.00  0.00    +0.000 C 
BRANCH  21  22
ATOM     22  O   UNL     1       3.524   3.583  11.082  0.00  0.00    +0.000 OA
BRANCH  22  24
ATOM     23  C   UNL     1       2.641   4.812   9.294  0.00  0.00    +0.000 C 
ATOM     24  C   UNL     1       2.992   3.460   9.836  0.00  0.00    +0.000 C 
ATOM     25  O   UNL     1       2.825   2.411   9.229  0.00  0.00    +0.000 OA
ENDBRANCH  22  24
ENDBRANCH  21  22
ENDBRANCH   1  21
TORSDOF 6
ENDMDL
MODEL 3
REMARK VINA RESULT:      -8.4      1.455      2.246
REMARK  Name = 
REMARK  7 active torsions:
REMARK  status: ('A' for Active; 'I' for Inactive)
REMARK    1  A    between atoms: C_1  and  C_2
REMARK    2  A    between atoms: C_2  and  O_4
REMARK    3  A    between atoms: O_4  and  C_5
REMARK    4  A    between atoms: C_5  and  C_6
REMARK    5  A    between atoms: C_13  and  C_14
REMARK    6  A    between atoms: C_14  and  O_16
REMARK    7  A    between atoms: O_16  and  C_17
REMARK                            x       y       z     vdW  Elec       q    Type
REMARK                         _______ _______ _______ _____ _____    ______ ____
ROOT
ATOM      1  C   UNL     1       5.911   3.736  12.561  0.00  0.00    +0.000 A 
ATOM      2  C   UNL     1       7.175   4.345  12.494  0.00  0.00    +0.000 A 
ATOM      3  C   UNL     1       7.687   5.028  13.594  0.00  0.00    +0.000 A 
ATOM      4  C   UNL     1       6.931   5.095  14.760  0.00  0.00    +0.000 A 
ATOM      5  O   UNL     1       7.475   5.806  15.844  0.00  0.00    +0.000 OA
ATOM      6  C   UNL     1       6.799   5.933  17.055  0.00  0.00    +0.000 A 
ATOM      7  O   UNL     1       7.337   6.492  18.004  0.00  0.00    +0.000 OA
ATOM      8  C   UNL     1       5.440   5.353  17.124  0.00  0.00    +0.000 A 
ATOM      9  C   UNL     1       4.928   4.656  16.093  0.00  0.00    +0.000 A 
ATOM     10  C   UNL     1       5.682   4.496  14.860  0.00  0.00    +0.000 A 
ATOM     11  C   UNL     1       5.171   3.812  13.754  0.00  0.00    +0.000 A 
ENDROOT
BRANCH   8  12
ATOM     12  C   UNL     1       4.524   5.586  18.269  0.00  0.00    +0.000 C 
ATOM     13  O   UNL     1       3.935   6.640  18.470  0.00  0.00    +0.000 OA
BRANCH  12  14
ATOM     14  O   UNL     1       4.565   4.508  19.132  0.00  0.00    +0.000 OA
BRANCH  14  15
ATOM     15  C   UNL     1       3.338   3.891  19.422  0.00  0.00    +0.000 A 
ATOM     16  C   UNL     1       2.584   4.421  20.467  0.00  0.00    +0.000 A 
ATOM     17  C   UNL     1       1.290   3.945  20.687  0.00  0.00    +0.000 A 
ATOM     18  C   UNL     1       0.758   2.956  19.857  0.00  0.00    +0.000 A 
ATOM     19  C   UNL     1       1.517   2.436  18.809  0.00  0.00    +0.000 A 
ATOM     20  C   UNL     1       2.809   2.906  18.586  0.00  0.00    +0.000 A 
ENDBRANCH  14  15
ENDBRANCH  12  14
ENDBRANCH   8  12
BRANCH   1  21
ATOM     21  C   UNL     1       5.336   3.053  11.344  0.00  0.00    +0.000 C 
BRANCH  21  22
ATOM     22  O   UNL     1       5.254   1.638  11.564  0.00  0.00    +0.000 OA
BRANCH  22  24
ATOM     23  C   UNL     1       6.079  -0.538  11.296  0.00  0.00    +0.000 C 
ATOM     24  C   UNL     1       6.350   0.931  11.179  0.00  0.00    +0.000 C 
ATOM     25  O   UNL     1       7.407   1.407  10.786  0.00  0.00    +0.000 OA
ENDBRANCH  22  24
ENDBRANCH  21  22
ENDBRANCH   1  21
TORSDOF 6
ENDMDL
MODEL 4
REMARK VINA RESULT:      -8.4      4.191      7.828
REMARK  Name = 
REMARK  7 active torsions:
REMARK  status: ('A' for Active; 'I' for Inactive)
REMARK    1  A    between atoms: C_1  and  C_2
REMARK    2  A    between atoms: C_2  and  O_4
REMARK    3  A    between atoms: O_4  and  C_5
REMARK    4  A    between atoms: C_5  and  C_6
REMARK    5  A    between atoms: C_13  and  C_14
REMARK    6  A    between atoms: C_14  and  O_16
REMARK    7  A    between atoms: O_16  and  C_17
REMARK                            x       y       z     vdW  Elec       q    Type
REMARK                         _______ _______ _______ _____ _____    ______ ____
ROOT
ATOM      1  C   UNL     1       0.847   9.209  19.801  0.00  0.00    +0.000 A 
ATOM      2  C   UNL     1       1.077   9.820  18.558  0.00  0.00    +0.000 A 
ATOM      3  C   UNL     1       1.988   9.269  17.660  0.00  0.00    +0.000 A 
ATOM      4  C   UNL     1       2.663   8.105  18.012  0.00  0.00    +0.000 A 
ATOM      5  O   UNL     1       3.585   7.587  17.086  0.00  0.00    +0.000 OA
ATOM      6  C   UNL     1       4.313   6.428  17.341  0.00  0.00    +0.000 A 
ATOM      7  O   UNL     1       5.050   5.962  16.479  0.00  0.00    +0.000 OA
ATOM      8  C   UNL     1       4.131   5.805  18.671  0.00  0.00    +0.000 A 
ATOM      9  C   UNL     1       3.234   6.290  19.548  0.00  0.00    +0.000 A 
ATOM     10  C   UNL     1       2.451   7.473  19.230  0.00  0.00    +0.000 A 
ATOM     11  C   UNL     1       1.536   8.028  20.128  0.00  0.00    +0.000 A 
ENDROOT
BRANCH   8  12
ATOM     12  C   UNL     1       4.984   4.692  19.161  0.00  0.00    +0.000 C 
ATOM     13  O   UNL     1       6.083   4.849  19.675  0.00  0.00    +0.000 OA
BRANCH  12  14
ATOM     14  O   UNL     1       4.423   3.480  18.810  0.00  0.00    +0.000 OA
BRANCH  14  15
ATOM     15  C   UNL     1       3.246   3.116  19.483  0.00  0.00    +0.000 A 
ATOM     16  C   UNL     1       3.330   2.916  20.860  0.00  0.00    +0.000 A 
ATOM     17  C   UNL     1       2.160   2.713  21.593  0.00  0.00    +0.000 A 
ATOM     18  C   UNL     1       0.920   2.724  20.951  0.00  0.00    +0.000 A 
ATOM     19  C   UNL     1       0.844   2.932  19.574  0.00  0.00    +0.000 A 
ATOM     20  C   UNL     1       2.009   3.134  18.837  0.00  0.00    +0.000 A 
ENDBRANCH  14  15
ENDBRANCH  12  14
ENDBRANCH   8  12
BRANCH   1  21
ATOM     21  C   UNL     1      -0.095   9.847  20.794  0.00  0.00    +0.000 C 
BRANCH  21  22
ATOM     22  O   UNL     1      -0.192   9.038  21.974  0.00  0.00    +0.000 OA
BRANCH  22  24
ATOM     23  C   UNL     1      -1.219  10.797  23.132  0.00  0.00    +0.000 C 
ATOM     24  C   UNL     1      -0.170   9.727  23.147  0.00  0.00    +0.000 C 
ATOM     25  O   UNL     1       0.582   9.514  24.089  0.00  0.00    +0.000 OA
ENDBRANCH  22  24
ENDBRANCH  21  22
ENDBRANCH   1  21
TORSDOF 6
ENDMDL
MODEL 5
REMARK VINA RESULT:      -8.4      1.593      2.122
REMARK  Name = 
REMARK  7 active torsions:
REMARK  status: ('A' for Active; 'I' for Inactive)
REMARK    1  A    between atoms: C_1  and  C_2
REMARK    2  A    between atoms: C_2  and  O_4
REMARK    3  A    between atoms: O_4  and  C_5
REMARK    4  A    between atoms: C_5  and  C_6
REMARK    5  A    between atoms: C_13  and  C_14
REMARK    6  A    between atoms: C_14  and  O_16
REMARK    7  A    between atoms: O_16  and  C_17
REMARK                            x       y       z     vdW  Elec       q    Type
REMARK                         _______ _______ _______ _____ _____    ______ ____
ROOT
ATOM      1  C   UNL     1       6.033   3.763  12.517  0.00  0.00    +0.000 A 
ATOM      2  C   UNL     1       7.173   4.577  12.408  0.00  0.00    +0.000 A 
ATOM      3  C   UNL     1       7.694   5.212  13.532  0.00  0.00    +0.000 A 
ATOM      4  C   UNL     1       7.073   5.025  14.763  0.00  0.00    +0.000 A 
ATOM      5  O   UNL     1       7.620   5.694  15.872  0.00  0.00    +0.000 OA
ATOM      6  C   UNL     1       7.074   5.575  17.147  0.00  0.00    +0.000 A 
ATOM      7  O   UNL     1       7.623   6.109  18.104  0.00  0.00    +0.000 OA
ATOM      8  C   UNL     1       5.837   4.772  17.270  0.00  0.00    +0.000 A 
ATOM      9  C   UNL     1       5.326   4.116  16.213  0.00  0.00    +0.000 A 
ATOM     10  C   UNL     1       5.951   4.219  14.904  0.00  0.00    +0.000 A 
ATOM     11  C   UNL     1       5.430   3.584  13.774  0.00  0.00    +0.000 A 
ENDROOT
BRANCH   8  12
ATOM     12  C   UNL     1       5.031   4.723  18.517  0.00  0.00    +0.000 C 
ATOM     13  O   UNL     1       5.279   5.384  19.517  0.00  0.00    +0.000 OA
BRANCH  12  14
ATOM     14  O   UNL     1       4.081   3.726  18.425  0.00  0.00    +0.000 OA
BRANCH  14  15
ATOM     15  C   UNL     1       3.201   3.597  19.511  0.00  0.00    +0.000 A 
ATOM     16  C   UNL     1       1.968   4.237  19.417  0.00  0.00    +0.000 A 
ATOM     17  C   UNL     1       1.000   4.006  20.397  0.00  0.00    +0.000 A 
ATOM     18  C   UNL     1       1.268   3.130  21.451  0.00  0.00    +0.000 A 
ATOM     19  C   UNL     1       2.503   2.488  21.534  0.00  0.00    +0.000 A 
ATOM     20  C   UNL     1       3.472   2.716  20.560  0.00  0.00    +0.000 A 
ENDBRANCH  14  15
ENDBRANCH  12  14
ENDBRANCH   8  12
BRANCH   1  21
ATOM     21  C   UNL     1       5.437   3.129  11.283  0.00  0.00    +0.000 C 
BRANCH  21  22
ATOM     22  O   UNL     1       5.306   1.713  11.468  0.00  0.00    +0.000 OA
BRANCH  22  24
ATOM     23  C   UNL     1       6.132  -0.474  11.328  0.00  0.00    +0.000 C 
ATOM     24  C   UNL     1       6.414   0.988  11.159  0.00  0.00    +0.000 C 
ATOM     25  O   UNL     1       7.488   1.443  10.789  0.00  0.00    +0.000 OA
ENDBRANCH  22  24
ENDBRANCH  21  22
ENDBRANCH   1  21
TORSDOF 6
ENDMDL
MODEL 6
REMARK VINA RESULT:      -8.0      3.763      6.342
REMARK  Name = 
REMARK  7 active torsions:
REMARK  status: ('A' for Active; 'I' for Inactive)
REMARK    1  A    between atoms: C_1  and  C_2
REMARK    2  A    between atoms: C_2  and  O_4
REMARK    3  A    between atoms: O_4  and  C_5
REMARK    4  A    between atoms: C_5  and  C_6
REMARK    5  A    between atoms: C_13  and  C_14
REMARK    6  A    between atoms: C_14  and  O_16
REMARK    7  A    between atoms: O_16  and  C_17
REMARK                            x       y       z     vdW  Elec       q    Type
REMARK                         _______ _______ _______ _____ _____    ______ ____
ROOT
ATOM      1  C   UNL     1       7.526   7.699  17.886  0.00  0.00    +0.000 A 
ATOM      2  C   UNL     1       8.225   6.886  18.792  0.00  0.00    +0.000 A 
ATOM      3  C   UNL     1       7.718   5.642  19.159  0.00  0.00    +0.000 A 
ATOM      4  C   UNL     1       6.512   5.216  18.611  0.00  0.00    +0.000 A 
ATOM      5  O   UNL     1       6.025   3.961  19.016  0.00  0.00    +0.000 OA
ATOM      6  C   UNL     1       4.828   3.443  18.529  0.00  0.00    +0.000 A 
ATOM      7  O   UNL     1       4.474   2.312  18.843  0.00  0.00    +0.000 OA
ATOM      8  C   UNL     1       4.046   4.312  17.621  0.00  0.00    +0.000 A 
ATOM      9  C   UNL     1       4.523   5.503  17.219  0.00  0.00    +0.000 A 
ATOM     10  C   UNL     1       5.802   5.993  17.706  0.00  0.00    +0.000 A 
ATOM     11  C   UNL     1       6.314   7.241  17.341  0.00  0.00    +0.000 A 
ENDROOT
BRANCH   8  12
ATOM     12  C   UNL     1       2.665   3.983  17.187  0.00  0.00    +0.000 C 
ATOM     13  O   UNL     1       2.400   3.338  16.182  0.00  0.00    +0.000 OA
BRANCH  12  14
ATOM     14  O   UNL     1       1.751   4.638  17.989  0.00  0.00    +0.000 OA
BRANCH  14  15
ATOM     15  C   UNL     1       1.648   4.192  19.315  0.00  0.00    +0.000 A 
ATOM     16  C   UNL     1       1.124   2.918  19.525  0.00  0.00    +0.000 A 
ATOM     17  C   UNL     1       1.153   2.370  20.809  0.00  0.00    +0.000 A 
ATOM     18  C   UNL     1       1.714   3.090  21.865  0.00  0.00    +0.000 A 
ATOM     19  C   UNL     1       2.243   4.361  21.645  0.00  0.00    +0.000 A 
ATOM     20  C   UNL     1       2.216   4.914  20.367  0.00  0.00    +0.000 A 
ENDBRANCH  14  15
ENDBRANCH  12  14
ENDBRANCH   8  12
BRANCH   1  21
ATOM     21  C   UNL     1       8.050   9.073  17.543  0.00  0.00    +0.000 C 
BRANCH  21  22
ATOM     22  O   UNL     1       8.769   9.620  18.656  0.00  0.00    +0.000 OA
BRANCH  22  24
ATOM     23  C   UNL     1      10.382  11.150  19.394  0.00  0.00    +0.000 C 
ATOM     24  C   UNL     1       9.224  10.890  18.479  0.00  0.00    +0.000 C 
ATOM     25  O   UNL     1       8.772  11.709  17.691  0.00  0.00    +0.000 OA
ENDBRANCH  22  24
ENDBRANCH  21  22
ENDBRANCH   1  21
TORSDOF 6
ENDMDL
MODEL 7
REMARK VINA RESULT:      -7.9      4.113      7.874
REMARK  Name = 
REMARK  7 active torsions:
REMARK  status: ('A' for Active; 'I' for Inactive)
REMARK    1  A    between atoms: C_1  and  C_2
REMARK    2  A    between atoms: C_2  and  O_4
REMARK    3  A    between atoms: O_4  and  C_5
REMARK    4  A    between atoms: C_5  and  C_6
REMARK    5  A    between atoms: C_13  and  C_14
REMARK    6  A    between atoms: C_14  and  O_16
REMARK    7  A    between atoms: O_16  and  C_17
REMARK                            x       y       z     vdW  Elec       q    Type
REMARK                         _______ _______ _______ _____ _____    ______ ____
ROOT
ATOM      1  C   UNL     1       0.966   9.005  20.026  0.00  0.00    +0.000 A 
ATOM      2  C   UNL     1       1.124   9.685  18.808  0.00  0.00    +0.000 A 
ATOM      3  C   UNL     1       1.985   9.192  17.831  0.00  0.00    +0.000 A 
ATOM      4  C   UNL     1       2.684   8.014  18.079  0.00  0.00    +0.000 A 
ATOM      5  O   UNL     1       3.555   7.556  17.075  0.00  0.00    +0.000 OA
ATOM      6  C   UNL     1       4.300   6.389  17.224  0.00  0.00    +0.000 A 
ATOM      7  O   UNL     1       4.989   5.978  16.298  0.00  0.00    +0.000 OA
ATOM      8  C   UNL     1       4.196   5.692  18.525  0.00  0.00    +0.000 A 
ATOM      9  C   UNL     1       3.347   6.121  19.477  0.00  0.00    +0.000 A 
ATOM     10  C   UNL     1       2.542   7.314  19.270  0.00  0.00    +0.000 A 
ATOM     11  C   UNL     1       1.677   7.813  20.247  0.00  0.00    +0.000 A 
ENDROOT
BRANCH   8  12
ATOM     12  C   UNL     1       5.079   4.560  18.904  0.00  0.00    +0.000 C 
ATOM     13  O   UNL     1       6.172   4.695  19.438  0.00  0.00    +0.000 OA
BRANCH  12  14
ATOM     14  O   UNL     1       4.555   3.374  18.428  0.00  0.00    +0.000 OA
BRANCH  14  15
ATOM     15  C   UNL     1       3.318   2.979  18.959  0.00  0.00    +0.000 A 
ATOM     16  C   UNL     1       3.227   2.842  20.343  0.00  0.00    +0.000 A 
ATOM     17  C   UNL     1       1.981   2.609  20.927  0.00  0.00    +0.000 A 
ATOM     18  C   UNL     1       0.838   2.527  20.129  0.00  0.00    +0.000 A 
ATOM     19  C   UNL     1       0.936   2.672  18.746  0.00  0.00    +0.000 A 
ATOM     20  C   UNL     1       2.177   2.903  18.157  0.00  0.00    +0.000 A 
ENDBRANCH  14  15
ENDBRANCH  12  14
ENDBRANCH   8  12
BRANCH   1  21
ATOM     21  C   UNL     1       0.079   9.580  21.104  0.00  0.00    +0.000 C 
BRANCH  21  22
ATOM     22  O   UNL     1       0.029  11.008  20.993  0.00  0.00    +0.000 OA
BRANCH  22  24
ATOM     23  C   UNL     1      -1.051  10.698  23.048  0.00  0.00    +0.000 C 
ATOM     24  C   UNL     1      -0.380  11.659  22.115  0.00  0.00    +0.000 C 
ATOM     25  O   UNL     1      -0.224  12.850  22.349  0.00  0.00    +0.000 OA
ENDBRANCH  22  24
ENDBRANCH  21  22
ENDBRANCH   1  21
TORSDOF 6
ENDMDL
MODEL 8
REMARK VINA RESULT:      -7.9      0.989      1.357
REMARK  Name = 
REMARK  7 active torsions:
REMARK  status: ('A' for Active; 'I' for Inactive)
REMARK    1  A    between atoms: C_1  and  C_2
REMARK    2  A    between atoms: C_2  and  O_4
REMARK    3  A    between atoms: O_4  and  C_5
REMARK    4  A    between atoms: C_5  and  C_6
REMARK    5  A    between atoms: C_13  and  C_14
REMARK    6  A    between atoms: C_14  and  O_16
REMARK    7  A    between atoms: O_16  and  C_17
REMARK                            x       y       z     vdW  Elec       q    Type
REMARK                         _______ _______ _______ _____ _____    ______ ____
ROOT
ATOM      1  C   UNL     1       5.799   3.654  12.717  0.00  0.00    +0.000 A 
ATOM      2  C   UNL     1       7.105   4.162  12.633  0.00  0.00    +0.000 A 
ATOM      3  C   UNL     1       7.644   4.899  13.684  0.00  0.00    +0.000 A 
ATOM      4  C   UNL     1       6.871   5.122  14.819  0.00  0.00    +0.000 A 
ATOM      5  O   UNL     1       7.443   5.883  15.853  0.00  0.00    +0.000 OA
ATOM      6  C   UNL     1       6.753   6.163  17.030  0.00  0.00    +0.000 A 
ATOM      7  O   UNL     1       7.312   6.762  17.942  0.00  0.00    +0.000 OA
ATOM      8  C   UNL     1       5.354   5.689  17.112  0.00  0.00    +0.000 A 
ATOM      9  C   UNL     1       4.814   4.944  16.131  0.00  0.00    +0.000 A 
ATOM     10  C   UNL     1       5.579   4.624  14.936  0.00  0.00    +0.000 A 
ATOM     11  C   UNL     1       5.042   3.885  13.879  0.00  0.00    +0.000 A 
ENDROOT
BRANCH   8  12
ATOM     12  C   UNL     1       4.434   6.085  18.208  0.00  0.00    +0.000 C 
ATOM     13  O   UNL     1       3.796   7.130  18.221  0.00  0.00    +0.000 OA
BRANCH  12  14
ATOM     14  O   UNL     1       4.532   5.188  19.253  0.00  0.00    +0.000 OA
BRANCH  14  15
ATOM     15  C   UNL     1       3.601   4.138  19.266  0.00  0.00    +0.000 A 
ATOM     16  C   UNL     1       2.251   4.478  19.328  0.00  0.00    +0.000 A 
ATOM     17  C   UNL     1       1.287   3.479  19.181  0.00  0.00    +0.000 A 
ATOM     18  C   UNL     1       1.677   2.156  18.961  0.00  0.00    +0.000 A 
ATOM     19  C   UNL     1       3.030   1.825  18.893  0.00  0.00    +0.000 A 
ATOM     20  C   UNL     1       3.996   2.818  19.041  0.00  0.00    +0.000 A 
ENDBRANCH  14  15
ENDBRANCH  12  14
ENDBRANCH   8  12
BRANCH   1  21
ATOM     21  C   UNL     1       5.200   2.910  11.548  0.00  0.00    +0.000 C 
BRANCH  21  22
ATOM     22  O   UNL     1       4.548   3.827  10.660  0.00  0.00    +0.000 OA
BRANCH  22  24
ATOM     23  C   UNL     1       2.731   4.482   9.334  0.00  0.00    +0.000 C 
ATOM     24  C   UNL     1       3.278   3.487  10.311  0.00  0.00    +0.000 C 
ATOM     25  O   UNL     1       2.660   2.513  10.720  0.00  0.00    +0.000 OA
ENDBRANCH  22  24
ENDBRANCH  21  22
ENDBRANCH   1  21
TORSDOF 6
ENDMDL
MODEL 9
REMARK VINA RESULT:      -7.8      2.177      7.270
REMARK  Name = 
REMARK  7 active torsions:
REMARK  status: ('A' for Active; 'I' for Inactive)
REMARK    1  A    between atoms: C_1  and  C_2
REMARK    2  A    between atoms: C_2  and  O_4
REMARK    3  A    between atoms: O_4  and  C_5
REMARK    4  A    between atoms: C_5  and  C_6
REMARK    5  A    between atoms: C_13  and  C_14
REMARK    6  A    between atoms: C_14  and  O_16
REMARK    7  A    between atoms: O_16  and  C_17
REMARK                            x       y       z     vdW  Elec       q    Type
REMARK                         _______ _______ _______ _____ _____    ______ ____
ROOT
ATOM      1  C   UNL     1       1.814   4.270  18.905  0.00  0.00    +0.000 A 
ATOM      2  C   UNL     1       1.831   5.554  19.474  0.00  0.00    +0.000 A 
ATOM      3  C   UNL     1       2.818   6.469  19.118  0.00  0.00    +0.000 A 
ATOM      4  C   UNL     1       3.784   6.094  18.189  0.00  0.00    +0.000 A 
ATOM      5  O   UNL     1       4.773   7.040  17.866  0.00  0.00    +0.000 OA
ATOM      6  C   UNL     1       5.784   6.764  16.949  0.00  0.00    +0.000 A 
ATOM      7  O   UNL     1       6.582   7.638  16.633  0.00  0.00    +0.000 OA
ATOM      8  C   UNL     1       5.820   5.395  16.387  0.00  0.00    +0.000 A 
ATOM      9  C   UNL     1       4.862   4.498  16.682  0.00  0.00    +0.000 A 
ATOM     10  C   UNL     1       3.789   4.835  17.603  0.00  0.00    +0.000 A 
ATOM     11  C   UNL     1       2.796   3.919  17.963  0.00  0.00    +0.000 A 
ENDROOT
BRANCH   8  12
ATOM     12  C   UNL     1       6.949   4.894  15.563  0.00  0.00    +0.000 C 
ATOM     13  O   UNL     1       7.942   4.348  16.024  0.00  0.00    +0.000 OA
BRANCH  12  14
ATOM     14  O   UNL     1       6.775   5.274  14.246  0.00  0.00    +0.000 OA
BRANCH  14  15
ATOM     15  C   UNL     1       6.406   4.263  13.346  0.00  0.00    +0.000 A 
ATOM     16  C   UNL     1       5.045   4.018  13.180  0.00  0.00    +0.000 A 
ATOM     17  C   UNL     1       4.625   3.137  12.181  0.00  0.00    +0.000 A 
ATOM     18  C   UNL     1       5.565   2.521  11.351  0.00  0.00    +0.000 A 
ATOM     19  C   UNL     1       6.925   2.778  11.520  0.00  0.00    +0.000 A 
ATOM     20  C   UNL     1       7.349   3.654  12.516  0.00  0.00    +0.000 A 
ENDBRANCH  14  15
ENDBRANCH  12  14
ENDBRANCH   8  12
BRANCH   1  21
ATOM     21  C   UNL     1       0.778   3.263  19.344  0.00  0.00    +0.000 C 
BRANCH  21  22
ATOM     22  O   UNL     1       1.412   2.151  19.991  0.00  0.00    +0.000 OA
BRANCH  22  24
ATOM     23  C   UNL     1       3.402   2.352  21.211  0.00  0.00    +0.000 C 
ATOM     24  C   UNL     1       1.905   2.412  21.232  0.00  0.00    +0.000 C 
ATOM     25  O   UNL     1       1.240   2.667  22.227  0.00  0.00    +0.000 OA
ENDBRANCH  22  24
ENDBRANCH  21  22
ENDBRANCH   1  21
TORSDOF 6
ENDMDL
