MODEL 1
REMARK VINA RESULT:      -8.8      0.000      0.000
REMARK  Name = 
REMARK  6 active torsions:
REMARK  status: ('A' for Active; 'I' for Inactive)
REMARK    1  A    between atoms: C_1  and  N_2
REMARK    2  A    between atoms: N_6  and  C_7
REMARK    3  A    between atoms: C_7  and  C_8
REMARK    4  A    between atoms: C_11  and  S_12
REMARK    5  A    between atoms: S_12  and  C_13
REMARK    6  A    between atoms: C_19  and  C_20
REMARK                            x       y       z     vdW  Elec       q    Type
REMARK                         _______ _______ _______ _____ _____    ______ ____
ROOT
ATOM      1  C   UNL     1       8.255   8.119  17.816  0.00  0.00    +0.000 C 
ATOM      2  N   UNL     1       7.742   7.011  18.592  0.00  0.00    +0.000 N 
ATOM      3  C   UNL     1       6.954   6.108  17.884  0.00  0.00    +0.000 A 
ATOM      4  N   UNL     1       5.965   5.527  18.575  0.00  0.00    +0.000 NA
ATOM      5  C   UNL     1       5.229   4.591  17.953  0.00  0.00    +0.000 A 
ATOM      6  N   UNL     1       4.126   4.007  18.574  0.00  0.00    +0.000 N 
ATOM      7  C   UNL     1       5.472   4.251  16.640  0.00  0.00    +0.000 A 
ATOM      8  C   UNL     1       6.461   4.941  15.970  0.00  0.00    +0.000 A 
ATOM      9  N   UNL     1       7.217   5.869  16.596  0.00  0.00    +0.000 NA
ATOM     10  H   UNL     1       7.220   7.260  19.425  0.00  0.00    +0.000 HD
ATOM     11  H   UNL     1       4.083   2.997  18.517  0.00  0.00    +0.000 HD
ENDROOT
BRANCH   8  12
ATOM     12  C   UNL     1       6.704   4.741  14.521  0.00  0.00    +0.000 A 
ATOM     13  C   UNL     1       5.994   3.806  13.763  0.00  0.00    +0.000 A 
ATOM     14  C   UNL     1       6.306   3.635  12.417  0.00  0.00    +0.000 A 
ATOM     15  C   UNL     1       7.317   4.398  11.849  0.00  0.00    +0.000 A 
ATOM     16  C   UNL     1       7.971   5.311  12.654  0.00  0.00    +0.000 A 
ATOM     17  N   UNL     1       7.690   5.497  13.962  0.00  0.00    +0.000 NA
ENDBRANCH   8  12
BRANCH   6  18
ATOM     18  C   UNL     1       3.535   4.621  19.740  0.00  0.00    +0.000 C 
BRANCH  18  19
ATOM     19  C   UNL     1       2.846   5.935  19.448  0.00  0.00    +0.000 A 
ATOM     20  C   UNL     1       2.265   6.688  20.481  0.00  0.00    +0.000 A 
ATOM     21  C   UNL     1       1.716   7.947  20.223  0.00  0.00    +0.000 A 
ATOM     22  C   UNL     1       1.756   8.466  18.926  0.00  0.00    +0.000 A 
ATOM     23  C   UNL     1       2.305   7.722  17.879  0.00  0.00    +0.000 A 
ATOM     24  C   UNL     1       2.851   6.464  18.144  0.00  0.00    +0.000 A 
BRANCH  22  25
ATOM     25  S   UNL     1       1.068  10.070  18.594  0.00  0.00    +0.000 S 
ATOM     26  C   UNL     1       0.696  10.701  20.212  0.00  0.00    +0.000 C 
ATOM     27  O   UNL     1       2.120  10.890  18.026  0.00  0.00    +0.000 OA
ATOM     28  O   UNL     1      -0.186   9.877  17.890  0.00  0.00    +0.000 OA
ENDBRANCH  22  25
ENDBRANCH  18  19
ENDBRANCH   6  18
TORSDOF 4
ENDMDL
MODEL 2
REMARK VINA RESULT:      -8.8      1.042      1.503
REMARK  Name = 
REMARK  6 active torsions:
REMARK  status: ('A' for Active; 'I' for Inactive)
REMARK    1  A    between atoms: C_1  and  N_2
REMARK    2  A    between atoms: N_6  and  C_7
REMARK    3  A    between atoms: C_7  and  C_8
REMARK    4  A    between atoms: C_11  and  S_12
REMARK    5  A    between atoms: S_12  and  C_13
REMARK    6  A    between atoms: C_19  and  C_20
REMARK                            x       y       z     vdW  Elec       q    Type
REMARK                         _______ _______ _______ _____ _____    ______ ____
ROOT
ATOM      1  C   UNL     1       8.311   6.542  18.891  0.00  0.00    +0.000 C 
ATOM      2  N   UNL     1       7.376   5.534  19.339  0.00  0.00    +0.000 N 
ATOM      3  C   UNL     1       6.494   5.072  18.368  0.00  0.00    +0.000 A 
ATOM      4  N   UNL     1       5.276   4.721  18.802  0.00  0.00    +0.000 NA
ATOM      5  C   UNL     1       4.418   4.196  17.911  0.00  0.00    +0.000 A 
ATOM      6  N   UNL     1       3.105   3.891  18.264  0.00  0.00    +0.000 N 
ATOM      7  C   UNL     1       4.772   4.038  16.589  0.00  0.00    +0.000 A 
ATOM      8  C   UNL     1       6.018   4.487  16.199  0.00  0.00    +0.000 A 
ATOM      9  N   UNL     1       6.892   4.998  17.094  0.00  0.00    +0.000 NA
ATOM     10  H   UNL     1       6.814   5.782  20.146  0.00  0.00    +0.000 HD
ATOM     11  H   UNL     1       2.782   2.975  17.979  0.00  0.00    +0.000 HD
ENDROOT
BRANCH   8  12
ATOM     12  C   UNL     1       6.436   4.484  14.777  0.00  0.00    +0.000 A 
ATOM     13  C   UNL     1       5.825   3.673  13.817  0.00  0.00    +0.000 A 
ATOM     14  C   UNL     1       6.299   3.685  12.508  0.00  0.00    +0.000 A 
ATOM     15  C   UNL     1       7.369   4.503  12.177  0.00  0.00    +0.000 A 
ATOM     16  C   UNL     1       7.920   5.287  13.174  0.00  0.00    +0.000 A 
ATOM     17  N   UNL     1       7.481   5.295  14.451  0.00  0.00    +0.000 NA
ENDBRANCH   8  12
BRANCH   6  18
ATOM     18  C   UNL     1       2.526   4.440  19.469  0.00  0.00    +0.000 C 
BRANCH  18  19
ATOM     19  C   UNL     1       2.269   5.928  19.391  0.00  0.00    +0.000 A 
ATOM     20  C   UNL     1       2.364   6.611  18.168  0.00  0.00    +0.000 A 
ATOM     21  C   UNL     1       2.031   7.965  18.080  0.00  0.00    +0.000 A 
ATOM     22  C   UNL     1       1.588   8.643  19.219  0.00  0.00    +0.000 A 
ATOM     23  C   UNL     1       1.512   7.990  20.451  0.00  0.00    +0.000 A 
ATOM     24  C   UNL     1       1.848   6.636  20.531  0.00  0.00    +0.000 A 
BRANCH  22  25
ATOM     25  S   UNL     1       1.155  10.363  19.111  0.00  0.00    +0.000 S 
ATOM     26  C   UNL     1      -0.460  10.335  18.373  0.00  0.00    +0.000 C 
ATOM     27  O   UNL     1       1.019  10.867  20.464  0.00  0.00    +0.000 OA
ATOM     28  O   UNL     1       2.065  10.991  18.172  0.00  0.00    +0.000 OA
ENDBRANCH  22  25
ENDBRANCH  18  19
ENDBRANCH   6  18
TORSDOF 4
ENDMDL
MODEL 3
REMARK VINA RESULT:      -8.6      3.267      5.386
REMARK  Name = 
REMARK  6 active torsions:
REMARK  status: ('A' for Active; 'I' for Inactive)
REMARK    1  A    between atoms: C_1  and  N_2
REMARK    2  A    between atoms: N_6  and  C_7
REMARK    3  A    between atoms: C_7  and  C_8
REMARK    4  A    between atoms: C_11  and  S_12
REMARK    5  A    between atoms: S_12  and  C_13
REMARK    6  A    between atoms: C_19  and  C_20
REMARK                            x       y       z     vdW  Elec       q    Type
REMARK                         _______ _______ _______ _____ _____    ______ ____
ROOT
ATOM      1  C   UNL     1       2.575   2.660  21.356  0.00  0.00    +0.000 C 
ATOM      2  N   UNL     1       1.644   3.761  21.243  0.00  0.00    +0.000 N 
ATOM      3  C   UNL     1       2.064   4.809  20.429  0.00  0.00    +0.000 A 
ATOM      4  N   UNL     1       1.654   6.032  20.791  0.00  0.00    +0.000 NA
ATOM      5  C   UNL     1       1.970   7.063  19.990  0.00  0.00    +0.000 A 
ATOM      6  N   UNL     1       1.660   8.374  20.343  0.00  0.00    +0.000 N 
ATOM      7  C   UNL     1       2.707   6.872  18.840  0.00  0.00    +0.000 A 
ATOM      8  C   UNL     1       3.154   5.595  18.569  0.00  0.00    +0.000 A 
ATOM      9  N   UNL     1       2.823   4.552  19.360  0.00  0.00    +0.000 NA
ATOM     10  H   UNL     1       1.345   4.177  22.119  0.00  0.00    +0.000 HD
ATOM     11  H   UNL     1       1.221   8.926  19.615  0.00  0.00    +0.000 HD
ENDROOT
BRANCH   8  12
ATOM     12  C   UNL     1       4.064   5.316  17.431  0.00  0.00    +0.000 A 
ATOM     13  C   UNL     1       4.439   4.019  17.071  0.00  0.00    +0.000 A 
ATOM     14  C   UNL     1       5.335   3.831  16.022  0.00  0.00    +0.000 A 
ATOM     15  C   UNL     1       5.839   4.935  15.350  0.00  0.00    +0.000 A 
ATOM     16  C   UNL     1       5.418   6.189  15.751  0.00  0.00    +0.000 A 
ATOM     17  N   UNL     1       4.551   6.400  16.766  0.00  0.00    +0.000 NA
ENDBRANCH   8  12
BRANCH   6  18
ATOM     18  C   UNL     1       1.314   8.702  21.707  0.00  0.00    +0.000 C 
BRANCH  18  19
ATOM     19  C   UNL     1       0.198   9.717  21.819  0.00  0.00    +0.000 A 
ATOM     20  C   UNL     1      -0.434   9.957  23.050  0.00  0.00    +0.000 A 
ATOM     21  C   UNL     1      -1.396  10.962  23.172  0.00  0.00    +0.000 A 
ATOM     22  C   UNL     1      -1.724  11.744  22.061  0.00  0.00    +0.000 A 
ATOM     23  C   UNL     1      -1.127  11.504  20.821  0.00  0.00    +0.000 A 
ATOM     24  C   UNL     1      -0.167  10.496  20.706  0.00  0.00    +0.000 A 
BRANCH  22  25
ATOM     25  S   UNL     1      -2.940  13.030  22.213  0.00  0.00    +0.000 S 
ATOM     26  C   UNL     1      -2.365  13.979  23.599  0.00  0.00    +0.000 C 
ATOM     27  O   UNL     1      -2.847  13.864  21.031  0.00  0.00    +0.000 OA
ATOM     28  O   UNL     1      -4.197  12.409  22.587  0.00  0.00    +0.000 OA
ENDBRANCH  22  25
ENDBRANCH  18  19
ENDBRANCH   6  18
TORSDOF 4
ENDMDL
MODEL 4
REMARK VINA RESULT:      -8.6      4.233      7.290
REMARK  Name = 
REMARK  6 active torsions:
REMARK  status: ('A' for Active; 'I' for Inactive)
REMARK    1  A    between atoms: C_1  and  N_2
REMARK    2  A    between atoms: N_6  and  C_7
REMARK    3  A    between atoms: C_7  and  C_8
REMARK    4  A    between atoms: C_11  and  S_12
REMARK    5  A    between atoms: S_12  and  C_13
REMARK    6  A    between atoms: C_19  and  C_20
REMARK                            x       y       z     vdW  Elec       q    Type
REMARK                         _______ _______ _______ _____ _____    ______ ____
ROOT
ATOM      1  C   UNL     1       5.793   4.419  14.246  0.00  0.00    +0.000 C 
ATOM      2  N   UNL     1       6.948   4.982  14.912  0.00  0.00    +0.000 N 
ATOM      3  C   UNL     1       6.751   5.331  16.244  0.00  0.00    +0.000 A 
ATOM      4  N   UNL     1       7.444   6.390  16.681  0.00  0.00    +0.000 NA
ATOM      5  C   UNL     1       7.345   6.715  17.980  0.00  0.00    +0.000 A 
ATOM      6  N   UNL     1       7.962   7.855  18.491  0.00  0.00    +0.000 N 
ATOM      7  C   UNL     1       6.541   5.992  18.835  0.00  0.00    +0.000 A 
ATOM      8  C   UNL     1       5.802   4.957  18.300  0.00  0.00    +0.000 A 
ATOM      9  N   UNL     1       5.913   4.613  16.999  0.00  0.00    +0.000 NA
ATOM     10  H   UNL     1       7.367   5.787  14.460  0.00  0.00    +0.000 HD
ATOM     11  H   UNL     1       8.488   7.716  19.345  0.00  0.00    +0.000 HD
ENDROOT
BRANCH   8  12
ATOM     12  C   UNL     1       4.810   4.210  19.111  0.00  0.00    +0.000 A 
ATOM     13  C   UNL     1       3.611   4.781  19.543  0.00  0.00    +0.000 A 
ATOM     14  C   UNL     1       2.746   4.038  20.343  0.00  0.00    +0.000 A 
ATOM     15  C   UNL     1       3.089   2.740  20.695  0.00  0.00    +0.000 A 
ATOM     16  C   UNL     1       4.286   2.234  20.224  0.00  0.00    +0.000 A 
ATOM     17  N   UNL     1       5.144   2.932  19.449  0.00  0.00    +0.000 NA
ENDBRANCH   8  12
BRANCH   6  18
ATOM     18  C   UNL     1       8.425   8.895  17.602  0.00  0.00    +0.000 C 
BRANCH  18  19
ATOM     19  C   UNL     1       8.821  10.168  18.317  0.00  0.00    +0.000 A 
ATOM     20  C   UNL     1       9.412  10.123  19.589  0.00  0.00    +0.000 A 
ATOM     21  C   UNL     1       9.866  11.292  20.206  0.00  0.00    +0.000 A 
ATOM     22  C   UNL     1       9.740  12.516  19.544  0.00  0.00    +0.000 A 
ATOM     23  C   UNL     1       9.130  12.587  18.289  0.00  0.00    +0.000 A 
ATOM     24  C   UNL     1       8.678  11.414  17.680  0.00  0.00    +0.000 A 
BRANCH  22  25
ATOM     25  S   UNL     1      10.323  14.005  20.319  0.00  0.00    +0.000 S 
ATOM     26  C   UNL     1       9.319  15.272  19.585  0.00  0.00    +0.000 C 
ATOM     27  O   UNL     1       9.986  13.927  21.727  0.00  0.00    +0.000 OA
ATOM     28  O   UNL     1      11.694  14.217  19.894  0.00  0.00    +0.000 OA
ENDBRANCH  22  25
ENDBRANCH  18  19
ENDBRANCH   6  18
TORSDOF 4
ENDMDL
MODEL 5
REMARK VINA RESULT:      -8.5      3.261      5.397
REMARK  Name = 
REMARK  6 active torsions:
REMARK  status: ('A' for Active; 'I' for Inactive)
REMARK    1  A    between atoms: C_1  and  N_2
REMARK    2  A    between atoms: N_6  and  C_7
REMARK    3  A    between atoms: C_7  and  C_8
REMARK    4  A    between atoms: C_11  and  S_12
REMARK    5  A    between atoms: S_12  and  C_13
REMARK    6  A    between atoms: C_19  and  C_20
REMARK                            x       y       z     vdW  Elec       q    Type
REMARK                         _______ _______ _______ _____ _____    ______ ____
ROOT
ATOM      1  C   UNL     1       2.711   2.631  21.312  0.00  0.00    +0.000 C 
ATOM      2  N   UNL     1       1.748   3.704  21.197  0.00  0.00    +0.000 N 
ATOM      3  C   UNL     1       2.142   4.770  20.395  0.00  0.00    +0.000 A 
ATOM      4  N   UNL     1       1.691   5.977  20.761  0.00  0.00    +0.000 NA
ATOM      5  C   UNL     1       1.981   7.023  19.971  0.00  0.00    +0.000 A 
ATOM      6  N   UNL     1       1.627   8.322  20.330  0.00  0.00    +0.000 N 
ATOM      7  C   UNL     1       2.735   6.865  18.828  0.00  0.00    +0.000 A 
ATOM      8  C   UNL     1       3.225   5.605  18.551  0.00  0.00    +0.000 A 
ATOM      9  N   UNL     1       2.919   4.545  19.331  0.00  0.00    +0.000 NA
ATOM     10  H   UNL     1       1.427   4.104  22.073  0.00  0.00    +0.000 HD
ATOM     11  H   UNL     1       1.178   8.865  19.602  0.00  0.00    +0.000 HD
ENDROOT
BRANCH   8  12
ATOM     12  C   UNL     1       4.154   5.363  17.421  0.00  0.00    +0.000 A 
ATOM     13  C   UNL     1       4.653   6.397  16.625  0.00  0.00    +0.000 A 
ATOM     14  C   UNL     1       5.483   6.094  15.549  0.00  0.00    +0.000 A 
ATOM     15  C   UNL     1       5.804   4.770  15.287  0.00  0.00    +0.000 A 
ATOM     16  C   UNL     1       5.283   3.798  16.120  0.00  0.00    +0.000 A 
ATOM     17  N   UNL     1       4.475   4.063  17.169  0.00  0.00    +0.000 NA
ENDBRANCH   8  12
BRANCH   6  18
ATOM     18  C   UNL     1       1.258   8.628  21.693  0.00  0.00    +0.000 C 
BRANCH  18  19
ATOM     19  C   UNL     1       0.192   9.696  21.804  0.00  0.00    +0.000 A 
ATOM     20  C   UNL     1      -0.440   9.955  23.031  0.00  0.00    +0.000 A 
ATOM     21  C   UNL     1      -1.353  11.006  23.154  0.00  0.00    +0.000 A 
ATOM     22  C   UNL     1      -1.631  11.813  22.047  0.00  0.00    +0.000 A 
ATOM     23  C   UNL     1      -1.034  11.555  20.811  0.00  0.00    +0.000 A 
ATOM     24  C   UNL     1      -0.123  10.502  20.696  0.00  0.00    +0.000 A 
BRANCH  22  25
ATOM     25  S   UNL     1      -2.784  13.156  22.199  0.00  0.00    +0.000 S 
ATOM     26  C   UNL     1      -3.628  12.803  23.721  0.00  0.00    +0.000 C 
ATOM     27  O   UNL     1      -2.018  14.373  22.386  0.00  0.00    +0.000 OA
ATOM     28  O   UNL     1      -3.744  13.040  21.118  0.00  0.00    +0.000 OA
ENDBRANCH  22  25
ENDBRANCH  18  19
ENDBRANCH   6  18
TORSDOF 4
ENDMDL
MODEL 6
REMARK VINA RESULT:      -8.4      3.925      6.973
REMARK  Name = 
REMARK  6 active torsions:
REMARK  status: ('A' for Active; 'I' for Inactive)
REMARK    1  A    between atoms: C_1  and  N_2
REMARK    2  A    between atoms: N_6  and  C_7
REMARK    3  A    between atoms: C_7  and  C_8
REMARK    4  A    between atoms: C_11  and  S_12
REMARK    5  A    between atoms: S_12  and  C_13
REMARK    6  A    between atoms: C_19  and  C_20
REMARK                            x       y       z     vdW  Elec       q    Type
REMARK                         _______ _______ _______ _____ _____    ______ ____
ROOT
ATOM      1  C   UNL     1       6.411   4.214  13.662  0.00  0.00    +0.000 C 
ATOM      2  N   UNL     1       7.369   4.739  14.610  0.00  0.00    +0.000 N 
ATOM      3  C   UNL     1       6.829   5.181  15.814  0.00  0.00    +0.000 A 
ATOM      4  N   UNL     1       7.452   6.217  16.390  0.00  0.00    +0.000 NA
ATOM      5  C   UNL     1       7.012   6.626  17.592  0.00  0.00    +0.000 A 
ATOM      6  N   UNL     1       7.547   7.752  18.213  0.00  0.00    +0.000 N 
ATOM      7  C   UNL     1       5.942   6.011  18.206  0.00  0.00    +0.000 A 
ATOM      8  C   UNL     1       5.305   4.996  17.521  0.00  0.00    +0.000 A 
ATOM      9  N   UNL     1       5.756   4.567  16.322  0.00  0.00    +0.000 NA
ATOM     10  H   UNL     1       7.964   5.487  14.268  0.00  0.00    +0.000 HD
ATOM     11  H   UNL     1       7.795   7.631  19.188  0.00  0.00    +0.000 HD
ENDROOT
BRANCH   8  12
ATOM     12  C   UNL     1       4.067   4.366  18.039  0.00  0.00    +0.000 A 
ATOM     13  C   UNL     1       2.853   5.052  18.118  0.00  0.00    +0.000 A 
ATOM     14  C   UNL     1       1.739   4.416  18.660  0.00  0.00    +0.000 A 
ATOM     15  C   UNL     1       1.853   3.108  19.111  0.00  0.00    +0.000 A 
ATOM     16  C   UNL     1       3.082   2.486  18.993  0.00  0.00    +0.000 A 
ATOM     17  N   UNL     1       4.178   3.080  18.473  0.00  0.00    +0.000 NA
ENDBRANCH   8  12
BRANCH   6  18
ATOM     18  C   UNL     1       8.327   8.704  17.456  0.00  0.00    +0.000 C 
BRANCH  18  19
ATOM     19  C   UNL     1       8.636   9.973  18.218  0.00  0.00    +0.000 A 
ATOM     20  C   UNL     1       9.195   9.920  19.505  0.00  0.00    +0.000 A 
ATOM     21  C   UNL     1       9.570  11.092  20.168  0.00  0.00    +0.000 A 
ATOM     22  C   UNL     1       9.398  12.328  19.538  0.00  0.00    +0.000 A 
ATOM     23  C   UNL     1       8.819  12.404  18.269  0.00  0.00    +0.000 A 
ATOM     24  C   UNL     1       8.445  11.228  17.613  0.00  0.00    +0.000 A 
BRANCH  22  25
ATOM     25  S   UNL     1       9.881  13.820  20.371  0.00  0.00    +0.000 S 
ATOM     26  C   UNL     1      11.541  14.091  19.801  0.00  0.00    +0.000 C 
ATOM     27  O   UNL     1       9.053  14.896  19.862  0.00  0.00    +0.000 OA
ATOM     28  O   UNL     1       9.938  13.535  21.793  0.00  0.00    +0.000 OA
ENDBRANCH  22  25
ENDBRANCH  18  19
ENDBRANCH   6  18
TORSDOF 4
ENDMDL
MODEL 7
REMARK VINA RESULT:      -8.4      4.316      6.941
REMARK  Name = 
REMARK  6 active torsions:
REMARK  status: ('A' for Active; 'I' for Inactive)
REMARK    1  A    between atoms: C_1  and  N_2
REMARK    2  A    between atoms: N_6  and  C_7
REMARK    3  A    between atoms: C_7  and  C_8
REMARK    4  A    between atoms: C_11  and  S_12
REMARK    5  A    between atoms: S_12  and  C_13
REMARK    6  A    between atoms: C_19  and  C_20
REMARK                            x       y       z     vdW  Elec       q    Type
REMARK                         _______ _______ _______ _____ _____    ______ ____
ROOT
ATOM      1  C   UNL     1       6.429   4.414  13.633  0.00  0.00    +0.000 C 
ATOM      2  N   UNL     1       7.451   4.964  14.496  0.00  0.00    +0.000 N 
ATOM      3  C   UNL     1       7.034   5.269  15.787  0.00  0.00    +0.000 A 
ATOM      4  N   UNL     1       7.633   6.319  16.364  0.00  0.00    +0.000 NA
ATOM      5  C   UNL     1       7.318   6.602  17.638  0.00  0.00    +0.000 A 
ATOM      6  N   UNL     1       7.829   7.729  18.277  0.00  0.00    +0.000 N 
ATOM      7  C   UNL     1       6.394   5.846  18.328  0.00  0.00    +0.000 A 
ATOM      8  C   UNL     1       5.764   4.824  17.647  0.00  0.00    +0.000 A 
ATOM      9  N   UNL     1       6.092   4.522  16.372  0.00  0.00    +0.000 NA
ATOM     10  H   UNL     1       7.930   5.786  14.144  0.00  0.00    +0.000 HD
ATOM     11  H   UNL     1       8.209   7.567  19.202  0.00  0.00    +0.000 HD
ENDROOT
BRANCH   8  12
ATOM     12  C   UNL     1       4.662   4.044  18.261  0.00  0.00    +0.000 A 
ATOM     13  C   UNL     1       3.386   3.977  17.697  0.00  0.00    +0.000 A 
ATOM     14  C   UNL     1       2.384   3.266  18.352  0.00  0.00    +0.000 A 
ATOM     15  C   UNL     1       2.670   2.633  19.553  0.00  0.00    +0.000 A 
ATOM     16  C   UNL     1       3.956   2.732  20.049  0.00  0.00    +0.000 A 
ATOM     17  N   UNL     1       4.947   3.416  19.436  0.00  0.00    +0.000 NA
ENDBRANCH   8  12
BRANCH   6  18
ATOM     18  C   UNL     1       8.419   8.801  17.508  0.00  0.00    +0.000 C 
BRANCH  18  19
ATOM     19  C   UNL     1       8.823   9.994  18.346  0.00  0.00    +0.000 A 
ATOM     20  C   UNL     1       8.956  11.266  17.767  0.00  0.00    +0.000 A 
ATOM     21  C   UNL     1       9.233  12.383  18.559  0.00  0.00    +0.000 A 
ATOM     22  C   UNL     1       9.368  12.234  19.942  0.00  0.00    +0.000 A 
ATOM     23  C   UNL     1       9.265  10.973  20.535  0.00  0.00    +0.000 A 
ATOM     24  C   UNL     1       8.989   9.860  19.736  0.00  0.00    +0.000 A 
BRANCH  22  25
ATOM     25  S   UNL     1       9.711  13.653  20.955  0.00  0.00    +0.000 S 
ATOM     26  C   UNL     1       8.305  14.703  20.683  0.00  0.00    +0.000 C 
ATOM     27  O   UNL     1       9.684  13.220  22.339  0.00  0.00    +0.000 OA
ATOM     28  O   UNL     1      10.878  14.316  20.407  0.00  0.00    +0.000 OA
ENDBRANCH  22  25
ENDBRANCH  18  19
ENDBRANCH   6  18
TORSDOF 4
ENDMDL
MODEL 8
REMARK VINA RESULT:      -8.4      5.330      9.068
REMARK  Name = 
REMARK  6 active torsions:
REMARK  status: ('A' for Active; 'I' for Inactive)
REMARK    1  A    between atoms: C_1  and  N_2
REMARK    2  A    between atoms: N_6  and  C_7
REMARK    3  A    between atoms: C_7  and  C_8
REMARK    4  A    between atoms: C_11  and  S_12
REMARK    5  A    between atoms: S_12  and  C_13
REMARK    6  A    between atoms: C_19  and  C_20
REMARK                            x       y       z     vdW  Elec       q    Type
REMARK                         _______ _______ _______ _____ _____    ______ ____
ROOT
ATOM      1  C   UNL     1      -0.804  10.749  22.683  0.00  0.00    +0.000 C 
ATOM      2  N   UNL     1       0.337  10.863  21.803  0.00  0.00    +0.000 N 
ATOM      3  C   UNL     1       0.079  10.595  20.462  0.00  0.00    +0.000 A 
ATOM      4  N   UNL     1       1.082  10.034  19.773  0.00  0.00    +0.000 NA
ATOM      5  C   UNL     1       0.904   9.831  18.457  0.00  0.00    +0.000 A 
ATOM      6  N   UNL     1       1.862   9.171  17.691  0.00  0.00    +0.000 N 
ATOM      7  C   UNL     1      -0.279  10.172  17.837  0.00  0.00    +0.000 A 
ATOM      8  C   UNL     1      -1.293  10.680  18.624  0.00  0.00    +0.000 A 
ATOM      9  N   UNL     1      -1.113  10.905  19.943  0.00  0.00    +0.000 NA
ATOM     10  H   UNL     1       1.148  10.309  22.057  0.00  0.00    +0.000 HD
ATOM     11  H   UNL     1       2.105   9.624  16.818  0.00  0.00    +0.000 HD
ENDROOT
BRANCH   8  12
ATOM     12  C   UNL     1      -2.643  10.949  18.073  0.00  0.00    +0.000 A 
ATOM     13  C   UNL     1      -2.996  10.628  16.760  0.00  0.00    +0.000 A 
ATOM     14  C   UNL     1      -4.267  10.952  16.292  0.00  0.00    +0.000 A 
ATOM     15  C   UNL     1      -5.163  11.588  17.139  0.00  0.00    +0.000 A 
ATOM     16  C   UNL     1      -4.752  11.867  18.429  0.00  0.00    +0.000 A 
ATOM     17  N   UNL     1      -3.526  11.565  18.908  0.00  0.00    +0.000 NA
ENDBRANCH   8  12
BRANCH   6  18
ATOM     18  C   UNL     1       2.895   8.388  18.329  0.00  0.00    +0.000 C 
BRANCH  18  19
ATOM     19  C   UNL     1       2.475   6.967  18.633  0.00  0.00    +0.000 A 
ATOM     20  C   UNL     1       2.527   5.975  17.641  0.00  0.00    +0.000 A 
ATOM     21  C   UNL     1       2.232   4.644  17.949  0.00  0.00    +0.000 A 
ATOM     22  C   UNL     1       1.894   4.296  19.260  0.00  0.00    +0.000 A 
ATOM     23  C   UNL     1       1.811   5.273  20.256  0.00  0.00    +0.000 A 
ATOM     24  C   UNL     1       2.106   6.601  19.940  0.00  0.00    +0.000 A 
BRANCH  22  25
ATOM     25  S   UNL     1       1.527   2.605  19.659  0.00  0.00    +0.000 S 
ATOM     26  C   UNL     1       1.468   2.603  21.433  0.00  0.00    +0.000 C 
ATOM     27  O   UNL     1       0.193   2.317  19.167  0.00  0.00    +0.000 OA
ATOM     28  O   UNL     1       2.660   1.797  19.248  0.00  0.00    +0.000 OA
ENDBRANCH  22  25
ENDBRANCH  18  19
ENDBRANCH   6  18
TORSDOF 4
ENDMDL
MODEL 9
REMARK VINA RESULT:      -8.3      3.016      5.037
REMARK  Name = 
REMARK  6 active torsions:
REMARK  status: ('A' for Active; 'I' for Inactive)
REMARK    1  A    between atoms: C_1  and  N_2
REMARK    2  A    between atoms: N_6  and  C_7
REMARK    3  A    between atoms: C_7  and  C_8
REMARK    4  A    between atoms: C_11  and  S_12
REMARK    5  A    between atoms: S_12  and  C_13
REMARK    6  A    between atoms: C_19  and  C_20
REMARK                            x       y       z     vdW  Elec       q    Type
REMARK                         _______ _______ _______ _____ _____    ______ ____
ROOT
ATOM      1  C   UNL     1       1.690   1.869  18.970  0.00  0.00    +0.000 C 
ATOM      2  N   UNL     1       1.045   3.163  19.015  0.00  0.00    +0.000 N 
ATOM      3  C   UNL     1       1.893   4.253  18.851  0.00  0.00    +0.000 A 
ATOM      4  N   UNL     1       1.554   5.365  19.517  0.00  0.00    +0.000 NA
ATOM      5  C   UNL     1       2.301   6.465  19.325  0.00  0.00    +0.000 A 
ATOM      6  N   UNL     1       2.069   7.633  20.049  0.00  0.00    +0.000 N 
ATOM      7  C   UNL     1       3.393   6.447  18.484  0.00  0.00    +0.000 A 
ATOM      8  C   UNL     1       3.724   5.248  17.887  0.00  0.00    +0.000 A 
ATOM      9  N   UNL     1       2.965   4.144  18.060  0.00  0.00    +0.000 NA
ATOM     10  H   UNL     1       0.490   3.350  19.844  0.00  0.00    +0.000 HD
ATOM     11  H   UNL     1       2.032   8.482  19.499  0.00  0.00    +0.000 HD
ENDROOT
BRANCH   8  12
ATOM     12  C   UNL     1       4.955   5.098  17.074  0.00  0.00    +0.000 A 
ATOM     13  C   UNL     1       6.066   5.930  17.234  0.00  0.00    +0.000 A 
ATOM     14  C   UNL     1       7.172   5.765  16.405  0.00  0.00    +0.000 A 
ATOM     15  C   UNL     1       7.154   4.773  15.434  0.00  0.00    +0.000 A 
ATOM     16  C   UNL     1       6.027   3.979  15.338  0.00  0.00    +0.000 A 
ATOM     17  N   UNL     1       4.940   4.118  16.128  0.00  0.00    +0.000 NA
ENDBRANCH   8  12
BRANCH   6  18
ATOM     18  C   UNL     1       1.268   7.600  21.251  0.00  0.00    +0.000 C 
BRANCH  18  19
ATOM     19  C   UNL     1       0.648   8.935  21.600  0.00  0.00    +0.000 A 
ATOM     20  C   UNL     1       0.552   9.955  20.640  0.00  0.00    +0.000 A 
ATOM     21  C   UNL     1      -0.109  11.151  20.935  0.00  0.00    +0.000 A 
ATOM     22  C   UNL     1      -0.688  11.328  22.195  0.00  0.00    +0.000 A 
ATOM     23  C   UNL     1      -0.580  10.336  23.173  0.00  0.00    +0.000 A 
ATOM     24  C   UNL     1       0.083   9.144  22.871  0.00  0.00    +0.000 A 
BRANCH  22  25
ATOM     25  S   UNL     1      -1.536  12.842  22.573  0.00  0.00    +0.000 S 
ATOM     26  C   UNL     1      -3.043  12.292  23.333  0.00  0.00    +0.000 C 
ATOM     27  O   UNL     1      -0.759  13.542  23.577  0.00  0.00    +0.000 OA
ATOM     28  O   UNL     1      -1.877  13.484  21.317  0.00  0.00    +0.000 OA
ENDBRANCH  22  25
ENDBRANCH  18  19
ENDBRANCH   6  18
TORSDOF 4
ENDMDL
