MODEL 1
REMARK VINA RESULT:      -8.7      0.000      0.000
REMARK  Name = 
REMARK  5 active torsions:
REMARK  status: ('A' for Active; 'I' for Inactive)
REMARK    1  A    between atoms: C_2  and  O_3
REMARK    2  A    between atoms: C_2  and  C_4
REMARK    3  A    between atoms: C_4  and  C_5
REMARK    4  A    between atoms: N_7  and  C_8
REMARK    5  A    between atoms: C_8  and  C_9
REMARK                            x       y       z     vdW  Elec       q    Type
REMARK                         _______ _______ _______ _____ _____    ______ ____
ROOT
ATOM      1  C   UNL     1       3.077   6.392  19.172  0.00  0.00    +0.000 A 
ATOM      2  N   UNL     1       4.170   6.533  18.488  0.00  0.00    +0.000 NA
ATOM      3  N   UNL     1       5.069   5.491  18.426  0.00  0.00    +0.000 N 
ATOM      4  C   UNL     1       4.896   4.269  19.077  0.00  0.00    +0.000 A 
ATOM      5  O   UNL     1       5.741   3.382  19.068  0.00  0.00    +0.000 OA
ATOM      6  C   UNL     1       3.627   4.087  19.805  0.00  0.00    +0.000 A 
ATOM      7  C   UNL     1       3.332   2.884  20.448  0.00  0.00    +0.000 A 
ATOM      8  F   UNL     1       4.188   1.854  20.447  0.00  0.00    +0.000 F 
ATOM      9  C   UNL     1       2.120   2.709  21.117  0.00  0.00    +0.000 A 
ATOM     10  C   UNL     1       1.199   3.750  21.160  0.00  0.00    +0.000 A 
ATOM     11  C   UNL     1       1.496   4.966  20.545  0.00  0.00    +0.000 A 
ATOM     12  C   UNL     1       2.709   5.135  19.861  0.00  0.00    +0.000 A 
ENDROOT
BRANCH   1  13
ATOM     13  C   UNL     1       2.176   7.606  19.258  0.00  0.00    +0.000 C 
BRANCH  13  15
ATOM     14  O   UNL     1       1.090   9.129  17.753  0.00  0.00    +0.000 OA
ATOM     15  C   UNL     1       2.017   8.361  17.973  0.00  0.00    +0.000 C 
BRANCH  15  16
ATOM     16  O   UNL     1       2.991   8.123  17.067  0.00  0.00    +0.000 OA
ATOM     17  H   UNL     1       3.419   8.925  16.706  0.00  0.00    +0.000 HD
ENDBRANCH  15  16
ENDBRANCH  13  15
ENDBRANCH   1  13
BRANCH   3  18
ATOM     18  C   UNL     1       6.347   5.763  17.758  0.00  0.00    +0.000 C 
BRANCH  18  19
ATOM     19  C   UNL     1       6.410   5.273  16.335  0.00  0.00    +0.000 A 
ATOM     20  N   UNL     1       7.287   5.728  15.462  0.00  0.00    +0.000 NA
ATOM     21  C   UNL     1       7.121   5.107  14.236  0.00  0.00    +0.000 A 
ATOM     22  C   UNL     1       7.918   5.315  13.092  0.00  0.00    +0.000 A 
ATOM     23  C   UNL     1       7.657   4.593  11.923  0.00  0.00    +0.000 A 
ATOM     24  C   UNL     1       6.604   3.686  11.877  0.00  0.00    +0.000 A 
ATOM     25  C   UNL     1       5.784   3.480  12.993  0.00  0.00    +0.000 A 
ATOM     26  C   UNL     1       6.067   4.197  14.168  0.00  0.00    +0.000 A 
ATOM     27  S   UNL     1       5.268   4.153  15.695  0.00  0.00    +0.000 S 
ENDBRANCH  18  19
ENDBRANCH   3  18
TORSDOF 5
ENDMDL
MODEL 2
REMARK VINA RESULT:      -8.5      2.044      3.907
REMARK  Name = 
REMARK  5 active torsions:
REMARK  status: ('A' for Active; 'I' for Inactive)
REMARK    1  A    between atoms: C_2  and  O_3
REMARK    2  A    between atoms: C_2  and  C_4
REMARK    3  A    between atoms: C_4  and  C_5
REMARK    4  A    between atoms: N_7  and  C_8
REMARK    5  A    between atoms: C_8  and  C_9
REMARK                            x       y       z     vdW  Elec       q    Type
REMARK                         _______ _______ _______ _____ _____    ______ ____
ROOT
ATOM      1  C   UNL     1       4.223   3.818  19.794  0.00  0.00    +0.000 A 
ATOM      2  N   UNL     1       5.385   3.805  19.220  0.00  0.00    +0.000 NA
ATOM      3  N   UNL     1       5.794   4.903  18.495  0.00  0.00    +0.000 N 
ATOM      4  C   UNL     1       5.023   6.050  18.311  0.00  0.00    +0.000 A 
ATOM      5  O   UNL     1       5.375   6.986  17.602  0.00  0.00    +0.000 OA
ATOM      6  C   UNL     1       3.727   6.089  19.012  0.00  0.00    +0.000 A 
ATOM      7  C   UNL     1       2.901   7.211  18.937  0.00  0.00    +0.000 A 
ATOM      8  F   UNL     1       3.237   8.289  18.216  0.00  0.00    +0.000 F 
ATOM      9  C   UNL     1       1.685   7.251  19.620  0.00  0.00    +0.000 A 
ATOM     10  C   UNL     1       1.280   6.156  20.374  0.00  0.00    +0.000 A 
ATOM     11  C   UNL     1       2.086   5.018  20.434  0.00  0.00    +0.000 A 
ATOM     12  C   UNL     1       3.314   4.985  19.757  0.00  0.00    +0.000 A 
ENDROOT
BRANCH   1  13
ATOM     13  C   UNL     1       3.811   2.547  20.507  0.00  0.00    +0.000 C 
BRANCH  13  15
ATOM     14  O   UNL     1       5.635   1.348  21.507  0.00  0.00    +0.000 OA
ATOM     15  C   UNL     1       4.870   1.488  20.561  0.00  0.00    +0.000 C 
BRANCH  15  16
ATOM     16  O   UNL     1       4.912   0.690  19.472  0.00  0.00    +0.000 OA
ATOM     17  H   UNL     1       5.761   0.706  18.985  0.00  0.00    +0.000 HD
ENDBRANCH  15  16
ENDBRANCH  13  15
ENDBRANCH   1  13
BRANCH   3  18
ATOM     18  C   UNL     1       7.054   4.770  17.754  0.00  0.00    +0.000 C 
BRANCH  18  19
ATOM     19  C   UNL     1       6.874   4.554  16.274  0.00  0.00    +0.000 A 
ATOM     20  N   UNL     1       7.609   5.169  15.368  0.00  0.00    +0.000 NA
ATOM     21  C   UNL     1       7.232   4.786  14.093  0.00  0.00    +0.000 A 
ATOM     22  C   UNL     1       7.838   5.208  12.893  0.00  0.00    +0.000 A 
ATOM     23  C   UNL     1       7.374   4.716  11.669  0.00  0.00    +0.000 A 
ATOM     24  C   UNL     1       6.305   3.827  11.629  0.00  0.00    +0.000 A 
ATOM     25  C   UNL     1       5.671   3.413  12.806  0.00  0.00    +0.000 A 
ATOM     26  C   UNL     1       6.158   3.899  14.031  0.00  0.00    +0.000 A 
ATOM     27  S   UNL     1       5.616   3.567  15.633  0.00  0.00    +0.000 S 
ENDBRANCH  18  19
ENDBRANCH   3  18
TORSDOF 5
ENDMDL
MODEL 3
REMARK VINA RESULT:      -8.2      3.575      7.259
REMARK  Name = 
REMARK  5 active torsions:
REMARK  status: ('A' for Active; 'I' for Inactive)
REMARK    1  A    between atoms: C_2  and  O_3
REMARK    2  A    between atoms: C_2  and  C_4
REMARK    3  A    between atoms: C_4  and  C_5
REMARK    4  A    between atoms: N_7  and  C_8
REMARK    5  A    between atoms: C_8  and  C_9
REMARK                            x       y       z     vdW  Elec       q    Type
REMARK                         _______ _______ _______ _____ _____    ______ ____
ROOT
ATOM      1  C   UNL     1       5.015   5.379  18.854  0.00  0.00    +0.000 A 
ATOM      2  N   UNL     1       4.480   6.528  18.581  0.00  0.00    +0.000 NA
ATOM      3  N   UNL     1       3.152   6.588  18.220  0.00  0.00    +0.000 N 
ATOM      4  C   UNL     1       2.322   5.473  18.106  0.00  0.00    +0.000 A 
ATOM      5  O   UNL     1       1.163   5.540  17.713  0.00  0.00    +0.000 OA
ATOM      6  C   UNL     1       2.914   4.173  18.473  0.00  0.00    +0.000 A 
ATOM      7  C   UNL     1       2.156   3.002  18.443  0.00  0.00    +0.000 A 
ATOM      8  F   UNL     1       0.870   3.002  18.064  0.00  0.00    +0.000 F 
ATOM      9  C   UNL     1       2.714   1.778  18.812  0.00  0.00    +0.000 A 
ATOM     10  C   UNL     1       4.048   1.718  19.202  0.00  0.00    +0.000 A 
ATOM     11  C   UNL     1       4.823   2.878  19.209  0.00  0.00    +0.000 A 
ATOM     12  C   UNL     1       4.255   4.110  18.850  0.00  0.00    +0.000 A 
ENDROOT
BRANCH   1  13
ATOM     13  C   UNL     1       6.497   5.385  19.166  0.00  0.00    +0.000 C 
BRANCH  13  15
ATOM     14  O   UNL     1       7.577   6.145  17.161  0.00  0.00    +0.000 OA
ATOM     15  C   UNL     1       7.390   5.246  17.970  0.00  0.00    +0.000 C 
BRANCH  15  16
ATOM     16  O   UNL     1       7.980   4.036  17.857  0.00  0.00    +0.000 OA
ATOM     17  H   UNL     1       8.009   3.515  18.685  0.00  0.00    +0.000 HD
ENDBRANCH  15  16
ENDBRANCH  13  15
ENDBRANCH   1  13
BRANCH   3  18
ATOM     18  C   UNL     1       2.646   7.895  17.787  0.00  0.00    +0.000 C 
BRANCH  18  19
ATOM     19  C   UNL     1       1.846   8.621  18.837  0.00  0.00    +0.000 A 
ATOM     20  N   UNL     1       1.751   8.196  20.082  0.00  0.00    +0.000 NA
ATOM     21  C   UNL     1       0.959   9.050  20.829  0.00  0.00    +0.000 A 
ATOM     22  C   UNL     1       0.686   8.927  22.206  0.00  0.00    +0.000 A 
ATOM     23  C   UNL     1      -0.110   9.884  22.845  0.00  0.00    +0.000 A 
ATOM     24  C   UNL     1      -0.650  10.943  22.124  0.00  0.00    +0.000 A 
ATOM     25  C   UNL     1      -0.413  11.073  20.750  0.00  0.00    +0.000 A 
ATOM     26  C   UNL     1       0.404  10.117  20.123  0.00  0.00    +0.000 A 
ATOM     27  S   UNL     1       0.895  10.010  18.474  0.00  0.00    +0.000 S 
ENDBRANCH  18  19
ENDBRANCH   3  18
TORSDOF 5
ENDMDL
MODEL 4
REMARK VINA RESULT:      -8.0      1.931      3.971
REMARK  Name = 
REMARK  5 active torsions:
REMARK  status: ('A' for Active; 'I' for Inactive)
REMARK    1  A    between atoms: C_2  and  O_3
REMARK    2  A    between atoms: C_2  and  C_4
REMARK    3  A    between atoms: C_4  and  C_5
REMARK    4  A    between atoms: N_7  and  C_8
REMARK    5  A    between atoms: C_8  and  C_9
REMARK                            x       y       z     vdW  Elec       q    Type
REMARK                         _______ _______ _______ _____ _____    ______ ____
ROOT
ATOM      1  C   UNL     1       4.417   2.804  19.371  0.00  0.00    +0.000 A 
ATOM      2  N   UNL     1       5.497   3.283  18.838  0.00  0.00    +0.000 NA
ATOM      3  N   UNL     1       5.585   4.634  18.583  0.00  0.00    +0.000 N 
ATOM      4  C   UNL     1       4.563   5.547  18.844  0.00  0.00    +0.000 A 
ATOM      5  O   UNL     1       4.633   6.732  18.543  0.00  0.00    +0.000 OA
ATOM      6  C   UNL     1       3.358   5.012  19.504  0.00  0.00    +0.000 A 
ATOM      7  C   UNL     1       2.298   5.849  19.856  0.00  0.00    +0.000 A 
ATOM      8  F   UNL     1       2.320   7.163  19.596  0.00  0.00    +0.000 F 
ATOM      9  C   UNL     1       1.169   5.341  20.500  0.00  0.00    +0.000 A 
ATOM     10  C   UNL     1       1.088   3.982  20.783  0.00  0.00    +0.000 A 
ATOM     11  C   UNL     1       2.130   3.132  20.410  0.00  0.00    +0.000 A 
ATOM     12  C   UNL     1       3.270   3.647  19.775  0.00  0.00    +0.000 A 
ENDROOT
BRANCH   1  13
ATOM     13  C   UNL     1       4.365   1.301  19.549  0.00  0.00    +0.000 C 
BRANCH  13  15
ATOM     14  O   UNL     1       5.539   1.342  21.643  0.00  0.00    +0.000 OA
ATOM     15  C   UNL     1       5.294   0.761  20.594  0.00  0.00    +0.000 C 
BRANCH  15  16
ATOM     16  O   UNL     1       5.845  -0.432  20.281  0.00  0.00    +0.000 OA
ATOM     17  H   UNL     1       5.319  -1.210  20.554  0.00  0.00    +0.000 HD
ENDBRANCH  15  16
ENDBRANCH  13  15
ENDBRANCH   1  13
BRANCH   3  18
ATOM     18  C   UNL     1       6.772   5.090  17.850  0.00  0.00    +0.000 C 
BRANCH  18  19
ATOM     19  C   UNL     1       6.730   4.798  16.374  0.00  0.00    +0.000 A 
ATOM     20  N   UNL     1       7.492   5.426  15.499  0.00  0.00    +0.000 NA
ATOM     21  C   UNL     1       7.249   4.961  14.219  0.00  0.00    +0.000 A 
ATOM     22  C   UNL     1       7.921   5.375  13.051  0.00  0.00    +0.000 A 
ATOM     23  C   UNL     1       7.594   4.797  11.819  0.00  0.00    +0.000 A 
ATOM     24  C   UNL     1       6.597   3.831  11.739  0.00  0.00    +0.000 A 
ATOM     25  C   UNL     1       5.899   3.422  12.881  0.00  0.00    +0.000 A 
ATOM     26  C   UNL     1       6.248   3.995  14.116  0.00  0.00    +0.000 A 
ATOM     27  S   UNL     1       5.601   3.694  15.685  0.00  0.00    +0.000 S 
ENDBRANCH  18  19
ENDBRANCH   3  18
TORSDOF 5
ENDMDL
MODEL 5
REMARK VINA RESULT:      -7.8      5.184      8.058
REMARK  Name = 
REMARK  5 active torsions:
REMARK  status: ('A' for Active; 'I' for Inactive)
REMARK    1  A    between atoms: C_2  and  O_3
REMARK    2  A    between atoms: C_2  and  C_4
REMARK    3  A    between atoms: C_4  and  C_5
REMARK    4  A    between atoms: N_7  and  C_8
REMARK    5  A    between atoms: C_8  and  C_9
REMARK                            x       y       z     vdW  Elec       q    Type
REMARK                         _______ _______ _______ _____ _____    ______ ____
ROOT
ATOM      1  C   UNL     1      -1.836  10.421  18.055  0.00  0.00    +0.000 A 
ATOM      2  N   UNL     1      -0.647   9.938  17.872  0.00  0.00    +0.000 NA
ATOM      3  N   UNL     1       0.404  10.427  18.618  0.00  0.00    +0.000 N 
ATOM      4  C   UNL     1       0.283  11.441  19.568  0.00  0.00    +0.000 A 
ATOM      5  O   UNL     1       1.242  11.911  20.169  0.00  0.00    +0.000 OA
ATOM      6  C   UNL     1      -1.078  11.948  19.818  0.00  0.00    +0.000 A 
ATOM      7  C   UNL     1      -1.317  12.926  20.784  0.00  0.00    +0.000 A 
ATOM      8  F   UNL     1      -0.324  13.459  21.510  0.00  0.00    +0.000 F 
ATOM      9  C   UNL     1      -2.610  13.387  21.032  0.00  0.00    +0.000 A 
ATOM     10  C   UNL     1      -3.676  12.878  20.299  0.00  0.00    +0.000 A 
ATOM     11  C   UNL     1      -3.446  11.920  19.312  0.00  0.00    +0.000 A 
ATOM     12  C   UNL     1      -2.147  11.448  19.073  0.00  0.00    +0.000 A 
ENDROOT
BRANCH   1  13
ATOM     13  C   UNL     1      -2.924   9.890  17.144  0.00  0.00    +0.000 C 
BRANCH  13  15
ATOM     14  O   UNL     1      -3.567  10.026  14.836  0.00  0.00    +0.000 OA
ATOM     15  C   UNL     1      -2.957  10.510  15.780  0.00  0.00    +0.000 C 
BRANCH  15  16
ATOM     16  O   UNL     1      -2.254  11.658  15.677  0.00  0.00    +0.000 OA
ATOM     17  H   UNL     1      -1.578  11.789  16.372  0.00  0.00    +0.000 HD
ENDBRANCH  15  16
ENDBRANCH  13  15
ENDBRANCH   1  13
BRANCH   3  18
ATOM     18  C   UNL     1       1.743   9.943  18.264  0.00  0.00    +0.000 C 
BRANCH  18  19
ATOM     19  C   UNL     1       2.007   8.517  18.672  0.00  0.00    +0.000 A 
ATOM     20  N   UNL     1       2.459   7.606  17.833  0.00  0.00    +0.000 NA
ATOM     21  C   UNL     1       2.610   6.388  18.470  0.00  0.00    +0.000 A 
ATOM     22  C   UNL     1       3.120   5.210  17.888  0.00  0.00    +0.000 A 
ATOM     23  C   UNL     1       3.247   4.051  18.661  0.00  0.00    +0.000 A 
ATOM     24  C   UNL     1       2.857   4.050  19.995  0.00  0.00    +0.000 A 
ATOM     25  C   UNL     1       2.325   5.201  20.590  0.00  0.00    +0.000 A 
ATOM     26  C   UNL     1       2.219   6.365  19.809  0.00  0.00    +0.000 A 
ATOM     27  S   UNL     1       1.634   7.925  20.246  0.00  0.00    +0.000 S 
ENDBRANCH  18  19
ENDBRANCH   3  18
TORSDOF 5
ENDMDL
MODEL 6
REMARK VINA RESULT:      -7.8      3.465      7.269
REMARK  Name = 
REMARK  5 active torsions:
REMARK  status: ('A' for Active; 'I' for Inactive)
REMARK    1  A    between atoms: C_2  and  O_3
REMARK    2  A    between atoms: C_2  and  C_4
REMARK    3  A    between atoms: C_4  and  C_5
REMARK    4  A    between atoms: N_7  and  C_8
REMARK    5  A    between atoms: C_8  and  C_9
REMARK                            x       y       z     vdW  Elec       q    Type
REMARK                         _______ _______ _______ _____ _____    ______ ____
ROOT
ATOM      1  C   UNL     1       5.046   5.316  18.752  0.00  0.00    +0.000 A 
ATOM      2  N   UNL     1       4.500   6.475  18.549  0.00  0.00    +0.000 NA
ATOM      3  N   UNL     1       3.159   6.548  18.244  0.00  0.00    +0.000 N 
ATOM      4  C   UNL     1       2.325   5.438  18.116  0.00  0.00    +0.000 A 
ATOM      5  O   UNL     1       1.151   5.520  17.773  0.00  0.00    +0.000 OA
ATOM      6  C   UNL     1       2.930   4.125  18.404  0.00  0.00    +0.000 A 
ATOM      7  C   UNL     1       2.171   2.955  18.355  0.00  0.00    +0.000 A 
ATOM      8  F   UNL     1       0.872   2.969  18.028  0.00  0.00    +0.000 F 
ATOM      9  C   UNL     1       2.743   1.718  18.650  0.00  0.00    +0.000 A 
ATOM     10  C   UNL     1       4.091   1.642  18.984  0.00  0.00    +0.000 A 
ATOM     11  C   UNL     1       4.866   2.802  19.009  0.00  0.00    +0.000 A 
ATOM     12  C   UNL     1       4.285   4.047  18.725  0.00  0.00    +0.000 A 
ENDROOT
BRANCH   1  13
ATOM     13  C   UNL     1       6.539   5.311  19.005  0.00  0.00    +0.000 C 
BRANCH  13  15
ATOM     14  O   UNL     1       7.409   6.045  16.891  0.00  0.00    +0.000 OA
ATOM     15  C   UNL     1       7.383   5.195  17.772  0.00  0.00    +0.000 C 
BRANCH  15  16
ATOM     16  O   UNL     1       8.122   4.066  17.711  0.00  0.00    +0.000 OA
ATOM     17  H   UNL     1       7.603   3.241  17.636  0.00  0.00    +0.000 HD
ENDBRANCH  15  16
ENDBRANCH  13  15
ENDBRANCH   1  13
BRANCH   3  18
ATOM     18  C   UNL     1       2.636   7.872  17.887  0.00  0.00    +0.000 C 
BRANCH  18  19
ATOM     19  C   UNL     1       1.852   8.538  18.986  0.00  0.00    +0.000 A 
ATOM     20  N   UNL     1       1.292   9.724  18.846  0.00  0.00    +0.000 NA
ATOM     21  C   UNL     1       0.637  10.094  20.007  0.00  0.00    +0.000 A 
ATOM     22  C   UNL     1      -0.111  11.274  20.192  0.00  0.00    +0.000 A 
ATOM     23  C   UNL     1      -0.750  11.508  21.414  0.00  0.00    +0.000 A 
ATOM     24  C   UNL     1      -0.637  10.591  22.453  0.00  0.00    +0.000 A 
ATOM     25  C   UNL     1       0.119   9.423  22.302  0.00  0.00    +0.000 A 
ATOM     26  C   UNL     1       0.742   9.189  21.064  0.00  0.00    +0.000 A 
ATOM     27  S   UNL     1       1.711   7.855  20.561  0.00  0.00    +0.000 S 
ENDBRANCH  18  19
ENDBRANCH   3  18
TORSDOF 5
ENDMDL
MODEL 7
REMARK VINA RESULT:      -7.8      6.844      9.808
REMARK  Name = 
REMARK  5 active torsions:
REMARK  status: ('A' for Active; 'I' for Inactive)
REMARK    1  A    between atoms: C_2  and  O_3
REMARK    2  A    between atoms: C_2  and  C_4
REMARK    3  A    between atoms: C_4  and  C_5
REMARK    4  A    between atoms: N_7  and  C_8
REMARK    5  A    between atoms: C_8  and  C_9
REMARK                            x       y       z     vdW  Elec       q    Type
REMARK                         _______ _______ _______ _____ _____    ______ ____
ROOT
ATOM      1  C   UNL     1      -3.620  11.522  17.146  0.00  0.00    +0.000 A 
ATOM      2  N   UNL     1      -2.384  11.597  17.528  0.00  0.00    +0.000 NA
ATOM      3  N   UNL     1      -2.096  11.954  18.827  0.00  0.00    +0.000 N 
ATOM      4  C   UNL     1      -3.062  12.268  19.783  0.00  0.00    +0.000 A 
ATOM      5  O   UNL     1      -2.783  12.654  20.912  0.00  0.00    +0.000 OA
ATOM      6  C   UNL     1      -4.469  12.126  19.367  0.00  0.00    +0.000 A 
ATOM      7  C   UNL     1      -5.512  12.365  20.262  0.00  0.00    +0.000 A 
ATOM      8  F   UNL     1      -5.286  12.750  21.525  0.00  0.00    +0.000 F 
ATOM      9  C   UNL     1      -6.842  12.208  19.869  0.00  0.00    +0.000 A 
ATOM     10  C   UNL     1      -7.136  11.822  18.566  0.00  0.00    +0.000 A 
ATOM     11  C   UNL     1      -6.101  11.607  17.655  0.00  0.00    +0.000 A 
ATOM     12  C   UNL     1      -4.764  11.753  18.056  0.00  0.00    +0.000 A 
ENDROOT
BRANCH   1  13
ATOM     13  C   UNL     1      -3.855  11.199  15.685  0.00  0.00    +0.000 C 
BRANCH  13  15
ATOM     14  O   UNL     1      -2.706   9.990  13.959  0.00  0.00    +0.000 OA
ATOM     15  C   UNL     1      -3.001  10.094  15.143  0.00  0.00    +0.000 C 
BRANCH  15  16
ATOM     16  O   UNL     1      -2.578   9.212  16.075  0.00  0.00    +0.000 OA
ATOM     17  H   UNL     1      -1.607   9.169  16.187  0.00  0.00    +0.000 HD
ENDBRANCH  15  16
ENDBRANCH  13  15
ENDBRANCH   1  13
BRANCH   3  18
ATOM     18  C   UNL     1      -0.680  12.160  19.155  0.00  0.00    +0.000 C 
BRANCH  18  19
ATOM     19  C   UNL     1       0.120  10.886  19.237  0.00  0.00    +0.000 A 
ATOM     20  N   UNL     1       0.790  10.398  18.211  0.00  0.00    +0.000 NA
ATOM     21  C   UNL     1       1.433   9.225  18.564  0.00  0.00    +0.000 A 
ATOM     22  C   UNL     1       2.277   8.464  17.730  0.00  0.00    +0.000 A 
ATOM     23  C   UNL     1       2.890   7.309  18.227  0.00  0.00    +0.000 A 
ATOM     24  C   UNL     1       2.655   6.897  19.534  0.00  0.00    +0.000 A 
ATOM     25  C   UNL     1       1.801   7.622  20.374  0.00  0.00    +0.000 A 
ATOM     26  C   UNL     1       1.206   8.791  19.870  0.00  0.00    +0.000 A 
ATOM     27  S   UNL     1       0.139   9.898  20.648  0.00  0.00    +0.000 S 
ENDBRANCH  18  19
ENDBRANCH   3  18
TORSDOF 5
ENDMDL
MODEL 8
REMARK VINA RESULT:      -7.7      7.394     10.293
REMARK  Name = 
REMARK  5 active torsions:
REMARK  status: ('A' for Active; 'I' for Inactive)
REMARK    1  A    between atoms: C_2  and  O_3
REMARK    2  A    between atoms: C_2  and  C_4
REMARK    3  A    between atoms: C_4  and  C_5
REMARK    4  A    between atoms: N_7  and  C_8
REMARK    5  A    between atoms: C_8  and  C_9
REMARK                            x       y       z     vdW  Elec       q    Type
REMARK                         _______ _______ _______ _____ _____    ______ ____
ROOT
ATOM      1  C   UNL     1      -4.287  11.714  18.462  0.00  0.00    +0.000 A 
ATOM      2  N   UNL     1      -3.003  11.814  18.608  0.00  0.00    +0.000 NA
ATOM      3  N   UNL     1      -2.492  12.295  19.794  0.00  0.00    +0.000 N 
ATOM      4  C   UNL     1      -3.274  12.710  20.871  0.00  0.00    +0.000 A 
ATOM      5  O   UNL     1      -2.802  13.203  21.889  0.00  0.00    +0.000 OA
ATOM      6  C   UNL     1      -4.732  12.541  20.727  0.00  0.00    +0.000 A 
ATOM      7  C   UNL     1      -5.601  12.877  21.765  0.00  0.00    +0.000 A 
ATOM      8  F   UNL     1      -5.157  13.382  22.924  0.00  0.00    +0.000 F 
ATOM      9  C   UNL     1      -6.978  12.695  21.633  0.00  0.00    +0.000 A 
ATOM     10  C   UNL     1      -7.496  12.185  20.447  0.00  0.00    +0.000 A 
ATOM     11  C   UNL     1      -6.638  11.872  19.393  0.00  0.00    +0.000 A 
ATOM     12  C   UNL     1      -5.253  12.044  19.533  0.00  0.00    +0.000 A 
ENDROOT
BRANCH   1  13
ATOM     13  C   UNL     1      -4.775  11.251  17.105  0.00  0.00    +0.000 C 
BRANCH  13  15
ATOM     14  O   UNL     1      -3.340   9.588  16.137  0.00  0.00    +0.000 OA
ATOM     15  C   UNL     1      -3.699  10.757  16.187  0.00  0.00    +0.000 C 
BRANCH  15  16
ATOM     16  O   UNL     1      -3.150  11.716  15.409  0.00  0.00    +0.000 OA
ATOM     17  H   UNL     1      -3.255  12.627  15.749  0.00  0.00    +0.000 HD
ENDBRANCH  15  16
ENDBRANCH  13  15
ENDBRANCH   1  13
BRANCH   3  18
ATOM     18  C   UNL     1      -1.042  12.518  19.843  0.00  0.00    +0.000 C 
BRANCH  18  19
ATOM     19  C   UNL     1      -0.225  11.255  19.771  0.00  0.00    +0.000 A 
ATOM     20  N   UNL     1       0.316  10.818  18.650  0.00  0.00    +0.000 NA
ATOM     21  C   UNL     1       1.010   9.642  18.871  0.00  0.00    +0.000 A 
ATOM     22  C   UNL     1       1.751   8.928  17.907  0.00  0.00    +0.000 A 
ATOM     23  C   UNL     1       2.432   7.764  18.275  0.00  0.00    +0.000 A 
ATOM     24  C   UNL     1       2.366   7.295  19.583  0.00  0.00    +0.000 A 
ATOM     25  C   UNL     1       1.617   7.973  20.553  0.00  0.00    +0.000 A 
ATOM     26  C   UNL     1       0.952   9.152  20.176  0.00  0.00    +0.000 A 
ATOM     27  S   UNL     1      -0.020  10.211  21.126  0.00  0.00    +0.000 S 
ENDBRANCH  18  19
ENDBRANCH   3  18
TORSDOF 5
ENDMDL
MODEL 9
REMARK VINA RESULT:      -7.7      6.086      9.112
REMARK  Name = 
REMARK  5 active torsions:
REMARK  status: ('A' for Active; 'I' for Inactive)
REMARK    1  A    between atoms: C_2  and  O_3
REMARK    2  A    between atoms: C_2  and  C_4
REMARK    3  A    between atoms: C_4  and  C_5
REMARK    4  A    between atoms: N_7  and  C_8
REMARK    5  A    between atoms: C_8  and  C_9
REMARK                            x       y       z     vdW  Elec       q    Type
REMARK                         _______ _______ _______ _____ _____    ______ ____
ROOT
ATOM      1  C   UNL     1      -2.656  10.600  17.908  0.00  0.00    +0.000 A 
ATOM      2  N   UNL     1      -1.396  10.499  18.199  0.00  0.00    +0.000 NA
ATOM      3  N   UNL     1      -0.873  11.266  19.217  0.00  0.00    +0.000 N 
ATOM      4  C   UNL     1      -1.613  12.181  19.966  0.00  0.00    +0.000 A 
ATOM      5  O   UNL     1      -1.113  12.906  20.819  0.00  0.00    +0.000 OA
ATOM      6  C   UNL     1      -3.056  12.253  19.675  0.00  0.00    +0.000 A 
ATOM      7  C   UNL     1      -3.896  13.098  20.402  0.00  0.00    +0.000 A 
ATOM      8  F   UNL     1      -3.430  13.890  21.377  0.00  0.00    +0.000 F 
ATOM      9  C   UNL     1      -5.265  13.146  20.137  0.00  0.00    +0.000 A 
ATOM     10  C   UNL     1      -5.801  12.355  19.128  0.00  0.00    +0.000 A 
ATOM     11  C   UNL     1      -4.966  11.527  18.377  0.00  0.00    +0.000 A 
ATOM     12  C   UNL     1      -3.592  11.470  18.653  0.00  0.00    +0.000 A 
ENDROOT
BRANCH   1  13
ATOM     13  C   UNL     1      -3.140   9.785  16.727  0.00  0.00    +0.000 C 
BRANCH  13  15
ATOM     14  O   UNL     1      -3.711  10.109  14.418  0.00  0.00    +0.000 OA
ATOM     15  C   UNL     1      -3.127  10.511  15.416  0.00  0.00    +0.000 C 
BRANCH  15  16
ATOM     16  O   UNL     1      -2.413  11.658  15.426  0.00  0.00    +0.000 OA
ATOM     17  H   UNL     1      -2.839  12.401  15.898  0.00  0.00    +0.000 HD
ENDBRANCH  15  16
ENDBRANCH  13  15
ENDBRANCH   1  13
BRANCH   3  18
ATOM     18  C   UNL     1       0.582  11.212  19.401  0.00  0.00    +0.000 C 
BRANCH  18  19
ATOM     19  C   UNL     1       1.162   9.827  19.286  0.00  0.00    +0.000 A 
ATOM     20  N   UNL     1       1.103   8.944  20.265  0.00  0.00    +0.000 NA
ATOM     21  C   UNL     1       1.711   7.759  19.889  0.00  0.00    +0.000 A 
ATOM     22  C   UNL     1       1.786   6.588  20.669  0.00  0.00    +0.000 A 
ATOM     23  C   UNL     1       2.406   5.446  20.152  0.00  0.00    +0.000 A 
ATOM     24  C   UNL     1       2.966   5.466  18.879  0.00  0.00    +0.000 A 
ATOM     25  C   UNL     1       2.925   6.625  18.094  0.00  0.00    +0.000 A 
ATOM     26  C   UNL     1       2.283   7.761  18.617  0.00  0.00    +0.000 A 
ATOM     27  S   UNL     1       2.050   9.312  17.903  0.00  0.00    +0.000 S 
ENDBRANCH  18  19
ENDBRANCH   3  18
TORSDOF 5
ENDMDL
