MODEL 1
REMARK VINA RESULT:      -8.7      0.000      0.000
REMARK  Name = 
REMARK  5 active torsions:
REMARK  status: ('A' for Active; 'I' for Inactive)
REMARK    1  A    between atoms: C_1  and  C_2
REMARK    2  A    between atoms: N_5  and  S_6
REMARK    3  A    between atoms: S_6  and  C_9
REMARK    4  A    between atoms: C_12  and  N_13
REMARK    5  A    between atoms: C_18  and  C_19
REMARK                            x       y       z     vdW  Elec       q    Type
REMARK                         _______ _______ _______ _____ _____    ______ ____
ROOT
ATOM      1  C   UNL     1       0.698   3.216  20.258  0.00  0.00    +0.000 C 
ATOM      2  C   UNL     1       1.437   4.041  19.223  0.00  0.00    +0.000 C 
ATOM      3  C   UNL     1       2.684   3.331  18.619  0.00  0.00    +0.000 C 
ATOM      4  O   UNL     1       2.955   2.269  18.112  0.00  0.00    +0.000 OA
ATOM      5  N   UNL     1       3.499   4.424  18.907  0.00  0.00    +0.000 N 
ATOM      6  C   UNL     1       2.469   5.099  19.729  0.00  0.00    +0.000 C 
ENDROOT
BRANCH   6   7
ATOM      7  C   UNL     1       2.274   6.627  19.345  0.00  0.00    +0.000 A 
ATOM      8  C   UNL     1       1.695   7.557  20.238  0.00  0.00    +0.000 A 
ATOM      9  C   UNL     1       1.422   8.875  19.866  0.00  0.00    +0.000 A 
ATOM     10  C   UNL     1       1.726   9.309  18.582  0.00  0.00    +0.000 A 
ATOM     11  C   UNL     1       2.314   8.430  17.679  0.00  0.00    +0.000 A 
ATOM     12  C   UNL     1       2.586   7.112  18.060  0.00  0.00    +0.000 A 
ENDBRANCH   6   7
BRANCH   5  13
ATOM     13  S   UNL     1       5.139   4.400  19.109  0.00  0.00    +0.000 S 
ATOM     14  O   UNL     1       5.539   5.648  19.730  0.00  0.00    +0.000 OA
ATOM     15  O   UNL     1       5.513   3.134  19.700  0.00  0.00    +0.000 OA
BRANCH  13  16
ATOM     16  C   UNL     1       5.717   4.438  17.430  0.00  0.00    +0.000 A 
ATOM     17  C   UNL     1       7.090   4.525  17.171  0.00  0.00    +0.000 A 
ATOM     18  C   UNL     1       7.535   4.613  15.849  0.00  0.00    +0.000 A 
ATOM     19  C   UNL     1       6.601   4.611  14.800  0.00  0.00    +0.000 A 
ATOM     20  C   UNL     1       5.229   4.497  15.064  0.00  0.00    +0.000 A 
ATOM     21  C   UNL     1       4.789   4.395  16.385  0.00  0.00    +0.000 A 
BRANCH  19  22
ATOM     22  N   UNL     1       7.064   4.738  13.412  0.00  0.00    +0.000 N 
ATOM     23  O   UNL     1       7.875   5.639  13.156  0.00  0.00    +0.000 OA
ATOM     24  O   UNL     1       6.611   3.940  12.579  0.00  0.00    +0.000 OA
ENDBRANCH  19  22
ENDBRANCH  13  16
ENDBRANCH   5  13
TORSDOF 4
ENDMDL
MODEL 2
REMARK VINA RESULT:      -8.6      0.251      1.018
REMARK  Name = 
REMARK  5 active torsions:
REMARK  status: ('A' for Active; 'I' for Inactive)
REMARK    1  A    between atoms: C_1  and  C_2
REMARK    2  A    between atoms: N_5  and  S_6
REMARK    3  A    between atoms: S_6  and  C_9
REMARK    4  A    between atoms: C_12  and  N_13
REMARK    5  A    between atoms: C_18  and  C_19
REMARK                            x       y       z     vdW  Elec       q    Type
REMARK                         _______ _______ _______ _____ _____    ______ ____
ROOT
ATOM      1  C   UNL     1       0.882   3.289  20.698  0.00  0.00    +0.000 C 
ATOM      2  C   UNL     1       1.553   4.022  19.553  0.00  0.00    +0.000 C 
ATOM      3  C   UNL     1       2.747   3.251  18.919  0.00  0.00    +0.000 C 
ATOM      4  O   UNL     1       2.972   2.149  18.476  0.00  0.00    +0.000 OA
ATOM      5  N   UNL     1       3.591   4.350  19.063  0.00  0.00    +0.000 N 
ATOM      6  C   UNL     1       2.628   5.101  19.902  0.00  0.00    +0.000 C 
ENDROOT
BRANCH   6   7
ATOM      7  C   UNL     1       2.419   6.597  19.416  0.00  0.00    +0.000 A 
ATOM      8  C   UNL     1       1.772   7.563  20.219  0.00  0.00    +0.000 A 
ATOM      9  C   UNL     1       1.490   8.849  19.755  0.00  0.00    +0.000 A 
ATOM     10  C   UNL     1       1.852   9.214  18.464  0.00  0.00    +0.000 A 
ATOM     11  C   UNL     1       2.508   8.299  17.649  0.00  0.00    +0.000 A 
ATOM     12  C   UNL     1       2.789   7.013  18.122  0.00  0.00    +0.000 A 
ENDBRANCH   6   7
BRANCH   5  13
ATOM     13  S   UNL     1       5.240   4.319  19.150  0.00  0.00    +0.000 S 
ATOM     14  O   UNL     1       5.684   5.530  19.812  0.00  0.00    +0.000 OA
ATOM     15  O   UNL     1       5.652   3.022  19.640  0.00  0.00    +0.000 OA
BRANCH  13  16
ATOM     16  C   UNL     1       5.701   4.454  17.440  0.00  0.00    +0.000 A 
ATOM     17  C   UNL     1       4.748   4.213  16.443  0.00  0.00    +0.000 A 
ATOM     18  C   UNL     1       5.131   4.264  15.100  0.00  0.00    +0.000 A 
ATOM     19  C   UNL     1       6.464   4.556  14.769  0.00  0.00    +0.000 A 
ATOM     20  C   UNL     1       7.408   4.822  15.770  0.00  0.00    +0.000 A 
ATOM     21  C   UNL     1       7.019   4.786  17.110  0.00  0.00    +0.000 A 
BRANCH  19  22
ATOM     22  N   UNL     1       6.877   4.576  13.359  0.00  0.00    +0.000 N 
ATOM     23  O   UNL     1       7.691   5.442  13.010  0.00  0.00    +0.000 OA
ATOM     24  O   UNL     1       6.381   3.729  12.603  0.00  0.00    +0.000 OA
ENDBRANCH  19  22
ENDBRANCH  13  16
ENDBRANCH   5  13
TORSDOF 4
ENDMDL
MODEL 3
REMARK VINA RESULT:      -8.3      0.269      1.011
REMARK  Name = 
REMARK  5 active torsions:
REMARK  status: ('A' for Active; 'I' for Inactive)
REMARK    1  A    between atoms: C_1  and  C_2
REMARK    2  A    between atoms: N_5  and  S_6
REMARK    3  A    between atoms: S_6  and  C_9
REMARK    4  A    between atoms: C_12  and  N_13
REMARK    5  A    between atoms: C_18  and  C_19
REMARK                            x       y       z     vdW  Elec       q    Type
REMARK                         _______ _______ _______ _____ _____    ______ ____
ROOT
ATOM      1  C   UNL     1       0.664   3.335  20.359  0.00  0.00    +0.000 C 
ATOM      2  C   UNL     1       1.424   4.026  19.244  0.00  0.00    +0.000 C 
ATOM      3  C   UNL     1       2.659   3.230  18.731  0.00  0.00    +0.000 C 
ATOM      4  O   UNL     1       2.913   2.113  18.346  0.00  0.00    +0.000 OA
ATOM      5  N   UNL     1       3.495   4.332  18.900  0.00  0.00    +0.000 N 
ATOM      6  C   UNL     1       2.474   5.114  19.636  0.00  0.00    +0.000 C 
ENDROOT
BRANCH   6   7
ATOM      7  C   UNL     1       2.310   6.593  19.084  0.00  0.00    +0.000 A 
ATOM      8  C   UNL     1       2.845   6.993  17.839  0.00  0.00    +0.000 A 
ATOM      9  C   UNL     1       2.798   8.317  17.399  0.00  0.00    +0.000 A 
ATOM     10  C   UNL     1       2.206   9.290  18.194  0.00  0.00    +0.000 A 
ATOM     11  C   UNL     1       1.650   8.934  19.418  0.00  0.00    +0.000 A 
ATOM     12  C   UNL     1       1.700   7.605  19.851  0.00  0.00    +0.000 A 
ENDBRANCH   6   7
BRANCH   5  13
ATOM     13  S   UNL     1       5.133   4.301  19.115  0.00  0.00    +0.000 S 
ATOM     14  O   UNL     1       5.532   5.537  19.759  0.00  0.00    +0.000 OA
ATOM     15  O   UNL     1       5.499   3.024  19.688  0.00  0.00    +0.000 OA
BRANCH  13  16
ATOM     16  C   UNL     1       5.724   4.364  17.441  0.00  0.00    +0.000 A 
ATOM     17  C   UNL     1       7.062   4.687  17.190  0.00  0.00    +0.000 A 
ATOM     18  C   UNL     1       7.508   4.792  15.869  0.00  0.00    +0.000 A 
ATOM     19  C   UNL     1       6.608   4.572  14.814  0.00  0.00    +0.000 A 
ATOM     20  C   UNL     1       5.274   4.223  15.071  0.00  0.00    +0.000 A 
ATOM     21  C   UNL     1       4.837   4.104  16.391  0.00  0.00    +0.000 A 
BRANCH  19  22
ATOM     22  N   UNL     1       7.064   4.716  13.425  0.00  0.00    +0.000 N 
ATOM     23  O   UNL     1       7.883   5.612  13.179  0.00  0.00    +0.000 OA
ATOM     24  O   UNL     1       6.599   3.936  12.583  0.00  0.00    +0.000 OA
ENDBRANCH  19  22
ENDBRANCH  13  16
ENDBRANCH   5  13
TORSDOF 4
ENDMDL
MODEL 4
REMARK VINA RESULT:      -8.3      0.286      1.419
REMARK  Name = 
REMARK  5 active torsions:
REMARK  status: ('A' for Active; 'I' for Inactive)
REMARK    1  A    between atoms: C_1  and  C_2
REMARK    2  A    between atoms: N_5  and  S_6
REMARK    3  A    between atoms: S_6  and  C_9
REMARK    4  A    between atoms: C_12  and  N_13
REMARK    5  A    between atoms: C_18  and  C_19
REMARK                            x       y       z     vdW  Elec       q    Type
REMARK                         _______ _______ _______ _____ _____    ______ ____
ROOT
ATOM      1  C   UNL     1       0.908   2.757  20.235  0.00  0.00    +0.000 C 
ATOM      2  C   UNL     1       1.561   3.649  19.198  0.00  0.00    +0.000 C 
ATOM      3  C   UNL     1       2.848   3.048  18.564  0.00  0.00    +0.000 C 
ATOM      4  O   UNL     1       3.194   2.017  18.039  0.00  0.00    +0.000 OA
ATOM      5  N   UNL     1       3.580   4.199  18.852  0.00  0.00    +0.000 N 
ATOM      6  C   UNL     1       2.514   4.781  19.700  0.00  0.00    +0.000 C 
ENDROOT
BRANCH   6   7
ATOM      7  C   UNL     1       2.191   6.292  19.339  0.00  0.00    +0.000 A 
ATOM      8  C   UNL     1       2.447   6.829  18.058  0.00  0.00    +0.000 A 
ATOM      9  C   UNL     1       2.266   8.183  17.768  0.00  0.00    +0.000 A 
ATOM     10  C   UNL     1       1.816   9.048  18.757  0.00  0.00    +0.000 A 
ATOM     11  C   UNL     1       1.535   8.556  20.026  0.00  0.00    +0.000 A 
ATOM     12  C   UNL     1       1.716   7.198  20.308  0.00  0.00    +0.000 A 
ENDBRANCH   6   7
BRANCH   5  13
ATOM     13  S   UNL     1       5.219   4.304  19.026  0.00  0.00    +0.000 S 
ATOM     14  O   UNL     1       5.526   5.540  19.719  0.00  0.00    +0.000 OA
ATOM     15  O   UNL     1       5.712   3.040  19.528  0.00  0.00    +0.000 OA
BRANCH  13  16
ATOM     16  C   UNL     1       5.756   4.497  17.344  0.00  0.00    +0.000 A 
ATOM     17  C   UNL     1       4.847   4.297  16.298  0.00  0.00    +0.000 A 
ATOM     18  C   UNL     1       5.289   4.393  14.976  0.00  0.00    +0.000 A 
ATOM     19  C   UNL     1       6.637   4.691  14.714  0.00  0.00    +0.000 A 
ATOM     20  C   UNL     1       7.537   4.916  15.765  0.00  0.00    +0.000 A 
ATOM     21  C   UNL     1       7.089   4.834  17.084  0.00  0.00    +0.000 A 
BRANCH  19  22
ATOM     22  N   UNL     1       7.111   4.758  13.326  0.00  0.00    +0.000 N 
ATOM     23  O   UNL     1       8.052   5.525  13.076  0.00  0.00    +0.000 OA
ATOM     24  O   UNL     1       6.539   4.049  12.487  0.00  0.00    +0.000 OA
ENDBRANCH  19  22
ENDBRANCH  13  16
ENDBRANCH   5  13
TORSDOF 4
ENDMDL
MODEL 5
REMARK VINA RESULT:      -7.6      1.045      1.266
REMARK  Name = 
REMARK  5 active torsions:
REMARK  status: ('A' for Active; 'I' for Inactive)
REMARK    1  A    between atoms: C_1  and  C_2
REMARK    2  A    between atoms: N_5  and  S_6
REMARK    3  A    between atoms: S_6  and  C_9
REMARK    4  A    between atoms: C_12  and  N_13
REMARK    5  A    between atoms: C_18  and  C_19
REMARK                            x       y       z     vdW  Elec       q    Type
REMARK                         _______ _______ _______ _____ _____    ______ ____
ROOT
ATOM      1  C   UNL     1       1.603   3.588  21.010  0.00  0.00    +0.000 C 
ATOM      2  C   UNL     1       1.902   4.380  19.752  0.00  0.00    +0.000 C 
ATOM      3  C   UNL     1       3.044   3.781  18.882  0.00  0.00    +0.000 C 
ATOM      4  O   UNL     1       3.342   2.713  18.400  0.00  0.00    +0.000 OA
ATOM      5  N   UNL     1       3.718   4.999  18.849  0.00  0.00    +0.000 N 
ATOM      6  C   UNL     1       2.844   5.620  19.872  0.00  0.00    +0.000 C 
ENDROOT
BRANCH   6   7
ATOM      7  C   UNL     1       2.310   7.052  19.443  0.00  0.00    +0.000 A 
ATOM      8  C   UNL     1       1.643   7.906  20.350  0.00  0.00    +0.000 A 
ATOM      9  C   UNL     1       1.077   9.118  19.951  0.00  0.00    +0.000 A 
ATOM     10  C   UNL     1       1.165   9.520  18.624  0.00  0.00    +0.000 A 
ATOM     11  C   UNL     1       1.830   8.717  17.704  0.00  0.00    +0.000 A 
ATOM     12  C   UNL     1       2.396   7.505  18.112  0.00  0.00    +0.000 A 
ENDBRANCH   6   7
BRANCH   5  13
ATOM     13  S   UNL     1       5.335   5.223  18.592  0.00  0.00    +0.000 S 
ATOM     14  O   UNL     1       5.629   6.635  18.737  0.00  0.00    +0.000 OA
ATOM     15  O   UNL     1       6.065   4.239  19.361  0.00  0.00    +0.000 OA
BRANCH  13  16
ATOM     16  C   UNL     1       5.490   4.827  16.867  0.00  0.00    +0.000 A 
ATOM     17  C   UNL     1       5.906   3.547  16.484  0.00  0.00    +0.000 A 
ATOM     18  C   UNL     1       6.083   3.259  15.128  0.00  0.00    +0.000 A 
ATOM     19  C   UNL     1       5.839   4.256  14.169  0.00  0.00    +0.000 A 
ATOM     20  C   UNL     1       5.397   5.529  14.557  0.00  0.00    +0.000 A 
ATOM     21  C   UNL     1       5.207   5.808  15.911  0.00  0.00    +0.000 A 
BRANCH  19  22
ATOM     22  N   UNL     1       6.057   3.967  12.745  0.00  0.00    +0.000 N 
ATOM     23  O   UNL     1       5.128   3.439  12.117  0.00  0.00    +0.000 OA
ATOM     24  O   UNL     1       7.158   4.262  12.261  0.00  0.00    +0.000 OA
ENDBRANCH  19  22
ENDBRANCH  13  16
ENDBRANCH   5  13
TORSDOF 4
ENDMDL
MODEL 6
REMARK VINA RESULT:      -7.5      0.990      1.832
REMARK  Name = 
REMARK  5 active torsions:
REMARK  status: ('A' for Active; 'I' for Inactive)
REMARK    1  A    between atoms: C_1  and  C_2
REMARK    2  A    between atoms: N_5  and  S_6
REMARK    3  A    between atoms: S_6  and  C_9
REMARK    4  A    between atoms: C_12  and  N_13
REMARK    5  A    between atoms: C_18  and  C_19
REMARK                            x       y       z     vdW  Elec       q    Type
REMARK                         _______ _______ _______ _____ _____    ______ ____
ROOT
ATOM      1  C   UNL     1       2.139   3.459  21.222  0.00  0.00    +0.000 C 
ATOM      2  C   UNL     1       2.345   4.160  19.893  0.00  0.00    +0.000 C 
ATOM      3  C   UNL     1       3.510   3.576  19.043  0.00  0.00    +0.000 C 
ATOM      4  O   UNL     1       3.878   2.497  18.643  0.00  0.00    +0.000 OA
ATOM      5  N   UNL     1       4.087   4.835  18.888  0.00  0.00    +0.000 N 
ATOM      6  C   UNL     1       3.192   5.473  19.881  0.00  0.00    +0.000 C 
ENDROOT
BRANCH   6   7
ATOM      7  C   UNL     1       2.538   6.819  19.350  0.00  0.00    +0.000 A 
ATOM      8  C   UNL     1       2.689   7.250  18.013  0.00  0.00    +0.000 A 
ATOM      9  C   UNL     1       2.209   8.484  17.571  0.00  0.00    +0.000 A 
ATOM     10  C   UNL     1       1.554   9.330  18.457  0.00  0.00    +0.000 A 
ATOM     11  C   UNL     1       1.368   8.935  19.776  0.00  0.00    +0.000 A 
ATOM     12  C   UNL     1       1.850   7.696  20.212  0.00  0.00    +0.000 A 
ENDBRANCH   6   7
BRANCH   5  13
ATOM     13  S   UNL     1       5.675   5.156  18.564  0.00  0.00    +0.000 S 
ATOM     14  O   UNL     1       5.896   6.578  18.737  0.00  0.00    +0.000 OA
ATOM     15  O   UNL     1       6.494   4.196  19.271  0.00  0.00    +0.000 OA
BRANCH  13  16
ATOM     16  C   UNL     1       5.771   4.815  16.824  0.00  0.00    +0.000 A 
ATOM     17  C   UNL     1       4.609   4.489  16.115  0.00  0.00    +0.000 A 
ATOM     18  C   UNL     1       4.699   4.165  14.759  0.00  0.00    +0.000 A 
ATOM     19  C   UNL     1       5.953   4.172  14.126  0.00  0.00    +0.000 A 
ATOM     20  C   UNL     1       7.111   4.524  14.834  0.00  0.00    +0.000 A 
ATOM     21  C   UNL     1       7.015   4.862  16.185  0.00  0.00    +0.000 A 
BRANCH  19  22
ATOM     22  N   UNL     1       6.056   3.797  12.709  0.00  0.00    +0.000 N 
ATOM     23  O   UNL     1       5.042   3.345  12.158  0.00  0.00    +0.000 OA
ATOM     24  O   UNL     1       7.151   3.952  12.151  0.00  0.00    +0.000 OA
ENDBRANCH  19  22
ENDBRANCH  13  16
ENDBRANCH   5  13
TORSDOF 4
ENDMDL
MODEL 7
REMARK VINA RESULT:      -7.4      2.430      3.189
REMARK  Name = 
REMARK  5 active torsions:
REMARK  status: ('A' for Active; 'I' for Inactive)
REMARK    1  A    between atoms: C_1  and  C_2
REMARK    2  A    between atoms: N_5  and  S_6
REMARK    3  A    between atoms: S_6  and  C_9
REMARK    4  A    between atoms: C_12  and  N_13
REMARK    5  A    between atoms: C_18  and  C_19
REMARK                            x       y       z     vdW  Elec       q    Type
REMARK                         _______ _______ _______ _____ _____    ______ ____
ROOT
ATOM      1  C   UNL     1       1.901   3.084  22.059  0.00  0.00    +0.000 C 
ATOM      2  C   UNL     1       1.425   3.690  20.754  0.00  0.00    +0.000 C 
ATOM      3  C   UNL     1       1.447   2.703  19.551  0.00  0.00    +0.000 C 
ATOM      4  O   UNL     1       1.051   1.590  19.294  0.00  0.00    +0.000 OA
ATOM      5  N   UNL     1       2.180   3.597  18.774  0.00  0.00    +0.000 N 
ATOM      6  C   UNL     1       2.451   4.510  19.908  0.00  0.00    +0.000 C 
ENDROOT
BRANCH   6   7
ATOM      7  C   UNL     1       2.144   6.030  19.567  0.00  0.00    +0.000 A 
ATOM      8  C   UNL     1       2.273   6.545  18.258  0.00  0.00    +0.000 A 
ATOM      9  C   UNL     1       2.110   7.902  17.973  0.00  0.00    +0.000 A 
ATOM     10  C   UNL     1       1.807   8.793  18.995  0.00  0.00    +0.000 A 
ATOM     11  C   UNL     1       1.652   8.322  20.294  0.00  0.00    +0.000 A 
ATOM     12  C   UNL     1       1.815   6.961  20.571  0.00  0.00    +0.000 A 
ENDBRANCH   6   7
BRANCH   5  13
ATOM     13  S   UNL     1       3.150   3.219  17.491  0.00  0.00    +0.000 S 
ATOM     14  O   UNL     1       3.742   1.917  17.735  0.00  0.00    +0.000 OA
ATOM     15  O   UNL     1       2.420   3.474  16.269  0.00  0.00    +0.000 OA
BRANCH  13  16
ATOM     16  C   UNL     1       4.446   4.423  17.643  0.00  0.00    +0.000 A 
ATOM     17  C   UNL     1       4.652   5.354  16.618  0.00  0.00    +0.000 A 
ATOM     18  C   UNL     1       5.710   6.262  16.716  0.00  0.00    +0.000 A 
ATOM     19  C   UNL     1       6.550   6.230  17.842  0.00  0.00    +0.000 A 
ATOM     20  C   UNL     1       6.323   5.313  18.878  0.00  0.00    +0.000 A 
ATOM     21  C   UNL     1       5.257   4.418  18.783  0.00  0.00    +0.000 A 
BRANCH  19  22
ATOM     22  N   UNL     1       7.684   7.160  17.931  0.00  0.00    +0.000 N 
ATOM     23  O   UNL     1       7.822   7.988  17.021  0.00  0.00    +0.000 OA
ATOM     24  O   UNL     1       8.436   7.056  18.910  0.00  0.00    +0.000 OA
ENDBRANCH  19  22
ENDBRANCH  13  16
ENDBRANCH   5  13
TORSDOF 4
ENDMDL
MODEL 8
REMARK VINA RESULT:      -7.3      2.428      2.987
REMARK  Name = 
REMARK  5 active torsions:
REMARK  status: ('A' for Active; 'I' for Inactive)
REMARK    1  A    between atoms: C_1  and  C_2
REMARK    2  A    between atoms: N_5  and  S_6
REMARK    3  A    between atoms: S_6  and  C_9
REMARK    4  A    between atoms: C_12  and  N_13
REMARK    5  A    between atoms: C_18  and  C_19
REMARK                            x       y       z     vdW  Elec       q    Type
REMARK                         _______ _______ _______ _____ _____    ______ ____
ROOT
ATOM      1  C   UNL     1       1.299   3.053  21.778  0.00  0.00    +0.000 C 
ATOM      2  C   UNL     1       1.042   3.740  20.451  0.00  0.00    +0.000 C 
ATOM      3  C   UNL     1       1.024   2.774  19.231  0.00  0.00    +0.000 C 
ATOM      4  O   UNL     1       0.490   1.739  18.911  0.00  0.00    +0.000 OA
ATOM      5  N   UNL     1       1.953   3.554  18.545  0.00  0.00    +0.000 N 
ATOM      6  C   UNL     1       2.254   4.402  19.721  0.00  0.00    +0.000 C 
ENDROOT
BRANCH   6   7
ATOM      7  C   UNL     1       2.214   5.955  19.392  0.00  0.00    +0.000 A 
ATOM      8  C   UNL     1       2.034   6.931  20.398  0.00  0.00    +0.000 A 
ATOM      9  C   UNL     1       1.891   8.287  20.101  0.00  0.00    +0.000 A 
ATOM     10  C   UNL     1       1.927   8.714  18.779  0.00  0.00    +0.000 A 
ATOM     11  C   UNL     1       2.121   7.788  17.761  0.00  0.00    +0.000 A 
ATOM     12  C   UNL     1       2.266   6.431  18.067  0.00  0.00    +0.000 A 
ENDBRANCH   6   7
BRANCH   5  13
ATOM     13  S   UNL     1       2.969   3.046  17.344  0.00  0.00    +0.000 S 
ATOM     14  O   UNL     1       3.456   1.725  17.688  0.00  0.00    +0.000 OA
ATOM     15  O   UNL     1       2.330   3.283  16.068  0.00  0.00    +0.000 OA
BRANCH  13  16
ATOM     16  C   UNL     1       4.332   4.171  17.516  0.00  0.00    +0.000 A 
ATOM     17  C   UNL     1       5.120   4.136  18.672  0.00  0.00    +0.000 A 
ATOM     18  C   UNL     1       6.155   5.062  18.827  0.00  0.00    +0.000 A 
ATOM     19  C   UNL     1       6.392   6.013  17.821  0.00  0.00    +0.000 A 
ATOM     20  C   UNL     1       5.617   6.027  16.653  0.00  0.00    +0.000 A 
ATOM     21  C   UNL     1       4.594   5.091  16.495  0.00  0.00    +0.000 A 
BRANCH  19  22
ATOM     22  N   UNL     1       7.457   7.010  17.996  0.00  0.00    +0.000 N 
ATOM     23  O   UNL     1       8.258   6.838  18.926  0.00  0.00    +0.000 OA
ATOM     24  O   UNL     1       7.486   7.965  17.208  0.00  0.00    +0.000 OA
ENDBRANCH  19  22
ENDBRANCH  13  16
ENDBRANCH   5  13
TORSDOF 4
ENDMDL
MODEL 9
REMARK VINA RESULT:      -7.2      1.090      1.522
REMARK  Name = 
REMARK  5 active torsions:
REMARK  status: ('A' for Active; 'I' for Inactive)
REMARK    1  A    between atoms: C_1  and  C_2
REMARK    2  A    between atoms: N_5  and  S_6
REMARK    3  A    between atoms: S_6  and  C_9
REMARK    4  A    between atoms: C_12  and  N_13
REMARK    5  A    between atoms: C_18  and  C_19
REMARK                            x       y       z     vdW  Elec       q    Type
REMARK                         _______ _______ _______ _____ _____    ______ ____
ROOT
ATOM      1  C   UNL     1       2.305   3.552  21.328  0.00  0.00    +0.000 C 
ATOM      2  C   UNL     1       2.459   4.219  19.976  0.00  0.00    +0.000 C 
ATOM      3  C   UNL     1       3.639   3.664  19.126  0.00  0.00    +0.000 C 
ATOM      4  O   UNL     1       4.053   2.591  18.755  0.00  0.00    +0.000 OA
ATOM      5  N   UNL     1       4.153   4.943  18.923  0.00  0.00    +0.000 N 
ATOM      6  C   UNL     1       3.241   5.569  19.909  0.00  0.00    +0.000 C 
ENDROOT
BRANCH   6   7
ATOM      7  C   UNL     1       2.517   6.865  19.347  0.00  0.00    +0.000 A 
ATOM      8  C   UNL     1       2.524   7.192  17.972  0.00  0.00    +0.000 A 
ATOM      9  C   UNL     1       1.983   8.384  17.488  0.00  0.00    +0.000 A 
ATOM     10  C   UNL     1       1.409   9.292  18.369  0.00  0.00    +0.000 A 
ATOM     11  C   UNL     1       1.365   8.999  19.727  0.00  0.00    +0.000 A 
ATOM     12  C   UNL     1       1.907   7.802  20.204  0.00  0.00    +0.000 A 
ENDBRANCH   6   7
BRANCH   5  13
ATOM     13  S   UNL     1       5.719   5.328  18.565  0.00  0.00    +0.000 S 
ATOM     14  O   UNL     1       5.852   6.772  18.599  0.00  0.00    +0.000 OA
ATOM     15  O   UNL     1       6.593   4.493  19.359  0.00  0.00    +0.000 OA
BRANCH  13  16
ATOM     16  C   UNL     1       5.841   4.828  16.865  0.00  0.00    +0.000 A 
ATOM     17  C   UNL     1       6.999   5.122  16.137  0.00  0.00    +0.000 A 
ATOM     18  C   UNL     1       7.067   4.778  14.784  0.00  0.00    +0.000 A 
ATOM     19  C   UNL     1       5.974   4.139  14.176  0.00  0.00    +0.000 A 
ATOM     20  C   UNL     1       4.826   3.822  14.917  0.00  0.00    +0.000 A 
ATOM     21  C   UNL     1       4.769   4.154  16.271  0.00  0.00    +0.000 A 
BRANCH  19  22
ATOM     22  N   UNL     1       6.028   3.806  12.746  0.00  0.00    +0.000 N 
ATOM     23  O   UNL     1       7.113   3.947  12.163  0.00  0.00    +0.000 OA
ATOM     24  O   UNL     1       4.985   3.411  12.207  0.00  0.00    +0.000 OA
ENDBRANCH  19  22
ENDBRANCH  13  16
ENDBRANCH   5  13
TORSDOF 4
ENDMDL
