MODEL 1
REMARK VINA RESULT:      -7.8      0.000      0.000
REMARK  Name = 
REMARK  4 active torsions:
REMARK  status: ('A' for Active; 'I' for Inactive)
REMARK    1  A    between atoms: C_1  and  N_2
REMARK    2  A    between atoms: C_4  and  C_5
REMARK    3  A    between atoms: N_7  and  C_8
REMARK    4  A    between atoms: C_8  and  C_9
REMARK                            x       y       z     vdW  Elec       q    Type
REMARK                         _______ _______ _______ _____ _____    ______ ____
ROOT
ATOM      1  C   UNL     1       0.248   9.418  23.337  0.00  0.00    +0.000 C 
ATOM      2  N   UNL     1       0.376   9.638  21.916  0.00  0.00    +0.000 N 
ATOM      3  N   UNL     1       1.155   8.775  21.225  0.00  0.00    +0.000 NA
ATOM      4  C   UNL     1       1.078   9.191  19.946  0.00  0.00    +0.000 A 
ATOM      5  C   UNL     1       0.218  10.319  19.842  0.00  0.00    +0.000 A 
ATOM      6  C   UNL     1      -0.209  10.608  21.134  0.00  0.00    +0.000 A 
ATOM      7  C   UNL     1      -1.121  11.717  21.486  0.00  0.00    +0.000 A 
ATOM      8  C   UNL     1      -1.266  12.226  22.785  0.00  0.00    +0.000 A 
ATOM      9  C   UNL     1      -2.123  13.302  23.056  0.00  0.00    +0.000 A 
ATOM     10  C   UNL     1      -2.845  13.899  22.029  0.00  0.00    +0.000 A 
ATOM     11  C   UNL     1      -2.721  13.413  20.731  0.00  0.00    +0.000 A 
ATOM     12  C   UNL     1      -1.867  12.335  20.450  0.00  0.00    +0.000 A 
ATOM     13  S   UNL     1      -1.832  11.779  18.738  0.00  0.00    +0.000 S 
ATOM     14  C   UNL     1      -0.141  11.098  18.632  0.00  0.00    +0.000 C 
ENDROOT
BRANCH   4  15
ATOM     15  C   UNL     1       1.831   8.515  18.867  0.00  0.00    +0.000 C 
ATOM     16  O   UNL     1       2.116   9.071  17.807  0.00  0.00    +0.000 OA
ATOM     17  N   UNL     1       2.191   7.219  19.158  0.00  0.00    +0.000 N 
ATOM     18  H   UNL     1       1.815   6.839  20.021  0.00  0.00    +0.000 HD
BRANCH  17  19
ATOM     19  C   UNL     1       2.876   6.368  18.214  0.00  0.00    +0.000 C 
BRANCH  19  20
ATOM     20  C   UNL     1       2.566   4.909  18.446  0.00  0.00    +0.000 A 
ATOM     21  C   UNL     1       2.748   3.957  17.431  0.00  0.00    +0.000 A 
ATOM     22  C   UNL     1       2.474   2.605  17.664  0.00  0.00    +0.000 A 
ATOM     23  C   UNL     1       2.016   2.190  18.915  0.00  0.00    +0.000 A 
ATOM     24  C   UNL     1       1.844   3.126  19.931  0.00  0.00    +0.000 A 
ATOM     25 CL   UNL     1       1.290   2.615  21.478  0.00  0.00    +0.000 Cl
ATOM     26  C   UNL     1       2.119   4.476  19.704  0.00  0.00    +0.000 A 
ENDBRANCH  19  20
ENDBRANCH  17  19
ENDBRANCH   4  15
TORSDOF 3
ENDMDL
MODEL 2
REMARK VINA RESULT:      -7.8      1.628      2.103
REMARK  Name = 
REMARK  4 active torsions:
REMARK  status: ('A' for Active; 'I' for Inactive)
REMARK    1  A    between atoms: C_1  and  N_2
REMARK    2  A    between atoms: C_4  and  C_5
REMARK    3  A    between atoms: N_7  and  C_8
REMARK    4  A    between atoms: C_8  and  C_9
REMARK                            x       y       z     vdW  Elec       q    Type
REMARK                         _______ _______ _______ _____ _____    ______ ____
ROOT
ATOM      1  C   UNL     1      -0.622  11.834  22.063  0.00  0.00    +0.000 C 
ATOM      2  N   UNL     1      -0.513  11.206  20.767  0.00  0.00    +0.000 N 
ATOM      3  N   UNL     1       0.616  10.505  20.514  0.00  0.00    +0.000 NA
ATOM      4  C   UNL     1       0.446  10.016  19.272  0.00  0.00    +0.000 A 
ATOM      5  C   UNL     1      -0.822  10.404  18.755  0.00  0.00    +0.000 A 
ATOM      6  C   UNL     1      -1.419  11.194  19.732  0.00  0.00    +0.000 A 
ATOM      7  C   UNL     1      -2.754  11.815  19.606  0.00  0.00    +0.000 A 
ATOM      8  C   UNL     1      -3.199  12.878  20.406  0.00  0.00    +0.000 A 
ATOM      9  C   UNL     1      -4.466  13.450  20.219  0.00  0.00    +0.000 A 
ATOM     10  C   UNL     1      -5.310  12.978  19.221  0.00  0.00    +0.000 A 
ATOM     11  C   UNL     1      -4.893  11.924  18.413  0.00  0.00    +0.000 A 
ATOM     12  C   UNL     1      -3.628  11.343  18.593  0.00  0.00    +0.000 A 
ATOM     13  S   UNL     1      -3.231   9.960  17.510  0.00  0.00    +0.000 S 
ATOM     14  C   UNL     1      -1.412  10.096  17.429  0.00  0.00    +0.000 C 
ENDROOT
BRANCH   4  15
ATOM     15  C   UNL     1       1.492   9.208  18.608  0.00  0.00    +0.000 C 
ATOM     16  O   UNL     1       1.961   9.502  17.509  0.00  0.00    +0.000 OA
ATOM     17  N   UNL     1       1.901   8.111  19.331  0.00  0.00    +0.000 N 
ATOM     18  H   UNL     1       1.372   7.918  20.177  0.00  0.00    +0.000 HD
BRANCH  17  19
ATOM     19  C   UNL     1       2.867   7.162  18.832  0.00  0.00    +0.000 C 
BRANCH  19  20
ATOM     20  C   UNL     1       2.365   5.742  18.938  0.00  0.00    +0.000 A 
ATOM     21  C   UNL     1       1.902   5.049  17.809  0.00  0.00    +0.000 A 
ATOM     22  C   UNL     1       1.455   3.728  17.918  0.00  0.00    +0.000 A 
ATOM     23  C   UNL     1       1.470   3.084  19.155  0.00  0.00    +0.000 A 
ATOM     24  C   UNL     1       1.940   3.760  20.278  0.00  0.00    +0.000 A 
ATOM     25 CL   UNL     1       1.969   2.965  21.804  0.00  0.00    +0.000 Cl
ATOM     26  C   UNL     1       2.389   5.078  20.175  0.00  0.00    +0.000 A 
ENDBRANCH  19  20
ENDBRANCH  17  19
ENDBRANCH   4  15
TORSDOF 3
ENDMDL
MODEL 3
REMARK VINA RESULT:      -7.8      1.811      2.460
REMARK  Name = 
REMARK  4 active torsions:
REMARK  status: ('A' for Active; 'I' for Inactive)
REMARK    1  A    between atoms: C_1  and  N_2
REMARK    2  A    between atoms: C_4  and  C_5
REMARK    3  A    between atoms: N_7  and  C_8
REMARK    4  A    between atoms: C_8  and  C_9
REMARK                            x       y       z     vdW  Elec       q    Type
REMARK                         _______ _______ _______ _____ _____    ______ ____
ROOT
ATOM      1  C   UNL     1      -0.505  11.993  22.010  0.00  0.00    +0.000 C 
ATOM      2  N   UNL     1      -0.443  11.332  20.728  0.00  0.00    +0.000 N 
ATOM      3  N   UNL     1       0.680  10.633  20.447  0.00  0.00    +0.000 NA
ATOM      4  C   UNL     1       0.463  10.110  19.225  0.00  0.00    +0.000 A 
ATOM      5  C   UNL     1      -0.827  10.476  18.751  0.00  0.00    +0.000 A 
ATOM      6  C   UNL     1      -1.390  11.287  19.731  0.00  0.00    +0.000 A 
ATOM      7  C   UNL     1      -2.734  11.897  19.643  0.00  0.00    +0.000 A 
ATOM      8  C   UNL     1      -3.155  12.977  20.433  0.00  0.00    +0.000 A 
ATOM      9  C   UNL     1      -4.432  13.537  20.284  0.00  0.00    +0.000 A 
ATOM     10  C   UNL     1      -5.311  13.033  19.333  0.00  0.00    +0.000 A 
ATOM     11  C   UNL     1      -4.920  11.961  18.536  0.00  0.00    +0.000 A 
ATOM     12  C   UNL     1      -3.644  11.393  18.679  0.00  0.00    +0.000 A 
ATOM     13  S   UNL     1      -3.282   9.986  17.616  0.00  0.00    +0.000 S 
ATOM     14  C   UNL     1      -1.468  10.132  17.458  0.00  0.00    +0.000 C 
ENDROOT
BRANCH   4  15
ATOM     15  C   UNL     1       1.488   9.293  18.540  0.00  0.00    +0.000 C 
ATOM     16  O   UNL     1       2.012   9.634  17.481  0.00  0.00    +0.000 OA
ATOM     17  N   UNL     1       1.810   8.127  19.198  0.00  0.00    +0.000 N 
ATOM     18  H   UNL     1       1.241   7.906  20.010  0.00  0.00    +0.000 HD
BRANCH  17  19
ATOM     19  C   UNL     1       2.741   7.162  18.664  0.00  0.00    +0.000 C 
BRANCH  19  20
ATOM     20  C   UNL     1       2.414   5.758  19.115  0.00  0.00    +0.000 A 
ATOM     21  C   UNL     1       1.868   5.511  20.384  0.00  0.00    +0.000 A 
ATOM     22  C   UNL     1       1.553   4.208  20.783  0.00  0.00    +0.000 A 
ATOM     23  C   UNL     1       1.779   3.138  19.917  0.00  0.00    +0.000 A 
ATOM     24  C   UNL     1       2.309   3.375  18.652  0.00  0.00    +0.000 A 
ATOM     25 CL   UNL     1       2.578   2.058  17.577  0.00  0.00    +0.000 Cl
ATOM     26  C   UNL     1       2.622   4.674  18.247  0.00  0.00    +0.000 A 
ENDBRANCH  19  20
ENDBRANCH  17  19
ENDBRANCH   4  15
TORSDOF 3
ENDMDL
MODEL 4
REMARK VINA RESULT:      -7.6      1.822      2.512
REMARK  Name = 
REMARK  4 active torsions:
REMARK  status: ('A' for Active; 'I' for Inactive)
REMARK    1  A    between atoms: C_1  and  N_2
REMARK    2  A    between atoms: C_4  and  C_5
REMARK    3  A    between atoms: N_7  and  C_8
REMARK    4  A    between atoms: C_8  and  C_9
REMARK                            x       y       z     vdW  Elec       q    Type
REMARK                         _______ _______ _______ _____ _____    ______ ____
ROOT
ATOM      1  C   UNL     1      -2.905  10.844  17.206  0.00  0.00    +0.000 C 
ATOM      2  N   UNL     1      -1.707  10.704  17.999  0.00  0.00    +0.000 N 
ATOM      3  N   UNL     1      -0.750   9.871  17.531  0.00  0.00    +0.000 NA
ATOM      4  C   UNL     1       0.246   9.948  18.433  0.00  0.00    +0.000 A 
ATOM      5  C   UNL     1      -0.093  10.863  19.469  0.00  0.00    +0.000 A 
ATOM      6  C   UNL     1      -1.373  11.326  19.181  0.00  0.00    +0.000 A 
ATOM      7  C   UNL     1      -2.119  12.298  20.008  0.00  0.00    +0.000 A 
ATOM      8  C   UNL     1      -3.506  12.490  19.928  0.00  0.00    +0.000 A 
ATOM      9  C   UNL     1      -4.165  13.405  20.762  0.00  0.00    +0.000 A 
ATOM     10  C   UNL     1      -3.450  14.140  21.700  0.00  0.00    +0.000 A 
ATOM     11  C   UNL     1      -2.072  13.970  21.800  0.00  0.00    +0.000 A 
ATOM     12  C   UNL     1      -1.403  13.058  20.969  0.00  0.00    +0.000 A 
ATOM     13  S   UNL     1       0.384  12.967  21.172  0.00  0.00    +0.000 S 
ATOM     14  C   UNL     1       0.701  11.242  20.663  0.00  0.00    +0.000 C 
ENDROOT
BRANCH   4  15
ATOM     15  C   UNL     1       1.480   9.145  18.295  0.00  0.00    +0.000 C 
ATOM     16  O   UNL     1       2.308   9.347  17.407  0.00  0.00    +0.000 OA
ATOM     17  N   UNL     1       1.624   8.165  19.250  0.00  0.00    +0.000 N 
ATOM     18  H   UNL     1       0.830   8.031  19.869  0.00  0.00    +0.000 HD
BRANCH  17  19
ATOM     19  C   UNL     1       2.728   7.235  19.253  0.00  0.00    +0.000 C 
BRANCH  19  20
ATOM     20  C   UNL     1       2.256   5.805  19.141  0.00  0.00    +0.000 A 
ATOM     21  C   UNL     1       2.113   5.183  17.891  0.00  0.00    +0.000 A 
ATOM     22  C   UNL     1       1.691   3.852  17.801  0.00  0.00    +0.000 A 
ATOM     23  C   UNL     1       1.411   3.128  18.959  0.00  0.00    +0.000 A 
ATOM     24  C   UNL     1       1.563   3.733  20.204  0.00  0.00    +0.000 A 
ATOM     25 CL   UNL     1       1.229   2.838  21.635  0.00  0.00    +0.000 Cl
ATOM     26  C   UNL     1       1.986   5.060  20.300  0.00  0.00    +0.000 A 
ENDBRANCH  19  20
ENDBRANCH  17  19
ENDBRANCH   4  15
TORSDOF 3
ENDMDL
MODEL 5
REMARK VINA RESULT:      -7.6      1.741      2.413
REMARK  Name = 
REMARK  4 active torsions:
REMARK  status: ('A' for Active; 'I' for Inactive)
REMARK    1  A    between atoms: C_1  and  N_2
REMARK    2  A    between atoms: C_4  and  C_5
REMARK    3  A    between atoms: N_7  and  C_8
REMARK    4  A    between atoms: C_8  and  C_9
REMARK                            x       y       z     vdW  Elec       q    Type
REMARK                         _______ _______ _______ _____ _____    ______ ____
ROOT
ATOM      1  C   UNL     1      -0.259  12.773  18.277  0.00  0.00    +0.000 C 
ATOM      2  N   UNL     1       0.133  11.500  18.834  0.00  0.00    +0.000 N 
ATOM      3  N   UNL     1       0.988  10.745  18.108  0.00  0.00    +0.000 NA
ATOM      4  C   UNL     1       1.200   9.647  18.858  0.00  0.00    +0.000 A 
ATOM      5  C   UNL     1       0.478   9.735  20.080  0.00  0.00    +0.000 A 
ATOM      6  C   UNL     1      -0.226  10.933  20.036  0.00  0.00    +0.000 A 
ATOM      7  C   UNL     1      -1.117  11.423  21.110  0.00  0.00    +0.000 A 
ATOM      8  C   UNL     1      -2.084  12.422  20.927  0.00  0.00    +0.000 A 
ATOM      9  C   UNL     1      -2.924  12.824  21.976  0.00  0.00    +0.000 A 
ATOM     10  C   UNL     1      -2.820  12.227  23.226  0.00  0.00    +0.000 A 
ATOM     11  C   UNL     1      -1.868  11.233  23.435  0.00  0.00    +0.000 A 
ATOM     12  C   UNL     1      -1.021  10.825  22.392  0.00  0.00    +0.000 A 
ATOM     13  S   UNL     1       0.193   9.562  22.809  0.00  0.00    +0.000 S 
ATOM     14  C   UNL     1       0.414   8.750  21.188  0.00  0.00    +0.000 C 
ENDROOT
BRANCH   4  15
ATOM     15  C   UNL     1       2.068   8.545  18.389  0.00  0.00    +0.000 C 
ATOM     16  O   UNL     1       2.418   8.428  17.215  0.00  0.00    +0.000 OA
ATOM     17  N   UNL     1       2.456   7.673  19.380  0.00  0.00    +0.000 N 
ATOM     18  H   UNL     1       2.024   7.816  20.288  0.00  0.00    +0.000 HD
BRANCH  17  19
ATOM     19  C   UNL     1       3.251   6.498  19.119  0.00  0.00    +0.000 C 
BRANCH  19  20
ATOM     20  C   UNL     1       2.422   5.237  19.165  0.00  0.00    +0.000 A 
ATOM     21  C   UNL     1       1.864   4.691  17.999  0.00  0.00    +0.000 A 
ATOM     22  C   UNL     1       1.111   3.513  18.053  0.00  0.00    +0.000 A 
ATOM     23  C   UNL     1       0.912   2.866  19.272  0.00  0.00    +0.000 A 
ATOM     24  C   UNL     1       1.473   3.393  20.432  0.00  0.00    +0.000 A 
ATOM     25 CL   UNL     1       1.238   2.590  21.936  0.00  0.00    +0.000 Cl
ATOM     26  C   UNL     1       2.227   4.567  20.383  0.00  0.00    +0.000 A 
ENDBRANCH  19  20
ENDBRANCH  17  19
ENDBRANCH   4  15
TORSDOF 3
ENDMDL
MODEL 6
REMARK VINA RESULT:      -7.5      0.973      1.068
REMARK  Name = 
REMARK  4 active torsions:
REMARK  status: ('A' for Active; 'I' for Inactive)
REMARK    1  A    between atoms: C_1  and  N_2
REMARK    2  A    between atoms: C_4  and  C_5
REMARK    3  A    between atoms: N_7  and  C_8
REMARK    4  A    between atoms: C_8  and  C_9
REMARK                            x       y       z     vdW  Elec       q    Type
REMARK                         _______ _______ _______ _____ _____    ______ ____
ROOT
ATOM      1  C   UNL     1       0.117   9.317  23.108  0.00  0.00    +0.000 C 
ATOM      2  N   UNL     1       0.228   9.683  21.715  0.00  0.00    +0.000 N 
ATOM      3  N   UNL     1       1.094   8.972  20.958  0.00  0.00    +0.000 NA
ATOM      4  C   UNL     1       0.980   9.496  19.723  0.00  0.00    +0.000 A 
ATOM      5  C   UNL     1       0.009  10.536  19.713  0.00  0.00    +0.000 A 
ATOM      6  C   UNL     1      -0.451  10.656  21.020  0.00  0.00    +0.000 A 
ATOM      7  C   UNL     1      -1.473  11.629  21.462  0.00  0.00    +0.000 A 
ATOM      8  C   UNL     1      -1.674  11.995  22.801  0.00  0.00    +0.000 A 
ATOM      9  C   UNL     1      -2.639  12.949  23.159  0.00  0.00    +0.000 A 
ATOM     10  C   UNL     1      -3.414  13.563  22.183  0.00  0.00    +0.000 A 
ATOM     11  C   UNL     1      -3.236  13.217  20.847  0.00  0.00    +0.000 A 
ATOM     12  C   UNL     1      -2.274  12.262  20.478  0.00  0.00    +0.000 A 
ATOM     13  S   UNL     1      -2.176  11.877  18.722  0.00  0.00    +0.000 S 
ATOM     14  C   UNL     1      -0.424  11.385  18.576  0.00  0.00    +0.000 C 
ENDROOT
BRANCH   4  15
ATOM     15  C   UNL     1       1.802   9.006  18.595  0.00  0.00    +0.000 C 
ATOM     16  O   UNL     1       2.058   9.696  17.610  0.00  0.00    +0.000 OA
ATOM     17  N   UNL     1       2.262   7.718  18.752  0.00  0.00    +0.000 N 
ATOM     18  H   UNL     1       1.904   7.216  19.559  0.00  0.00    +0.000 HD
BRANCH  17  19
ATOM     19  C   UNL     1       3.028   7.034  17.738  0.00  0.00    +0.000 C 
BRANCH  19  20
ATOM     20  C   UNL     1       3.151   5.557  18.029  0.00  0.00    +0.000 A 
ATOM     21  C   UNL     1       4.405   4.929  18.078  0.00  0.00    +0.000 A 
ATOM     22  C   UNL     1       4.506   3.563  18.365  0.00  0.00    +0.000 A 
ATOM     23  C   UNL     1       3.357   2.812  18.608  0.00  0.00    +0.000 A 
ATOM     24  C   UNL     1       2.110   3.431  18.574  0.00  0.00    +0.000 A 
ATOM     25 CL   UNL     1       0.690   2.509  18.884  0.00  0.00    +0.000 Cl
ATOM     26  C   UNL     1       2.003   4.794  18.290  0.00  0.00    +0.000 A 
ENDBRANCH  19  20
ENDBRANCH  17  19
ENDBRANCH   4  15
TORSDOF 3
ENDMDL
MODEL 7
REMARK VINA RESULT:      -7.4      1.153      1.162
REMARK  Name = 
REMARK  4 active torsions:
REMARK  status: ('A' for Active; 'I' for Inactive)
REMARK    1  A    between atoms: C_1  and  N_2
REMARK    2  A    between atoms: C_4  and  C_5
REMARK    3  A    between atoms: N_7  and  C_8
REMARK    4  A    between atoms: C_8  and  C_9
REMARK                            x       y       z     vdW  Elec       q    Type
REMARK                         _______ _______ _______ _____ _____    ______ ____
ROOT
ATOM      1  C   UNL     1      -0.683   9.935  23.173  0.00  0.00    +0.000 C 
ATOM      2  N   UNL     1      -0.115  10.159  21.865  0.00  0.00    +0.000 N 
ATOM      3  N   UNL     1       0.421   9.089  21.233  0.00  0.00    +0.000 NA
ATOM      4  C   UNL     1       0.845   9.567  20.048  0.00  0.00    +0.000 A 
ATOM      5  C   UNL     1       0.547  10.953  19.937  0.00  0.00    +0.000 A 
ATOM      6  C   UNL     1      -0.055  11.323  21.134  0.00  0.00    +0.000 A 
ATOM      7  C   UNL     1      -0.525  12.689  21.450  0.00  0.00    +0.000 A 
ATOM      8  C   UNL     1      -0.794  13.142  22.749  0.00  0.00    +0.000 A 
ATOM      9  C   UNL     1      -1.207  14.460  22.992  0.00  0.00    +0.000 A 
ATOM     10  C   UNL     1      -1.348  15.356  21.939  0.00  0.00    +0.000 A 
ATOM     11  C   UNL     1      -1.089  14.933  20.639  0.00  0.00    +0.000 A 
ATOM     12  C   UNL     1      -0.677  13.614  20.386  0.00  0.00    +0.000 A 
ATOM     13  S   UNL     1      -0.416  13.186  18.656  0.00  0.00    +0.000 S 
ATOM     14  C   UNL     1       0.844  11.875  18.813  0.00  0.00    +0.000 C 
ENDROOT
BRANCH   4  15
ATOM     15  C   UNL     1       1.530   8.700  19.065  0.00  0.00    +0.000 C 
ATOM     16  O   UNL     1       1.454   8.883  17.851  0.00  0.00    +0.000 OA
ATOM     17  N   UNL     1       2.266   7.683  19.628  0.00  0.00    +0.000 N 
ATOM     18  H   UNL     1       2.173   7.574  20.633  0.00  0.00    +0.000 HD
BRANCH  17  19
ATOM     19  C   UNL     1       2.958   6.691  18.840  0.00  0.00    +0.000 C 
BRANCH  19  20
ATOM     20  C   UNL     1       2.312   5.331  18.955  0.00  0.00    +0.000 A 
ATOM     21  C   UNL     1       1.859   4.644  17.819  0.00  0.00    +0.000 A 
ATOM     22  C   UNL     1       1.278   3.377  17.937  0.00  0.00    +0.000 A 
ATOM     23  C   UNL     1       1.145   2.783  19.192  0.00  0.00    +0.000 A 
ATOM     24  C   UNL     1       1.603   3.453  20.323  0.00  0.00    +0.000 A 
ATOM     25 CL   UNL     1       1.451   2.717  21.872  0.00  0.00    +0.000 Cl
ATOM     26  C   UNL     1       2.187   4.716  20.210  0.00  0.00    +0.000 A 
ENDBRANCH  19  20
ENDBRANCH  17  19
ENDBRANCH   4  15
TORSDOF 3
ENDMDL
MODEL 8
REMARK VINA RESULT:      -7.4      3.455      8.185
REMARK  Name = 
REMARK  4 active torsions:
REMARK  status: ('A' for Active; 'I' for Inactive)
REMARK    1  A    between atoms: C_1  and  N_2
REMARK    2  A    between atoms: C_4  and  C_5
REMARK    3  A    between atoms: N_7  and  C_8
REMARK    4  A    between atoms: C_8  and  C_9
REMARK                            x       y       z     vdW  Elec       q    Type
REMARK                         _______ _______ _______ _____ _____    ______ ____
ROOT
ATOM      1  C   UNL     1       1.893   4.659  21.160  0.00  0.00    +0.000 C 
ATOM      2  N   UNL     1       1.957   5.883  20.396  0.00  0.00    +0.000 N 
ATOM      3  N   UNL     1       1.352   6.972  20.923  0.00  0.00    +0.000 NA
ATOM      4  C   UNL     1       1.584   7.957  20.035  0.00  0.00    +0.000 A 
ATOM      5  C   UNL     1       2.363   7.473  18.949  0.00  0.00    +0.000 A 
ATOM      6  C   UNL     1       2.576   6.120  19.190  0.00  0.00    +0.000 A 
ATOM      7  C   UNL     1       3.342   5.220  18.302  0.00  0.00    +0.000 A 
ATOM      8  C   UNL     1       3.258   3.821  18.347  0.00  0.00    +0.000 A 
ATOM      9  C   UNL     1       3.985   3.017  17.457  0.00  0.00    +0.000 A 
ATOM     10  C   UNL     1       4.802   3.598  16.495  0.00  0.00    +0.000 A 
ATOM     11  C   UNL     1       4.905   4.984  16.428  0.00  0.00    +0.000 A 
ATOM     12  C   UNL     1       4.183   5.797  17.316  0.00  0.00    +0.000 A 
ATOM     13  S   UNL     1       4.439   7.572  17.149  0.00  0.00    +0.000 S 
ATOM     14  C   UNL     1       2.837   8.209  17.750  0.00  0.00    +0.000 C 
ENDROOT
BRANCH   4  15
ATOM     15  C   UNL     1       1.048   9.322  20.236  0.00  0.00    +0.000 C 
ATOM     16  O   UNL     1       1.233   9.962  21.269  0.00  0.00    +0.000 OA
ATOM     17  N   UNL     1       0.339   9.811  19.163  0.00  0.00    +0.000 N 
ATOM     18  H   UNL     1       0.170   9.154  18.407  0.00  0.00    +0.000 HD
BRANCH  17  19
ATOM     19  C   UNL     1      -0.317  11.097  19.183  0.00  0.00    +0.000 C 
BRANCH  19  20
ATOM     20  C   UNL     1      -1.628  11.070  18.435  0.00  0.00    +0.000 A 
ATOM     21  C   UNL     1      -2.784  11.655  18.974  0.00  0.00    +0.000 A 
ATOM     22  C   UNL     1      -3.989  11.638  18.264  0.00  0.00    +0.000 A 
ATOM     23  C   UNL     1      -4.052  11.038  17.007  0.00  0.00    +0.000 A 
ATOM     24  C   UNL     1      -2.907  10.466  16.459  0.00  0.00    +0.000 A 
ATOM     25 CL   UNL     1      -2.978   9.734  14.903  0.00  0.00    +0.000 Cl
ATOM     26  C   UNL     1      -1.701  10.482  17.162  0.00  0.00    +0.000 A 
ENDBRANCH  19  20
ENDBRANCH  17  19
ENDBRANCH   4  15
TORSDOF 3
ENDMDL
MODEL 9
REMARK VINA RESULT:      -7.4      3.654      8.236
REMARK  Name = 
REMARK  4 active torsions:
REMARK  status: ('A' for Active; 'I' for Inactive)
REMARK    1  A    between atoms: C_1  and  N_2
REMARK    2  A    between atoms: C_4  and  C_5
REMARK    3  A    between atoms: N_7  and  C_8
REMARK    4  A    between atoms: C_8  and  C_9
REMARK                            x       y       z     vdW  Elec       q    Type
REMARK                         _______ _______ _______ _____ _____    ______ ____
ROOT
ATOM      1  C   UNL     1       1.955   4.416  21.185  0.00  0.00    +0.000 C 
ATOM      2  N   UNL     1       2.008   5.651  20.439  0.00  0.00    +0.000 N 
ATOM      3  N   UNL     1       1.400   6.729  20.985  0.00  0.00    +0.000 NA
ATOM      4  C   UNL     1       1.621   7.727  20.110  0.00  0.00    +0.000 A 
ATOM      5  C   UNL     1       2.398   7.263  19.012  0.00  0.00    +0.000 A 
ATOM      6  C   UNL     1       2.619   5.908  19.233  0.00  0.00    +0.000 A 
ATOM      7  C   UNL     1       3.385   5.025  18.328  0.00  0.00    +0.000 A 
ATOM      8  C   UNL     1       3.310   3.625  18.354  0.00  0.00    +0.000 A 
ATOM      9  C   UNL     1       4.036   2.838  17.448  0.00  0.00    +0.000 A 
ATOM     10  C   UNL     1       4.845   3.438  16.490  0.00  0.00    +0.000 A 
ATOM     11  C   UNL     1       4.939   4.825  16.442  0.00  0.00    +0.000 A 
ATOM     12  C   UNL     1       4.217   5.621  17.346  0.00  0.00    +0.000 A 
ATOM     13  S   UNL     1       4.462   7.400  17.203  0.00  0.00    +0.000 S 
ATOM     14  C   UNL     1       2.860   8.019  17.822  0.00  0.00    +0.000 C 
ENDROOT
BRANCH   4  15
ATOM     15  C   UNL     1       1.079   9.086  20.333  0.00  0.00    +0.000 C 
ATOM     16  O   UNL     1       1.246   9.703  21.384  0.00  0.00    +0.000 OA
ATOM     17  N   UNL     1       0.386   9.599  19.260  0.00  0.00    +0.000 N 
ATOM     18  H   UNL     1       0.232   8.959  18.487  0.00  0.00    +0.000 HD
BRANCH  17  19
ATOM     19  C   UNL     1      -0.273  10.882  19.299  0.00  0.00    +0.000 C 
BRANCH  19  20
ATOM     20  C   UNL     1      -1.578  10.866  18.541  0.00  0.00    +0.000 A 
ATOM     21  C   UNL     1      -1.738  10.085  17.386  0.00  0.00    +0.000 A 
ATOM     22  C   UNL     1      -2.959  10.066  16.702  0.00  0.00    +0.000 A 
ATOM     23  C   UNL     1      -4.033  10.823  17.168  0.00  0.00    +0.000 A 
ATOM     24  C   UNL     1      -3.887  11.591  18.320  0.00  0.00    +0.000 A 
ATOM     25 CL   UNL     1      -5.215  12.518  18.903  0.00  0.00    +0.000 Cl
ATOM     26  C   UNL     1      -2.672  11.612  19.008  0.00  0.00    +0.000 A 
ENDBRANCH  19  20
ENDBRANCH  17  19
ENDBRANCH   4  15
TORSDOF 3
ENDMDL
