MODEL 1
REMARK VINA RESULT:      -7.3      0.000      0.000
REMARK  Name = 
REMARK  7 active torsions:
REMARK  status: ('A' for Active; 'I' for Inactive)
REMARK    1  A    between atoms: C_1  and  O_2
REMARK    2  A    between atoms: O_2  and  C_3
REMARK    3  A    between atoms: C_6  and  C_7
REMARK    4  A    between atoms: C_7  and  N_8
REMARK    5  A    between atoms: N_14  and  C_15
REMARK    6  A    between atoms: C_25  and  O_26
REMARK    7  A    between atoms: O_26  and  C_27
REMARK                            x       y       z     vdW  Elec       q    Type
REMARK                         _______ _______ _______ _____ _____    ______ ____
ROOT
ATOM      1  N   UNL     1       2.025   8.449  18.863  0.00  0.00    +0.000 N 
ATOM      2  C   UNL     1       1.704   9.747  18.571  0.00  0.00    +0.000 C 
ATOM      3  O   UNL     1       1.940  10.247  17.466  0.00  0.00    +0.000 OA
ATOM      4  N   UNL     1       1.093  10.447  19.586  0.00  0.00    +0.000 N 
ATOM      5  C   UNL     1       0.594  11.805  19.334  0.00  0.00    +0.000 C 
ATOM      6  C   UNL     1      -0.867  11.944  19.800  0.00  0.00    +0.000 C 
ATOM      7  N   UNL     1      -1.016  11.495  21.199  0.00  0.00    +0.000 N 
ATOM      8  C   UNL     1      -0.477  10.156  21.499  0.00  0.00    +0.000 C 
ATOM      9  C   UNL     1       0.975  10.031  20.989  0.00  0.00    +0.000 C 
ATOM     10  H   UNL     1       1.358   7.983  19.453  0.00  0.00    +0.000 HD
ENDROOT
BRANCH   7  11
ATOM     11  C   UNL     1      -1.508  12.316  22.194  0.00  0.00    +0.000 A 
ATOM     12  C   UNL     1      -0.871  13.522  22.533  0.00  0.00    +0.000 A 
ATOM     13  C   UNL     1      -1.361  14.359  23.543  0.00  0.00    +0.000 A 
ATOM     14  C   UNL     1      -2.509  14.012  24.240  0.00  0.00    +0.000 A 
ATOM     15  C   UNL     1      -3.156  12.822  23.925  0.00  0.00    +0.000 A 
ATOM     16 CL   UNL     1      -4.582  12.370  24.776  0.00  0.00    +0.000 Cl
ATOM     17  C   UNL     1      -2.662  11.987  22.918  0.00  0.00    +0.000 A 
ENDBRANCH   7  11
BRANCH   1  18
ATOM     18  C   UNL     1       2.625   7.598  17.853  0.00  0.00    +0.000 C 
BRANCH  18  22
ATOM     19  C   UNL     1       3.572   3.649  19.383  0.00  0.00    +0.000 A 
ATOM     20  C   UNL     1       2.245   4.114  19.334  0.00  0.00    +0.000 A 
ATOM     21  C   UNL     1       1.935   5.374  18.819  0.00  0.00    +0.000 A 
ATOM     22  C   UNL     1       2.951   6.230  18.396  0.00  0.00    +0.000 A 
ATOM     23  C   UNL     1       4.277   5.806  18.547  0.00  0.00    +0.000 A 
ATOM     24  C   UNL     1       4.608   4.529  19.042  0.00  0.00    +0.000 A 
BRANCH  19  26
ATOM     25  C   UNL     1       3.668   1.389  18.719  0.00  0.00    +0.000 C 
ATOM     26  O   UNL     1       3.845   2.360  19.758  0.00  0.00    +0.000 OA
ENDBRANCH  19  26
BRANCH  24  27
ATOM     27  O   UNL     1       5.963   4.354  19.089  0.00  0.00    +0.000 OA
ATOM     28  C   UNL     1       6.829   5.472  19.165  0.00  0.00    +0.000 C 
ENDBRANCH  24  27
ENDBRANCH  18  22
ENDBRANCH   1  18
TORSDOF 5
ENDMDL
MODEL 2
REMARK VINA RESULT:      -7.1      3.578      4.798
REMARK  Name = 
REMARK  7 active torsions:
REMARK  status: ('A' for Active; 'I' for Inactive)
REMARK    1  A    between atoms: C_1  and  O_2
REMARK    2  A    between atoms: O_2  and  C_3
REMARK    3  A    between atoms: C_6  and  C_7
REMARK    4  A    between atoms: C_7  and  N_8
REMARK    5  A    between atoms: N_14  and  C_15
REMARK    6  A    between atoms: C_25  and  O_26
REMARK    7  A    between atoms: O_26  and  C_27
REMARK                            x       y       z     vdW  Elec       q    Type
REMARK                         _______ _______ _______ _____ _____    ______ ____
ROOT
ATOM      1  N   UNL     1       1.127   9.349  20.510  0.00  0.00    +0.000 N 
ATOM      2  C   UNL     1       0.750  10.463  21.210  0.00  0.00    +0.000 C 
ATOM      3  O   UNL     1       0.423  10.408  22.400  0.00  0.00    +0.000 OA
ATOM      4  N   UNL     1       0.774  11.642  20.502  0.00  0.00    +0.000 N 
ATOM      5  C   UNL     1       0.511  12.911  21.194  0.00  0.00    +0.000 C 
ATOM      6  C   UNL     1       1.612  13.940  20.881  0.00  0.00    +0.000 C 
ATOM      7  N   UNL     1       1.804  14.076  19.422  0.00  0.00    +0.000 N 
ATOM      8  C   UNL     1       2.017  12.815  18.689  0.00  0.00    +0.000 C 
ATOM      9  C   UNL     1       0.922  11.788  19.049  0.00  0.00    +0.000 C 
ATOM     10  H   UNL     1       1.862   9.511  19.843  0.00  0.00    +0.000 HD
ENDROOT
BRANCH   7  11
ATOM     11  C   UNL     1       1.666  15.282  18.764  0.00  0.00    +0.000 A 
ATOM     12  C   UNL     1       2.735  15.860  18.058  0.00  0.00    +0.000 A 
ATOM     13  C   UNL     1       2.605  17.084  17.392  0.00  0.00    +0.000 A 
ATOM     14  C   UNL     1       1.395  17.763  17.410  0.00  0.00    +0.000 A 
ATOM     15  C   UNL     1       0.324  17.213  18.104  0.00  0.00    +0.000 A 
ATOM     16 CL   UNL     1      -1.188  18.036  18.141  0.00  0.00    +0.000 Cl
ATOM     17  C   UNL     1       0.458  15.992  18.772  0.00  0.00    +0.000 A 
ENDBRANCH   7  11
BRANCH   1  18
ATOM     18  C   UNL     1       1.192   8.057  21.166  0.00  0.00    +0.000 C 
BRANCH  18  22
ATOM     19  C   UNL     1       3.131   5.073  18.685  0.00  0.00    +0.000 A 
ATOM     20  C   UNL     1       2.952   6.393  18.233  0.00  0.00    +0.000 A 
ATOM     21  C   UNL     1       2.352   7.361  19.039  0.00  0.00    +0.000 A 
ATOM     22  C   UNL     1       1.856   7.020  20.296  0.00  0.00    +0.000 A 
ATOM     23  C   UNL     1       1.939   5.682  20.698  0.00  0.00    +0.000 A 
ATOM     24  C   UNL     1       2.563   4.696  19.909  0.00  0.00    +0.000 A 
BRANCH  19  26
ATOM     25  C   UNL     1       3.053   3.354  17.072  0.00  0.00    +0.000 C 
ATOM     26  O   UNL     1       3.848   4.173  17.940  0.00  0.00    +0.000 OA
ENDBRANCH  19  26
BRANCH  24  27
ATOM     27  O   UNL     1       2.520   3.473  20.521  0.00  0.00    +0.000 OA
ATOM     28  C   UNL     1       1.322   3.012  21.118  0.00  0.00    +0.000 C 
ENDBRANCH  24  27
ENDBRANCH  18  22
ENDBRANCH   1  18
TORSDOF 5
ENDMDL
MODEL 3
REMARK VINA RESULT:      -7.1      4.455     10.307
REMARK  Name = 
REMARK  7 active torsions:
REMARK  status: ('A' for Active; 'I' for Inactive)
REMARK    1  A    between atoms: C_1  and  O_2
REMARK    2  A    between atoms: O_2  and  C_3
REMARK    3  A    between atoms: C_6  and  C_7
REMARK    4  A    between atoms: C_7  and  N_8
REMARK    5  A    between atoms: N_14  and  C_15
REMARK    6  A    between atoms: C_25  and  O_26
REMARK    7  A    between atoms: O_26  and  C_27
REMARK                            x       y       z     vdW  Elec       q    Type
REMARK                         _______ _______ _______ _____ _____    ______ ____
ROOT
ATOM      1  N   UNL     1      -1.318  11.768  21.683  0.00  0.00    +0.000 N 
ATOM      2  C   UNL     1      -1.014  11.458  20.385  0.00  0.00    +0.000 C 
ATOM      3  O   UNL     1      -1.257  12.233  19.454  0.00  0.00    +0.000 OA
ATOM      4  N   UNL     1      -0.413  10.236  20.195  0.00  0.00    +0.000 N 
ATOM      5  C   UNL     1       0.068   9.862  18.858  0.00  0.00    +0.000 C 
ATOM      6  C   UNL     1       1.527   9.375  18.920  0.00  0.00    +0.000 C 
ATOM      7  N   UNL     1       1.682   8.314  19.936  0.00  0.00    +0.000 N 
ATOM      8  C   UNL     1       1.161   8.636  21.277  0.00  0.00    +0.000 C 
ATOM      9  C   UNL     1      -0.289   9.157  21.183  0.00  0.00    +0.000 C 
ATOM     10  H   UNL     1      -0.644  11.439  22.353  0.00  0.00    +0.000 HD
ENDROOT
BRANCH   7  11
ATOM     11  C   UNL     1       2.163   7.056  19.629  0.00  0.00    +0.000 A 
ATOM     12  C   UNL     1       1.863   5.939  20.428  0.00  0.00    +0.000 A 
ATOM     13  C   UNL     1       2.350   4.662  20.126  0.00  0.00    +0.000 A 
ATOM     14  C   UNL     1       3.150   4.467  19.009  0.00  0.00    +0.000 A 
ATOM     15  C   UNL     1       3.462   5.557  18.205  0.00  0.00    +0.000 A 
ATOM     16 CL   UNL     1       4.453   5.339  16.813  0.00  0.00    +0.000 Cl
ATOM     17  C   UNL     1       2.978   6.832  18.511  0.00  0.00    +0.000 A 
ENDBRANCH   7  11
BRANCH   1  18
ATOM     18  C   UNL     1      -1.905  13.053  22.012  0.00  0.00    +0.000 C 
BRANCH  18  22
ATOM     19  C   UNL     1      -5.930  12.663  23.586  0.00  0.00    +0.000 A 
ATOM     20  C   UNL     1      -4.808  12.615  24.432  0.00  0.00    +0.000 A 
ATOM     21  C   UNL     1      -3.513  12.766  23.933  0.00  0.00    +0.000 A 
ATOM     22  C   UNL     1      -3.301  12.905  22.561  0.00  0.00    +0.000 A 
ATOM     23  C   UNL     1      -4.413  12.844  21.712  0.00  0.00    +0.000 A 
ATOM     24  C   UNL     1      -5.728  12.718  22.200  0.00  0.00    +0.000 A 
BRANCH  19  26
ATOM     25  C   UNL     1      -7.788  13.955  24.248  0.00  0.00    +0.000 C 
ATOM     26  O   UNL     1      -7.197  12.657  24.108  0.00  0.00    +0.000 OA
ENDBRANCH  19  26
BRANCH  24  27
ATOM     27  O   UNL     1      -6.634  12.686  21.176  0.00  0.00    +0.000 OA
ATOM     28  C   UNL     1      -7.258  11.470  20.807  0.00  0.00    +0.000 C 
ENDBRANCH  24  27
ENDBRANCH  18  22
ENDBRANCH   1  18
TORSDOF 5
ENDMDL
MODEL 4
REMARK VINA RESULT:      -7.1      1.050      1.082
REMARK  Name = 
REMARK  7 active torsions:
REMARK  status: ('A' for Active; 'I' for Inactive)
REMARK    1  A    between atoms: C_1  and  O_2
REMARK    2  A    between atoms: O_2  and  C_3
REMARK    3  A    between atoms: C_6  and  C_7
REMARK    4  A    between atoms: C_7  and  N_8
REMARK    5  A    between atoms: N_14  and  C_15
REMARK    6  A    between atoms: C_25  and  O_26
REMARK    7  A    between atoms: O_26  and  C_27
REMARK                            x       y       z     vdW  Elec       q    Type
REMARK                         _______ _______ _______ _____ _____    ______ ____
ROOT
ATOM      1  N   UNL     1       2.013   8.630  18.984  0.00  0.00    +0.000 N 
ATOM      2  C   UNL     1       1.564   9.880  18.652  0.00  0.00    +0.000 C 
ATOM      3  O   UNL     1       1.693  10.340  17.513  0.00  0.00    +0.000 OA
ATOM      4  N   UNL     1       0.951  10.576  19.667  0.00  0.00    +0.000 N 
ATOM      5  C   UNL     1       0.322  11.873  19.383  0.00  0.00    +0.000 C 
ATOM      6  C   UNL     1      -1.117  11.911  19.928  0.00  0.00    +0.000 C 
ATOM      7  N   UNL     1      -1.149  11.523  21.353  0.00  0.00    +0.000 N 
ATOM      8  C   UNL     1      -0.479  10.252  21.682  0.00  0.00    +0.000 C 
ATOM      9  C   UNL     1       0.948  10.225  21.093  0.00  0.00    +0.000 C 
ATOM     10  H   UNL     1       1.423   8.140  19.634  0.00  0.00    +0.000 HD
ENDROOT
BRANCH   7  11
ATOM     11  C   UNL     1      -1.655  12.350  22.337  0.00  0.00    +0.000 A 
ATOM     12  C   UNL     1      -0.953  13.487  22.774  0.00  0.00    +0.000 A 
ATOM     13  C   UNL     1      -1.457  14.329  23.773  0.00  0.00    +0.000 A 
ATOM     14  C   UNL     1      -2.684  14.057  24.360  0.00  0.00    +0.000 A 
ATOM     15  C   UNL     1      -3.396  12.936  23.945  0.00  0.00    +0.000 A 
ATOM     16 CL   UNL     1      -4.922  12.579  24.659  0.00  0.00    +0.000 Cl
ATOM     17  C   UNL     1      -2.889  12.096  22.950  0.00  0.00    +0.000 A 
ENDBRANCH   7  11
BRANCH   1  18
ATOM     18  C   UNL     1       2.627   7.781  17.981  0.00  0.00    +0.000 C 
BRANCH  18  22
ATOM     19  C   UNL     1       3.174   3.719  19.405  0.00  0.00    +0.000 A 
ATOM     20  C   UNL     1       2.546   4.693  20.202  0.00  0.00    +0.000 A 
ATOM     21  C   UNL     1       2.346   5.994  19.737  0.00  0.00    +0.000 A 
ATOM     22  C   UNL     1       2.826   6.374  18.484  0.00  0.00    +0.000 A 
ATOM     23  C   UNL     1       3.546   5.432  17.739  0.00  0.00    +0.000 A 
ATOM     24  C   UNL     1       3.736   4.108  18.182  0.00  0.00    +0.000 A 
BRANCH  19  26
ATOM     25  C   UNL     1       4.502   2.024  20.366  0.00  0.00    +0.000 C 
ATOM     26  O   UNL     1       3.236   2.414  19.820  0.00  0.00    +0.000 OA
ENDBRANCH  19  26
BRANCH  24  27
ATOM     27  O   UNL     1       4.465   3.385  17.278  0.00  0.00    +0.000 OA
ATOM     28  C   UNL     1       5.080   4.026  16.175  0.00  0.00    +0.000 C 
ENDBRANCH  24  27
ENDBRANCH  18  22
ENDBRANCH   1  18
TORSDOF 5
ENDMDL
MODEL 5
REMARK VINA RESULT:      -7.1      3.289      4.188
REMARK  Name = 
REMARK  7 active torsions:
REMARK  status: ('A' for Active; 'I' for Inactive)
REMARK    1  A    between atoms: C_1  and  O_2
REMARK    2  A    between atoms: O_2  and  C_3
REMARK    3  A    between atoms: C_6  and  C_7
REMARK    4  A    between atoms: C_7  and  N_8
REMARK    5  A    between atoms: N_14  and  C_15
REMARK    6  A    between atoms: C_25  and  O_26
REMARK    7  A    between atoms: O_26  and  C_27
REMARK                            x       y       z     vdW  Elec       q    Type
REMARK                         _______ _______ _______ _____ _____    ______ ____
ROOT
ATOM      1  N   UNL     1       1.040   9.533  17.811  0.00  0.00    +0.000 N 
ATOM      2  C   UNL     1       0.528  10.336  18.794  0.00  0.00    +0.000 C 
ATOM      3  O   UNL     1       1.249  10.869  19.645  0.00  0.00    +0.000 OA
ATOM      4  N   UNL     1      -0.835  10.516  18.761  0.00  0.00    +0.000 N 
ATOM      5  C   UNL     1      -1.467  11.459  19.692  0.00  0.00    +0.000 C 
ATOM      6  C   UNL     1      -2.392  12.432  18.939  0.00  0.00    +0.000 C 
ATOM      7  N   UNL     1      -3.346  11.694  18.086  0.00  0.00    +0.000 N 
ATOM      8  C   UNL     1      -2.749  10.700  17.176  0.00  0.00    +0.000 C 
ATOM      9  C   UNL     1      -1.798   9.762  17.950  0.00  0.00    +0.000 C 
ATOM     10  H   UNL     1       0.574   9.621  16.924  0.00  0.00    +0.000 HD
ENDROOT
BRANCH   7  11
ATOM     11  C   UNL     1      -4.715  11.826  18.217  0.00  0.00    +0.000 A 
ATOM     12  C   UNL     1      -5.500  12.385  17.194  0.00  0.00    +0.000 A 
ATOM     13  C   UNL     1      -6.887  12.526  17.320  0.00  0.00    +0.000 A 
ATOM     14  C   UNL     1      -7.529  12.107  18.476  0.00  0.00    +0.000 A 
ATOM     15  C   UNL     1      -6.773  11.553  19.504  0.00  0.00    +0.000 A 
ATOM     16 CL   UNL     1      -7.547  11.025  20.948  0.00  0.00    +0.000 Cl
ATOM     17  C   UNL     1      -5.388  11.416  19.376  0.00  0.00    +0.000 A 
ENDBRANCH   7  11
BRANCH   1  18
ATOM     18  C   UNL     1       2.470   9.313  17.714  0.00  0.00    +0.000 C 
BRANCH  18  22
ATOM     19  C   UNL     1       3.561   5.234  18.710  0.00  0.00    +0.000 A 
ATOM     20  C   UNL     1       4.063   5.862  17.556  0.00  0.00    +0.000 A 
ATOM     21  C   UNL     1       3.735   7.183  17.247  0.00  0.00    +0.000 A 
ATOM     22  C   UNL     1       2.842   7.892  18.050  0.00  0.00    +0.000 A 
ATOM     23  C   UNL     1       2.260   7.227  19.137  0.00  0.00    +0.000 A 
ATOM     24  C   UNL     1       2.599   5.903  19.478  0.00  0.00    +0.000 A 
BRANCH  19  26
ATOM     25  C   UNL     1       3.701   2.952  18.132  0.00  0.00    +0.000 C 
ATOM     26  O   UNL     1       4.004   3.989  19.074  0.00  0.00    +0.000 OA
ENDBRANCH  19  26
BRANCH  24  27
ATOM     27  O   UNL     1       1.901   5.483  20.577  0.00  0.00    +0.000 OA
ATOM     28  C   UNL     1       1.030   4.370  20.492  0.00  0.00    +0.000 C 
ENDBRANCH  24  27
ENDBRANCH  18  22
ENDBRANCH   1  18
TORSDOF 5
ENDMDL
MODEL 6
REMARK VINA RESULT:      -7.1      3.099      3.755
REMARK  Name = 
REMARK  7 active torsions:
REMARK  status: ('A' for Active; 'I' for Inactive)
REMARK    1  A    between atoms: C_1  and  O_2
REMARK    2  A    between atoms: O_2  and  C_3
REMARK    3  A    between atoms: C_6  and  C_7
REMARK    4  A    between atoms: C_7  and  N_8
REMARK    5  A    between atoms: N_14  and  C_15
REMARK    6  A    between atoms: C_25  and  O_26
REMARK    7  A    between atoms: O_26  and  C_27
REMARK                            x       y       z     vdW  Elec       q    Type
REMARK                         _______ _______ _______ _____ _____    ______ ____
ROOT
ATOM      1  N   UNL     1       0.925   9.599  17.927  0.00  0.00    +0.000 N 
ATOM      2  C   UNL     1       0.486  10.326  19.001  0.00  0.00    +0.000 C 
ATOM      3  O   UNL     1       1.262  10.754  19.861  0.00  0.00    +0.000 OA
ATOM      4  N   UNL     1      -0.870  10.553  19.045  0.00  0.00    +0.000 N 
ATOM      5  C   UNL     1      -1.426  11.428  20.085  0.00  0.00    +0.000 C 
ATOM      6  C   UNL     1      -2.345  12.496  19.465  0.00  0.00    +0.000 C 
ATOM      7  N   UNL     1      -3.362  11.871  18.594  0.00  0.00    +0.000 N 
ATOM      8  C   UNL     1      -2.842  10.944  17.573  0.00  0.00    +0.000 C 
ATOM      9  C   UNL     1      -1.894   9.909  18.215  0.00  0.00    +0.000 C 
ATOM     10  H   UNL     1       0.426   9.783  17.074  0.00  0.00    +0.000 HD
ENDROOT
BRANCH   7  11
ATOM     11  C   UNL     1      -4.717  12.036  18.799  0.00  0.00    +0.000 A 
ATOM     12  C   UNL     1      -5.665  11.513  17.902  0.00  0.00    +0.000 A 
ATOM     13  C   UNL     1      -7.041  11.679  18.100  0.00  0.00    +0.000 A 
ATOM     14  C   UNL     1      -7.507  12.373  19.207  0.00  0.00    +0.000 A 
ATOM     15  C   UNL     1      -6.589  12.903  20.107  0.00  0.00    +0.000 A 
ATOM     16 CL   UNL     1      -7.144  13.767  21.488  0.00  0.00    +0.000 Cl
ATOM     17  C   UNL     1      -5.216  12.738  19.905  0.00  0.00    +0.000 A 
ENDBRANCH   7  11
BRANCH   1  18
ATOM     18  C   UNL     1       2.341   9.342  17.745  0.00  0.00    +0.000 C 
BRANCH  18  22
ATOM     19  C   UNL     1       3.391   5.298  18.917  0.00  0.00    +0.000 A 
ATOM     20  C   UNL     1       2.551   6.094  19.716  0.00  0.00    +0.000 A 
ATOM     21  C   UNL     1       2.191   7.386  19.330  0.00  0.00    +0.000 A 
ATOM     22  C   UNL     1       2.713   7.942  18.162  0.00  0.00    +0.000 A 
ATOM     23  C   UNL     1       3.633   7.185  17.425  0.00  0.00    +0.000 A 
ATOM     24  C   UNL     1       3.989   5.871  17.787  0.00  0.00    +0.000 A 
BRANCH  19  26
ATOM     25  C   UNL     1       2.697   3.061  18.650  0.00  0.00    +0.000 C 
ATOM     26  O   UNL     1       3.620   3.985  19.239  0.00  0.00    +0.000 OA
ENDBRANCH  19  26
BRANCH  24  27
ATOM     27  O   UNL     1       4.897   5.346  16.909  0.00  0.00    +0.000 OA
ATOM     28  C   UNL     1       5.292   6.078  15.762  0.00  0.00    +0.000 C 
ENDBRANCH  24  27
ENDBRANCH  18  22
ENDBRANCH   1  18
TORSDOF 5
ENDMDL
MODEL 7
REMARK VINA RESULT:      -7.1      1.003      1.681
REMARK  Name = 
REMARK  7 active torsions:
REMARK  status: ('A' for Active; 'I' for Inactive)
REMARK    1  A    between atoms: C_1  and  O_2
REMARK    2  A    between atoms: O_2  and  C_3
REMARK    3  A    between atoms: C_6  and  C_7
REMARK    4  A    between atoms: C_7  and  N_8
REMARK    5  A    between atoms: N_14  and  C_15
REMARK    6  A    between atoms: C_25  and  O_26
REMARK    7  A    between atoms: O_26  and  C_27
REMARK                            x       y       z     vdW  Elec       q    Type
REMARK                         _______ _______ _______ _____ _____    ______ ____
ROOT
ATOM      1  N   UNL     1       1.912   8.315  18.730  0.00  0.00    +0.000 N 
ATOM      2  C   UNL     1       1.715   9.649  18.496  0.00  0.00    +0.000 C 
ATOM      3  O   UNL     1       2.039  10.180  17.428  0.00  0.00    +0.000 OA
ATOM      4  N   UNL     1       1.124  10.348  19.522  0.00  0.00    +0.000 N 
ATOM      5  C   UNL     1       0.753  11.755  19.325  0.00  0.00    +0.000 C 
ATOM      6  C   UNL     1      -0.709  11.997  19.741  0.00  0.00    +0.000 C 
ATOM      7  N   UNL     1      -0.954  11.494  21.109  0.00  0.00    +0.000 N 
ATOM      8  C   UNL     1      -0.544  10.101  21.357  0.00  0.00    +0.000 C 
ATOM      9  C   UNL     1       0.912   9.875  20.896  0.00  0.00    +0.000 C 
ATOM     10  H   UNL     1       1.184   7.880  19.270  0.00  0.00    +0.000 HD
ENDROOT
BRANCH   7  11
ATOM     11  C   UNL     1      -1.416  12.305  22.126  0.00  0.00    +0.000 A 
ATOM     12  C   UNL     1      -0.721  13.463  22.516  0.00  0.00    +0.000 A 
ATOM     13  C   UNL     1      -1.181  14.289  23.549  0.00  0.00    +0.000 A 
ATOM     14  C   UNL     1      -2.355  13.979  24.220  0.00  0.00    +0.000 A 
ATOM     15  C   UNL     1      -3.059  12.837  23.854  0.00  0.00    +0.000 A 
ATOM     16 CL   UNL     1      -4.520  12.432  24.671  0.00  0.00    +0.000 Cl
ATOM     17  C   UNL     1      -2.596  12.013  22.824  0.00  0.00    +0.000 A 
ENDBRANCH   7  11
BRANCH   1  18
ATOM     18  C   UNL     1       2.479   7.466  17.700  0.00  0.00    +0.000 C 
BRANCH  18  22
ATOM     19  C   UNL     1       3.584   3.574  19.270  0.00  0.00    +0.000 A 
ATOM     20  C   UNL     1       3.886   3.939  17.946  0.00  0.00    +0.000 A 
ATOM     21  C   UNL     1       3.554   5.199  17.445  0.00  0.00    +0.000 A 
ATOM     22  C   UNL     1       2.854   6.108  18.238  0.00  0.00    +0.000 A 
ATOM     23  C   UNL     1       2.461   5.701  19.519  0.00  0.00    +0.000 A 
ATOM     24  C   UNL     1       2.808   4.443  20.049  0.00  0.00    +0.000 A 
BRANCH  19  26
ATOM     25  C   UNL     1       3.987   1.285  18.878  0.00  0.00    +0.000 C 
ATOM     26  O   UNL     1       4.041   2.390  19.788  0.00  0.00    +0.000 OA
ENDBRANCH  19  26
BRANCH  24  27
ATOM     27  O   UNL     1       2.312   4.287  21.314  0.00  0.00    +0.000 OA
ATOM     28  C   UNL     1       1.528   3.154  21.643  0.00  0.00    +0.000 C 
ENDBRANCH  24  27
ENDBRANCH  18  22
ENDBRANCH   1  18
TORSDOF 5
ENDMDL
MODEL 8
REMARK VINA RESULT:      -7.0      3.914      9.824
REMARK  Name = 
REMARK  7 active torsions:
REMARK  status: ('A' for Active; 'I' for Inactive)
REMARK    1  A    between atoms: C_1  and  O_2
REMARK    2  A    between atoms: O_2  and  C_3
REMARK    3  A    between atoms: C_6  and  C_7
REMARK    4  A    between atoms: C_7  and  N_8
REMARK    5  A    between atoms: N_14  and  C_15
REMARK    6  A    between atoms: C_25  and  O_26
REMARK    7  A    between atoms: O_26  and  C_27
REMARK                            x       y       z     vdW  Elec       q    Type
REMARK                         _______ _______ _______ _____ _____    ______ ____
ROOT
ATOM      1  N   UNL     1       0.481  11.000  20.913  0.00  0.00    +0.000 N 
ATOM      2  C   UNL     1       0.689  10.763  19.581  0.00  0.00    +0.000 C 
ATOM      3  O   UNL     1       0.611  11.663  18.737  0.00  0.00    +0.000 OA
ATOM      4  N   UNL     1       1.001   9.465  19.253  0.00  0.00    +0.000 N 
ATOM      5  C   UNL     1       1.368   9.132  17.871  0.00  0.00    +0.000 C 
ATOM      6  C   UNL     1       2.682   8.332  17.832  0.00  0.00    +0.000 C 
ATOM      7  N   UNL     1       2.613   7.166  18.737  0.00  0.00    +0.000 N 
ATOM      8  C   UNL     1       2.197   7.457  20.120  0.00  0.00    +0.000 C 
ATOM      9  C   UNL     1       0.898   8.291  20.129  0.00  0.00    +0.000 C 
ATOM     10  H   UNL     1       1.075  10.465  21.524  0.00  0.00    +0.000 HD
ENDROOT
BRANCH   7  11
ATOM     11  C   UNL     1       2.799   5.871  18.294  0.00  0.00    +0.000 A 
ATOM     12  C   UNL     1       3.883   5.525  17.469  0.00  0.00    +0.000 A 
ATOM     13  C   UNL     1       4.077   4.216  17.012  0.00  0.00    +0.000 A 
ATOM     14  C   UNL     1       3.189   3.213  17.374  0.00  0.00    +0.000 A 
ATOM     15  C   UNL     1       2.107   3.532  18.188  0.00  0.00    +0.000 A 
ATOM     16 CL   UNL     1       0.992   2.304  18.651  0.00  0.00    +0.000 Cl
ATOM     17  C   UNL     1       1.915   4.840  18.639  0.00  0.00    +0.000 A 
ENDBRANCH   7  11
BRANCH   1  18
ATOM     18  C   UNL     1       0.198  12.342  21.384  0.00  0.00    +0.000 C 
BRANCH  18  22
ATOM     19  C   UNL     1      -3.966  12.849  22.494  0.00  0.00    +0.000 A 
ATOM     20  C   UNL     1      -3.002  12.453  23.439  0.00  0.00    +0.000 A 
ATOM     21  C   UNL     1      -1.657  12.314  23.091  0.00  0.00    +0.000 A 
ATOM     22  C   UNL     1      -1.250  12.506  21.771  0.00  0.00    +0.000 A 
ATOM     23  C   UNL     1      -2.229  12.793  20.813  0.00  0.00    +0.000 A 
ATOM     24  C   UNL     1      -3.587  12.962  21.150  0.00  0.00    +0.000 A 
BRANCH  19  26
ATOM     25  C   UNL     1      -5.574  12.686  24.211  0.00  0.00    +0.000 C 
ATOM     26  O   UNL     1      -5.252  13.118  22.883  0.00  0.00    +0.000 OA
ENDBRANCH  19  26
BRANCH  24  27
ATOM     27  O   UNL     1      -4.339  13.241  20.043  0.00  0.00    +0.000 OA
ATOM     28  C   UNL     1      -5.161  12.243  19.464  0.00  0.00    +0.000 C 
ENDBRANCH  24  27
ENDBRANCH  18  22
ENDBRANCH   1  18
TORSDOF 5
ENDMDL
MODEL 9
REMARK VINA RESULT:      -7.0      4.307     10.071
REMARK  Name = 
REMARK  7 active torsions:
REMARK  status: ('A' for Active; 'I' for Inactive)
REMARK    1  A    between atoms: C_1  and  O_2
REMARK    2  A    between atoms: O_2  and  C_3
REMARK    3  A    between atoms: C_6  and  C_7
REMARK    4  A    between atoms: C_7  and  N_8
REMARK    5  A    between atoms: N_14  and  C_15
REMARK    6  A    between atoms: C_25  and  O_26
REMARK    7  A    between atoms: O_26  and  C_27
REMARK                            x       y       z     vdW  Elec       q    Type
REMARK                         _______ _______ _______ _____ _____    ______ ____
ROOT
ATOM      1  N   UNL     1       0.461  10.975  20.931  0.00  0.00    +0.000 N 
ATOM      2  C   UNL     1       0.681  10.793  19.592  0.00  0.00    +0.000 C 
ATOM      3  O   UNL     1       0.598  11.723  18.783  0.00  0.00    +0.000 OA
ATOM      4  N   UNL     1       1.010   9.511  19.216  0.00  0.00    +0.000 N 
ATOM      5  C   UNL     1       1.389   9.236  17.824  0.00  0.00    +0.000 C 
ATOM      6  C   UNL     1       2.713   8.454  17.764  0.00  0.00    +0.000 C 
ATOM      7  N   UNL     1       2.651   7.252  18.622  0.00  0.00    +0.000 N 
ATOM      8  C   UNL     1       2.222   7.485  20.013  0.00  0.00    +0.000 C 
ATOM      9  C   UNL     1       0.913   8.304  20.045  0.00  0.00    +0.000 C 
ATOM     10  H   UNL     1       1.057  10.423  21.524  0.00  0.00    +0.000 HD
ENDROOT
BRANCH   7  11
ATOM     11  C   UNL     1       2.854   5.978  18.131  0.00  0.00    +0.000 A 
ATOM     12  C   UNL     1       1.883   4.971  18.275  0.00  0.00    +0.000 A 
ATOM     13  C   UNL     1       2.083   3.676  17.783  0.00  0.00    +0.000 A 
ATOM     14  C   UNL     1       3.262   3.353  17.128  0.00  0.00    +0.000 A 
ATOM     15  C   UNL     1       4.238   4.331  16.975  0.00  0.00    +0.000 A 
ATOM     16 CL   UNL     1       5.709   3.954  16.164  0.00  0.00    +0.000 Cl
ATOM     17  C   UNL     1       4.038   5.622  17.470  0.00  0.00    +0.000 A 
ENDBRANCH   7  11
BRANCH   1  18
ATOM     18  C   UNL     1       0.160  12.295  21.451  0.00  0.00    +0.000 C 
BRANCH  18  22
ATOM     19  C   UNL     1      -4.006  12.698  22.595  0.00  0.00    +0.000 A 
ATOM     20  C   UNL     1      -3.042  12.230  23.505  0.00  0.00    +0.000 A 
ATOM     21  C   UNL     1      -1.696  12.123  23.148  0.00  0.00    +0.000 A 
ATOM     22  C   UNL     1      -1.288  12.422  21.849  0.00  0.00    +0.000 A 
ATOM     23  C   UNL     1      -2.268  12.784  20.916  0.00  0.00    +0.000 A 
ATOM     24  C   UNL     1      -3.626  12.921  21.264  0.00  0.00    +0.000 A 
BRANCH  19  26
ATOM     25  C   UNL     1      -5.516  14.238  23.549  0.00  0.00    +0.000 C 
ATOM     26  O   UNL     1      -5.294  12.931  23.003  0.00  0.00    +0.000 OA
ENDBRANCH  19  26
BRANCH  24  27
ATOM     27  O   UNL     1      -4.379  13.287  20.183  0.00  0.00    +0.000 OA
ATOM     28  C   UNL     1      -5.179  12.332  19.509  0.00  0.00    +0.000 C 
ENDBRANCH  24  27
ENDBRANCH  18  22
ENDBRANCH   1  18
TORSDOF 5
ENDMDL
