MODEL 1
REMARK VINA RESULT:      -6.1      0.000      0.000
REMARK  Name = 
REMARK  0 active torsions:
REMARK  status: ('A' for Active; 'I' for Inactive)
REMARK                            x       y       z     vdW  Elec       q    Type
REMARK                         _______ _______ _______ _____ _____    ______ ____
ROOT
ATOM      1  C   UNL     1       2.065   7.087  19.741  0.00  0.00    +0.000 C 
ATOM      2  C   UNL     1       2.469   8.234  18.814  0.00  0.00    +0.000 C 
ATOM      3  C   UNL     1       2.959   7.777  17.442  0.00  0.00    +0.000 C 
ATOM      4  N   UNL     1       3.891   6.637  17.530  0.00  0.00    +0.000 NA
ATOM      5  C   UNL     1       4.431   6.337  16.203  0.00  0.00    +0.000 C 
ATOM      6  C   UNL     1       5.330   5.090  16.200  0.00  0.00    +0.000 C 
ATOM      7  C   UNL     1       4.422   3.906  16.559  0.00  0.00    +0.000 C 
ATOM      8  C   UNL     1       3.976   4.104  18.009  0.00  0.00    +0.000 C 
ATOM      9  C   UNL     1       5.216   3.909  18.884  0.00  0.00    +0.000 C 
ATOM     10  N   UNL     1       6.270   4.842  18.555  0.00  0.00    +0.000 NA
ATOM     11  C   UNL     1       7.028   5.350  19.669  0.00  0.00    +0.000 C 
ATOM     12  C   UNL     1       8.225   6.195  19.278  0.00  0.00    +0.000 C 
ATOM     13  C   UNL     1       7.795   7.179  18.211  0.00  0.00    +0.000 C 
ATOM     14  C   UNL     1       7.431   6.421  16.936  0.00  0.00    +0.000 C 
ATOM     15  C   UNL     1       6.578   5.141  17.156  0.00  0.00    +0.000 C 
ATOM     16  C   UNL     1       3.238   5.484  18.166  0.00  0.00    +0.000 C 
ATOM     17  C   UNL     1       2.977   5.866  19.631  0.00  0.00    +0.000 C 
ENDROOT
TORSDOF 0
ENDMDL
MODEL 2
REMARK VINA RESULT:      -5.8      1.867      4.670
REMARK  Name = 
REMARK  0 active torsions:
REMARK  status: ('A' for Active; 'I' for Inactive)
REMARK                            x       y       z     vdW  Elec       q    Type
REMARK                         _______ _______ _______ _____ _____    ______ ____
ROOT
ATOM      1  C   UNL     1       6.378   3.957  14.604  0.00  0.00    +0.000 C 
ATOM      2  C   UNL     1       5.443   5.082  14.159  0.00  0.00    +0.000 C 
ATOM      3  C   UNL     1       5.196   6.142  15.230  0.00  0.00    +0.000 C 
ATOM      4  N   UNL     1       4.935   5.550  16.555  0.00  0.00    +0.000 NA
ATOM      5  C   UNL     1       4.570   6.604  17.503  0.00  0.00    +0.000 C 
ATOM      6  C   UNL     1       4.387   6.072  18.934  0.00  0.00    +0.000 C 
ATOM      7  C   UNL     1       5.764   5.565  19.383  0.00  0.00    +0.000 C 
ATOM      8  C   UNL     1       6.100   4.348  18.518  0.00  0.00    +0.000 C 
ATOM      9  C   UNL     1       5.134   3.235  18.927  0.00  0.00    +0.000 C 
ATOM     10  N   UNL     1       3.751   3.612  18.740  0.00  0.00    +0.000 NA
ATOM     11  C   UNL     1       2.874   2.570  18.272  0.00  0.00    +0.000 C 
ATOM     12  C   UNL     1       1.408   2.954  18.243  0.00  0.00    +0.000 C 
ATOM     13  C   UNL     1       1.277   4.323  17.609  0.00  0.00    +0.000 C 
ATOM     14  C   UNL     1       1.925   5.367  18.515  0.00  0.00    +0.000 C 
ATOM     15  C   UNL     1       3.297   4.952  19.116  0.00  0.00    +0.000 C 
ATOM     16  C   UNL     1       6.082   4.744  16.996  0.00  0.00    +0.000 C 
ATOM     17  C   UNL     1       6.168   3.532  16.056  0.00  0.00    +0.000 C 
ENDROOT
TORSDOF 0
ENDMDL
MODEL 3
REMARK VINA RESULT:      -5.8      2.357      4.927
REMARK  Name = 
REMARK  0 active torsions:
REMARK  status: ('A' for Active; 'I' for Inactive)
REMARK                            x       y       z     vdW  Elec       q    Type
REMARK                         _______ _______ _______ _____ _____    ______ ____
ROOT
ATOM      1  C   UNL     1       6.567   5.524  18.714  0.00  0.00    +0.000 C 
ATOM      2  C   UNL     1       6.532   4.183  17.980  0.00  0.00    +0.000 C 
ATOM      3  C   UNL     1       5.277   3.971  17.137  0.00  0.00    +0.000 C 
ATOM      4  N   UNL     1       4.048   4.365  17.851  0.00  0.00    +0.000 NA
ATOM      5  C   UNL     1       2.876   4.009  17.051  0.00  0.00    +0.000 C 
ATOM      6  C   UNL     1       1.560   4.488  17.687  0.00  0.00    +0.000 C 
ATOM      7  C   UNL     1       1.617   6.022  17.686  0.00  0.00    +0.000 C 
ATOM      8  C   UNL     1       2.730   6.432  18.653  0.00  0.00    +0.000 C 
ATOM      9  C   UNL     1       2.247   6.071  20.060  0.00  0.00    +0.000 C 
ATOM     10  N   UNL     1       1.963   4.660  20.196  0.00  0.00    +0.000 NA
ATOM     11  C   UNL     1       2.323   4.068  21.458  0.00  0.00    +0.000 C 
ATOM     12  C   UNL     1       1.865   2.632  21.628  0.00  0.00    +0.000 C 
ATOM     13  C   UNL     1       2.201   1.864  20.367  0.00  0.00    +0.000 C 
ATOM     14  C   UNL     1       1.362   2.397  19.208  0.00  0.00    +0.000 C 
ATOM     15  C   UNL     1       1.258   3.945  19.132  0.00  0.00    +0.000 C 
ATOM     16  C   UNL     1       4.095   5.789  18.212  0.00  0.00    +0.000 C 
ATOM     17  C   UNL     1       5.205   5.952  19.262  0.00  0.00    +0.000 C 
ENDROOT
TORSDOF 0
ENDMDL
MODEL 4
REMARK VINA RESULT:      -5.8      1.742      3.798
REMARK  Name = 
REMARK  0 active torsions:
REMARK  status: ('A' for Active; 'I' for Inactive)
REMARK                            x       y       z     vdW  Elec       q    Type
REMARK                         _______ _______ _______ _____ _____    ______ ____
ROOT
ATOM      1  C   UNL     1       1.295   3.230  17.897  0.00  0.00    +0.000 C 
ATOM      2  C   UNL     1       2.230   2.031  18.052  0.00  0.00    +0.000 C 
ATOM      3  C   UNL     1       3.494   2.330  18.855  0.00  0.00    +0.000 C 
ATOM      4  N   UNL     1       4.118   3.608  18.464  0.00  0.00    +0.000 NA
ATOM      5  C   UNL     1       5.392   3.770  19.165  0.00  0.00    +0.000 C 
ATOM      6  C   UNL     1       6.048   5.132  18.886  0.00  0.00    +0.000 C 
ATOM      7  C   UNL     1       5.108   6.191  19.477  0.00  0.00    +0.000 C 
ATOM      8  C   UNL     1       3.821   6.164  18.649  0.00  0.00    +0.000 C 
ATOM      9  C   UNL     1       4.176   6.703  17.262  0.00  0.00    +0.000 C 
ATOM     10  N   UNL     1       5.203   5.918  16.614  0.00  0.00    +0.000 NA
ATOM     11  C   UNL     1       5.048   5.734  15.195  0.00  0.00    +0.000 C 
ATOM     12  C   UNL     1       6.221   5.048  14.522  0.00  0.00    +0.000 C 
ATOM     13  C   UNL     1       6.617   3.843  15.350  0.00  0.00    +0.000 C 
ATOM     14  C   UNL     1       7.169   4.310  16.695  0.00  0.00    +0.000 C 
ATOM     15  C   UNL     1       6.360   5.448  17.376  0.00  0.00    +0.000 C 
ATOM     16  C   UNL     1       3.187   4.725  18.682  0.00  0.00    +0.000 C 
ATOM     17  C   UNL     1       2.033   4.552  17.683  0.00  0.00    +0.000 C 
ENDROOT
TORSDOF 0
ENDMDL
MODEL 5
REMARK VINA RESULT:      -5.7      0.913      4.415
REMARK  Name = 
REMARK  0 active torsions:
REMARK  status: ('A' for Active; 'I' for Inactive)
REMARK                            x       y       z     vdW  Elec       q    Type
REMARK                         _______ _______ _______ _____ _____    ______ ____
ROOT
ATOM      1  C   UNL     1       8.201   7.631  18.278  0.00  0.00    +0.000 C 
ATOM      2  C   UNL     1       8.329   6.452  19.242  0.00  0.00    +0.000 C 
ATOM      3  C   UNL     1       7.781   5.138  18.690  0.00  0.00    +0.000 C 
ATOM      4  N   UNL     1       6.475   5.310  18.026  0.00  0.00    +0.000 NA
ATOM      5  C   UNL     1       5.939   4.002  17.645  0.00  0.00    +0.000 C 
ATOM      6  C   UNL     1       4.627   4.112  16.850  0.00  0.00    +0.000 C 
ATOM      7  C   UNL     1       4.980   4.819  15.535  0.00  0.00    +0.000 C 
ATOM      8  C   UNL     1       5.383   6.252  15.888  0.00  0.00    +0.000 C 
ATOM      9  C   UNL     1       4.116   6.961  16.372  0.00  0.00    +0.000 C 
ATOM     10  N   UNL     1       3.530   6.311  17.522  0.00  0.00    +0.000 NA
ATOM     11  C   UNL     1       2.966   7.186  18.517  0.00  0.00    +0.000 C 
ATOM     12  C   UNL     1       2.218   6.472  19.626  0.00  0.00    +0.000 C 
ATOM     13  C   UNL     1       3.058   5.307  20.105  0.00  0.00    +0.000 C 
ATOM     14  C   UNL     1       3.171   4.268  18.992  0.00  0.00    +0.000 C 
ATOM     15  C   UNL     1       3.444   4.851  17.577  0.00  0.00    +0.000 C 
ATOM     16  C   UNL     1       6.590   6.243  16.896  0.00  0.00    +0.000 C 
ATOM     17  C   UNL     1       6.893   7.629  17.486  0.00  0.00    +0.000 C 
ENDROOT
TORSDOF 0
ENDMDL
MODEL 6
REMARK VINA RESULT:      -5.7      1.899      4.547
REMARK  Name = 
REMARK  0 active torsions:
REMARK  status: ('A' for Active; 'I' for Inactive)
REMARK                            x       y       z     vdW  Elec       q    Type
REMARK                         _______ _______ _______ _____ _____    ______ ____
ROOT
ATOM      1  C   UNL     1       7.757   5.402  18.726  0.00  0.00    +0.000 C 
ATOM      2  C   UNL     1       7.781   4.496  17.495  0.00  0.00    +0.000 C 
ATOM      3  C   UNL     1       6.551   4.633  16.600  0.00  0.00    +0.000 C 
ATOM      4  N   UNL     1       5.296   4.663  17.374  0.00  0.00    +0.000 NA
ATOM      5  C   UNL     1       4.153   4.654  16.460  0.00  0.00    +0.000 C 
ATOM      6  C   UNL     1       2.810   4.792  17.196  0.00  0.00    +0.000 C 
ATOM      7  C   UNL     1       2.815   6.183  17.843  0.00  0.00    +0.000 C 
ATOM      8  C   UNL     1       3.894   6.170  18.929  0.00  0.00    +0.000 C 
ATOM      9  C   UNL     1       3.395   5.239  20.036  0.00  0.00    +0.000 C 
ATOM     10  N   UNL     1       3.154   3.897  19.555  0.00  0.00    +0.000 NA
ATOM     11  C   UNL     1       3.508   2.835  20.461  0.00  0.00    +0.000 C 
ATOM     12  C   UNL     1       3.094   1.452  19.996  0.00  0.00    +0.000 C 
ATOM     13  C   UNL     1       3.481   1.296  18.540  0.00  0.00    +0.000 C 
ATOM     14  C   UNL     1       2.648   2.250  17.687  0.00  0.00    +0.000 C 
ATOM     15  C   UNL     1       2.495   3.683  18.267  0.00  0.00    +0.000 C 
ATOM     16  C   UNL     1       5.289   5.803  18.302  0.00  0.00    +0.000 C 
ATOM     17  C   UNL     1       6.371   5.530  19.358  0.00  0.00    +0.000 C 
ENDROOT
TORSDOF 0
ENDMDL
MODEL 7
REMARK VINA RESULT:      -5.6      7.661      9.789
REMARK  Name = 
REMARK  0 active torsions:
REMARK  status: ('A' for Active; 'I' for Inactive)
REMARK                            x       y       z     vdW  Elec       q    Type
REMARK                         _______ _______ _______ _____ _____    ______ ____
ROOT
ATOM      1  C   UNL     1       6.628  15.879  18.509  0.00  0.00    +0.000 C 
ATOM      2  C   UNL     1       6.651  15.773  20.034  0.00  0.00    +0.000 C 
ATOM      3  C   UNL     1       8.053  15.819  20.638  0.00  0.00    +0.000 C 
ATOM      4  N   UNL     1       9.009  14.971  19.901  0.00  0.00    +0.000 NA
ATOM      5  C   UNL     1      10.292  14.947  20.605  0.00  0.00    +0.000 C 
ATOM      6  C   UNL     1      11.371  14.166  19.836  0.00  0.00    +0.000 C 
ATOM      7  C   UNL     1      11.621  14.945  18.538  0.00  0.00    +0.000 C 
ATOM      8  C   UNL     1      10.346  14.843  17.699  0.00  0.00    +0.000 C 
ATOM      9  C   UNL     1      10.228  13.385  17.250  0.00  0.00    +0.000 C 
ATOM     10  N   UNL     1      10.163  12.470  18.368  0.00  0.00    +0.000 NA
ATOM     11  C   UNL     1       9.278  11.347  18.208  0.00  0.00    +0.000 C 
ATOM     12  C   UNL     1       9.356  10.325  19.326  0.00  0.00    +0.000 C 
ATOM     13  C   UNL     1       9.335  11.056  20.652  0.00  0.00    +0.000 C 
ATOM     14  C   UNL     1      10.612  11.879  20.799  0.00  0.00    +0.000 C 
ATOM     15  C   UNL     1      11.039  12.660  19.525  0.00  0.00    +0.000 C 
ATOM     16  C   UNL     1       9.121  15.412  18.503  0.00  0.00    +0.000 C 
ATOM     17  C   UNL     1       7.770  15.123  17.830  0.00  0.00    +0.000 C 
ENDROOT
TORSDOF 0
ENDMDL
MODEL 8
REMARK VINA RESULT:      -5.5      7.260      9.150
REMARK  Name = 
REMARK  0 active torsions:
REMARK  status: ('A' for Active; 'I' for Inactive)
REMARK                            x       y       z     vdW  Elec       q    Type
REMARK                         _______ _______ _______ _____ _____    ______ ____
ROOT
ATOM      1  C   UNL     1      -2.756   9.951  17.338  0.00  0.00    +0.000 C 
ATOM      2  C   UNL     1      -3.881  10.504  18.212  0.00  0.00    +0.000 C 
ATOM      3  C   UNL     1      -3.578  11.872  18.819  0.00  0.00    +0.000 C 
ATOM      4  N   UNL     1      -2.213  11.951  19.371  0.00  0.00    +0.000 NA
ATOM      5  C   UNL     1      -2.032  13.230  20.058  0.00  0.00    +0.000 C 
ATOM      6  C   UNL     1      -0.594  13.427  20.567  0.00  0.00    +0.000 C 
ATOM      7  C   UNL     1       0.298  13.493  19.320  0.00  0.00    +0.000 C 
ATOM      8  C   UNL     1       0.264  12.109  18.669  0.00  0.00    +0.000 C 
ATOM      9  C   UNL     1       1.003  11.158  19.613  0.00  0.00    +0.000 C 
ATOM     10  N   UNL     1       0.396  11.107  20.924  0.00  0.00    +0.000 NA
ATOM     11  C   UNL     1       0.380   9.814  21.557  0.00  0.00    +0.000 C 
ATOM     12  C   UNL     1      -0.113   9.826  22.991  0.00  0.00    +0.000 C 
ATOM     13  C   UNL     1      -1.374  10.661  23.062  0.00  0.00    +0.000 C 
ATOM     14  C   UNL     1      -1.035  12.120  22.764  0.00  0.00    +0.000 C 
ATOM     15  C   UNL     1      -0.065  12.336  21.570  0.00  0.00    +0.000 C 
ATOM     16  C   UNL     1      -1.216  11.711  18.317  0.00  0.00    +0.000 C 
ATOM     17  C   UNL     1      -1.360  10.243  17.887  0.00  0.00    +0.000 C 
ENDROOT
TORSDOF 0
ENDMDL
MODEL 9
REMARK VINA RESULT:      -5.5      6.881      9.412
REMARK  Name = 
REMARK  0 active torsions:
REMARK  status: ('A' for Active; 'I' for Inactive)
REMARK                            x       y       z     vdW  Elec       q    Type
REMARK                         _______ _______ _______ _____ _____    ______ ____
ROOT
ATOM      1  C   UNL     1      -0.730  10.007  23.143  0.00  0.00    +0.000 C 
ATOM      2  C   UNL     1      -0.398   8.807  22.256  0.00  0.00    +0.000 C 
ATOM      3  C   UNL     1       0.371   9.168  20.987  0.00  0.00    +0.000 C 
ATOM      4  N   UNL     1      -0.186  10.355  20.312  0.00  0.00    +0.000 NA
ATOM      5  C   UNL     1       0.502  10.566  19.038  0.00  0.00    +0.000 C 
ATOM      6  C   UNL     1       0.045  11.851  18.328  0.00  0.00    +0.000 C 
ATOM      7  C   UNL     1       0.472  13.016  19.231  0.00  0.00    +0.000 C 
ATOM      8  C   UNL     1      -0.359  12.921  20.512  0.00  0.00    +0.000 C 
ATOM      9  C   UNL     1      -1.803  13.250  20.127  0.00  0.00    +0.000 C 
ATOM     10  N   UNL     1      -2.323  12.345  19.127  0.00  0.00    +0.000 NA
ATOM     11  C   UNL     1      -3.706  11.972  19.278  0.00  0.00    +0.000 C 
ATOM     12  C   UNL     1      -4.262  11.156  18.127  0.00  0.00    +0.000 C 
ATOM     13  C   UNL     1      -3.271  10.064  17.784  0.00  0.00    +0.000 C 
ATOM     14  C   UNL     1      -1.997  10.692  17.223  0.00  0.00    +0.000 C 
ATOM     15  C   UNL     1      -1.490  11.943  17.993  0.00  0.00    +0.000 C 
ATOM     16  C   UNL     1      -0.136  11.525  21.201  0.00  0.00    +0.000 C 
ATOM     17  C   UNL     1      -1.116  11.258  22.354  0.00  0.00    +0.000 C 
ENDROOT
TORSDOF 0
ENDMDL
