MODEL 1
REMARK VINA RESULT:      -6.7      0.000      0.000
REMARK  Name = 
REMARK  13 active torsions:
REMARK  status: ('A' for Active; 'I' for Inactive)
REMARK    1  A    between atoms: C_1  and  C_2
REMARK    2  A    between atoms: C_2  and  O_3
REMARK    3  A    between atoms: C_2  and  C_4
REMARK    4  A    between atoms: C_4  and  N_5
REMARK    5  A    between atoms: C_4  and  C_6
REMARK    6  A    between atoms: C_6  and  O_8
REMARK    7  A    between atoms: O_8  and  C_9
REMARK    8  A    between atoms: C_9  and  C_10
REMARK    9  A    between atoms: C_10  and  C_11
REMARK   10  A    between atoms: C_11  and  C_12
REMARK   11  A    between atoms: C_12  and  C_13
REMARK   12  A    between atoms: C_13  and  C_14
REMARK   13  A    between atoms: C_14  and  N_15
REMARK                            x       y       z     vdW  Elec       q    Type
REMARK                         _______ _______ _______ _____ _____    ______ ____
ROOT
ATOM      1  C   UNL     1       1.716   4.481  18.088  0.00  0.00    +0.000 C 
ENDROOT
BRANCH   1   2
ATOM      2  C   UNL     1       2.602   3.511  17.312  0.00  0.00    +0.000 C 
BRANCH   2   3
ATOM      3  C   UNL     1       4.070   3.606  17.731  0.00  0.00    +0.000 C 
BRANCH   3   4
ATOM      4  C   UNL     1       4.984   3.523  16.520  0.00  0.00    +0.000 C 
BRANCH   4   5
ATOM      5  O   UNL     1       4.643   4.551  15.578  0.00  0.00    +0.000 OA
BRANCH   5   6
ATOM      6  C   UNL     1       5.430   5.669  15.685  0.00  0.00    +0.000 C 
ATOM      7  O   UNL     1       5.064   6.800  15.448  0.00  0.00    +0.000 OA
BRANCH   6   8
ATOM      8  C   UNL     1       6.877   5.304  16.071  0.00  0.00    +0.000 C 
BRANCH   8   9
ATOM      9  N   UNL     1       7.724   5.438  14.849  0.00  0.00    +0.000 NA
ATOM     10  H   UNL     1       7.076   5.452  14.052  0.00  0.00    +0.000 HD
ATOM     11  H   UNL     1       8.251   4.573  14.730  0.00  0.00    +0.000 HD
ENDBRANCH   8   9
BRANCH   8  13
ATOM     12  C   UNL     1       6.841   5.920  18.569  0.00  0.00    +0.000 C 
ATOM     13  C   UNL     1       7.444   6.198  17.197  0.00  0.00    +0.000 C 
BRANCH  13  14
ATOM     14  O   UNL     1       7.332   7.586  16.866  0.00  0.00    +0.000 OA
ATOM     15  H   UNL     1       7.707   7.740  15.984  0.00  0.00    +0.000 HD
ENDBRANCH  13  14
ENDBRANCH   8  13
ENDBRANCH   6   8
ENDBRANCH   5   6
ENDBRANCH   4   5
ENDBRANCH   3   4
ENDBRANCH   2   3
ENDBRANCH   1   2
BRANCH   1  16
ATOM     16  C   UNL     1       2.557   5.390  18.985  0.00  0.00    +0.000 C 
BRANCH  16  17
ATOM     17  C   UNL     1       2.706   6.796  18.396  0.00  0.00    +0.000 C 
BRANCH  17  18
ATOM     18  N   UNL     1       1.981   7.807  19.158  0.00  0.00    +0.000 N 
ATOM     19  C   UNL     1       1.687   7.605  20.486  0.00  0.00    +0.000 A 
ATOM     20  N   UNL     1       1.101   8.456  21.255  0.00  0.00    +0.000 NA
ATOM     21  C   UNL     1       0.767   9.702  20.713  0.00  0.00    +0.000 A 
ATOM     22  C   UNL     1       0.197  10.663  21.549  0.00  0.00    +0.000 A 
ATOM     23  C   UNL     1      -0.042  11.960  21.080  0.00  0.00    +0.000 A 
ATOM     24 BR   UNL     1      -0.726  13.224  22.321  0.00  0.00    +0.000 Br
ATOM     25  C   UNL     1       0.258  12.289  19.752  0.00  0.00    +0.000 A 
ATOM     26 CL   UNL     1       0.043  13.878  19.113  0.00  0.00    +0.000 Cl
ATOM     27  C   UNL     1       0.783  11.318  18.897  0.00  0.00    +0.000 A 
ATOM     28  C   UNL     1       1.042  10.034  19.389  0.00  0.00    +0.000 A 
ATOM     29  C   UNL     1       1.678   9.012  18.539  0.00  0.00    +0.000 A 
ATOM     30  O   UNL     1       1.936   9.281  17.367  0.00  0.00    +0.000 OA
ENDBRANCH  17  18
ENDBRANCH  16  17
ENDBRANCH   1  16
TORSDOF 12
ENDMDL
MODEL 2
REMARK VINA RESULT:      -6.6      2.953      4.648
REMARK  Name = 
REMARK  13 active torsions:
REMARK  status: ('A' for Active; 'I' for Inactive)
REMARK    1  A    between atoms: C_1  and  C_2
REMARK    2  A    between atoms: C_2  and  O_3
REMARK    3  A    between atoms: C_2  and  C_4
REMARK    4  A    between atoms: C_4  and  N_5
REMARK    5  A    between atoms: C_4  and  C_6
REMARK    6  A    between atoms: C_6  and  O_8
REMARK    7  A    between atoms: O_8  and  C_9
REMARK    8  A    between atoms: C_9  and  C_10
REMARK    9  A    between atoms: C_10  and  C_11
REMARK   10  A    between atoms: C_11  and  C_12
REMARK   11  A    between atoms: C_12  and  C_13
REMARK   12  A    between atoms: C_13  and  C_14
REMARK   13  A    between atoms: C_14  and  N_15
REMARK                            x       y       z     vdW  Elec       q    Type
REMARK                         _______ _______ _______ _____ _____    ______ ____
ROOT
ATOM      1  C   UNL     1       4.723   5.630  16.643  0.00  0.00    +0.000 C 
ENDROOT
BRANCH   1   2
ATOM      2  C   UNL     1       4.930   4.249  17.262  0.00  0.00    +0.000 C 
BRANCH   2   3
ATOM      3  C   UNL     1       5.327   4.330  18.736  0.00  0.00    +0.000 C 
BRANCH   3   4
ATOM      4  C   UNL     1       4.574   3.293  19.555  0.00  0.00    +0.000 C 
BRANCH   4   5
ATOM      5  O   UNL     1       3.460   3.908  20.217  0.00  0.00    +0.000 OA
BRANCH   5   6
ATOM      6  C   UNL     1       2.666   3.014  20.890  0.00  0.00    +0.000 C 
ATOM      7  O   UNL     1       3.020   2.350  21.841  0.00  0.00    +0.000 OA
BRANCH   6   8
ATOM      8  C   UNL     1       1.276   2.891  20.233  0.00  0.00    +0.000 C 
BRANCH   8   9
ATOM      9  N   UNL     1       0.574   4.199  20.400  0.00  0.00    +0.000 NA
ATOM     10  H   UNL     1      -0.273   4.143  19.822  0.00  0.00    +0.000 HD
ATOM     11  H   UNL     1       1.136   4.921  19.953  0.00  0.00    +0.000 HD
ENDBRANCH   8   9
BRANCH   8  13
ATOM     12  C   UNL     1       1.363   3.736  17.805  0.00  0.00    +0.000 C 
ATOM     13  C   UNL     1       1.349   2.528  18.733  0.00  0.00    +0.000 C 
BRANCH  13  14
ATOM     14  O   UNL     1       0.304   1.620  18.366  0.00  0.00    +0.000 OA
ATOM     15  H   UNL     1       0.182   1.638  17.403  0.00  0.00    +0.000 HD
ENDBRANCH  13  14
ENDBRANCH   8  13
ENDBRANCH   6   8
ENDBRANCH   5   6
ENDBRANCH   4   5
ENDBRANCH   3   4
ENDBRANCH   2   3
ENDBRANCH   1   2
BRANCH   1  16
ATOM     16  C   UNL     1       4.302   6.646  17.705  0.00  0.00    +0.000 C 
BRANCH  16  17
ATOM     17  C   UNL     1       2.808   6.550  18.028  0.00  0.00    +0.000 C 
BRANCH  17  18
ATOM     18  N   UNL     1       2.259   7.801  18.537  0.00  0.00    +0.000 N 
ATOM     19  C   UNL     1       2.166   8.907  17.724  0.00  0.00    +0.000 A 
ATOM     20  N   UNL     1       1.650  10.037  18.063  0.00  0.00    +0.000 NA
ATOM     21  C   UNL     1       1.103  10.145  19.346  0.00  0.00    +0.000 A 
ATOM     22  C   UNL     1       0.473  11.337  19.706  0.00  0.00    +0.000 A 
ATOM     23  C   UNL     1      -0.191  11.447  20.933  0.00  0.00    +0.000 A 
ATOM     24 BR   UNL     1      -1.101  13.075  21.289  0.00  0.00    +0.000 Br
ATOM     25  C   UNL     1      -0.196  10.366  21.824  0.00  0.00    +0.000 A 
ATOM     26 CL   UNL     1      -1.037  10.404  23.332  0.00  0.00    +0.000 Cl
ATOM     27  C   UNL     1       0.473   9.187  21.490  0.00  0.00    +0.000 A 
ATOM     28  C   UNL     1       1.109   9.084  20.248  0.00  0.00    +0.000 A 
ATOM     29  C   UNL     1       1.748   7.824  19.828  0.00  0.00    +0.000 A 
ATOM     30  O   UNL     1       1.762   6.870  20.603  0.00  0.00    +0.000 OA
ENDBRANCH  17  18
ENDBRANCH  16  17
ENDBRANCH   1  16
TORSDOF 12
ENDMDL
MODEL 3
REMARK VINA RESULT:      -6.6      1.928      2.496
REMARK  Name = 
REMARK  13 active torsions:
REMARK  status: ('A' for Active; 'I' for Inactive)
REMARK    1  A    between atoms: C_1  and  C_2
REMARK    2  A    between atoms: C_2  and  O_3
REMARK    3  A    between atoms: C_2  and  C_4
REMARK    4  A    between atoms: C_4  and  N_5
REMARK    5  A    between atoms: C_4  and  C_6
REMARK    6  A    between atoms: C_6  and  O_8
REMARK    7  A    between atoms: O_8  and  C_9
REMARK    8  A    between atoms: C_9  and  C_10
REMARK    9  A    between atoms: C_10  and  C_11
REMARK   10  A    between atoms: C_11  and  C_12
REMARK   11  A    between atoms: C_12  and  C_13
REMARK   12  A    between atoms: C_13  and  C_14
REMARK   13  A    between atoms: C_14  and  N_15
REMARK                            x       y       z     vdW  Elec       q    Type
REMARK                         _______ _______ _______ _____ _____    ______ ____
ROOT
ATOM      1  C   UNL     1       1.573   3.721  19.105  0.00  0.00    +0.000 C 
ENDROOT
BRANCH   1   2
ATOM      2  C   UNL     1       1.921   4.219  17.705  0.00  0.00    +0.000 C 
BRANCH   2   3
ATOM      3  C   UNL     1       3.283   3.709  17.231  0.00  0.00    +0.000 C 
BRANCH   3   4
ATOM      4  C   UNL     1       4.231   3.531  18.406  0.00  0.00    +0.000 C 
BRANCH   4   5
ATOM      5  O   UNL     1       5.580   3.787  17.989  0.00  0.00    +0.000 OA
BRANCH   5   6
ATOM      6  C   UNL     1       6.163   4.837  18.651  0.00  0.00    +0.000 C 
ATOM      7  O   UNL     1       5.722   5.355  19.655  0.00  0.00    +0.000 OA
BRANCH   6   8
ATOM      8  C   UNL     1       7.420   5.340  17.913  0.00  0.00    +0.000 C 
BRANCH   8   9
ATOM      9  N   UNL     1       7.941   4.216  17.079  0.00  0.00    +0.000 NA
ATOM     10  H   UNL     1       7.721   3.354  17.592  0.00  0.00    +0.000 HD
ATOM     11  H   UNL     1       8.959   4.259  17.086  0.00  0.00    +0.000 HD
ENDBRANCH   8   9
BRANCH   8  13
ATOM     12  C   UNL     1       7.717   7.871  17.556  0.00  0.00    +0.000 C 
ATOM     13  C   UNL     1       7.141   6.567  17.016  0.00  0.00    +0.000 C 
BRANCH  13  14
ATOM     14  O   UNL     1       5.742   6.706  16.744  0.00  0.00    +0.000 OA
ATOM     15  H   UNL     1       5.613   7.360  16.039  0.00  0.00    +0.000 HD
ENDBRANCH  13  14
ENDBRANCH   8  13
ENDBRANCH   6   8
ENDBRANCH   5   6
ENDBRANCH   4   5
ENDBRANCH   3   4
ENDBRANCH   2   3
ENDBRANCH   1   2
BRANCH   1  16
ATOM     16  C   UNL     1       1.261   4.892  20.038  0.00  0.00    +0.000 C 
BRANCH  16  17
ATOM     17  C   UNL     1       2.446   5.854  20.165  0.00  0.00    +0.000 C 
BRANCH  17  18
ATOM     18  N   UNL     1       2.104   7.223  19.798  0.00  0.00    +0.000 N 
ATOM     19  C   UNL     1       2.386   7.702  18.540  0.00  0.00    +0.000 A 
ATOM     20  N   UNL     1       2.076   8.873  18.104  0.00  0.00    +0.000 NA
ATOM     21  C   UNL     1       1.362   9.719  18.960  0.00  0.00    +0.000 A 
ATOM     22  C   UNL     1       0.954  10.965  18.480  0.00  0.00    +0.000 A 
ATOM     23  C   UNL     1       0.137  11.792  19.259  0.00  0.00    +0.000 A 
ATOM     24 BR   UNL     1      -0.448  13.422  18.481  0.00  0.00    +0.000 Br
ATOM     25  C   UNL     1      -0.247  11.386  20.544  0.00  0.00    +0.000 A 
ATOM     26 CL   UNL     1      -1.295  12.323  21.545  0.00  0.00    +0.000 Cl
ATOM     27  C   UNL     1       0.198  10.161  21.047  0.00  0.00    +0.000 A 
ATOM     28  C   UNL     1       0.992   9.334  20.246  0.00  0.00    +0.000 A 
ATOM     29  C   UNL     1       1.405   7.999  20.713  0.00  0.00    +0.000 A 
ATOM     30  O   UNL     1       1.086   7.632  21.842  0.00  0.00    +0.000 OA
ENDBRANCH  17  18
ENDBRANCH  16  17
ENDBRANCH   1  16
TORSDOF 12
ENDMDL
MODEL 4
REMARK VINA RESULT:      -6.5      2.000      2.640
REMARK  Name = 
REMARK  13 active torsions:
REMARK  status: ('A' for Active; 'I' for Inactive)
REMARK    1  A    between atoms: C_1  and  C_2
REMARK    2  A    between atoms: C_2  and  O_3
REMARK    3  A    between atoms: C_2  and  C_4
REMARK    4  A    between atoms: C_4  and  N_5
REMARK    5  A    between atoms: C_4  and  C_6
REMARK    6  A    between atoms: C_6  and  O_8
REMARK    7  A    between atoms: O_8  and  C_9
REMARK    8  A    between atoms: C_9  and  C_10
REMARK    9  A    between atoms: C_10  and  C_11
REMARK   10  A    between atoms: C_11  and  C_12
REMARK   11  A    between atoms: C_12  and  C_13
REMARK   12  A    between atoms: C_13  and  C_14
REMARK   13  A    between atoms: C_14  and  N_15
REMARK                            x       y       z     vdW  Elec       q    Type
REMARK                         _______ _______ _______ _____ _____    ______ ____
ROOT
ATOM      1  C   UNL     1       2.060   4.067  17.788  0.00  0.00    +0.000 C 
ENDROOT
BRANCH   1   2
ATOM      2  C   UNL     1       2.792   2.817  18.269  0.00  0.00    +0.000 C 
BRANCH   2   3
ATOM      3  C   UNL     1       4.268   2.821  17.869  0.00  0.00    +0.000 C 
BRANCH   3   4
ATOM      4  C   UNL     1       4.879   4.198  18.076  0.00  0.00    +0.000 C 
BRANCH   4   5
ATOM      5  O   UNL     1       6.275   4.071  18.385  0.00  0.00    +0.000 OA
BRANCH   5   6
ATOM      6  C   UNL     1       7.096   4.530  17.387  0.00  0.00    +0.000 C 
ATOM      7  O   UNL     1       8.264   4.231  17.257  0.00  0.00    +0.000 OA
BRANCH   6   8
ATOM      8  C   UNL     1       6.372   5.549  16.485  0.00  0.00    +0.000 C 
BRANCH   8   9
ATOM      9  N   UNL     1       6.940   6.900  16.772  0.00  0.00    +0.000 NA
ATOM     10  H   UNL     1       6.778   7.071  17.772  0.00  0.00    +0.000 HD
ATOM     11  H   UNL     1       6.362   7.595  16.302  0.00  0.00    +0.000 HD
ENDBRANCH   8   9
BRANCH   8  13
ATOM     12  C   UNL     1       6.038   3.839  14.592  0.00  0.00    +0.000 C 
ATOM     13  C   UNL     1       6.519   5.232  14.980  0.00  0.00    +0.000 C 
BRANCH  13  14
ATOM     14  O   UNL     1       7.862   5.447  14.531  0.00  0.00    +0.000 OA
ATOM     15  H   UNL     1       8.480   5.019  15.145  0.00  0.00    +0.000 HD
ENDBRANCH  13  14
ENDBRANCH   8  13
ENDBRANCH   6   8
ENDBRANCH   5   6
ENDBRANCH   4   5
ENDBRANCH   3   4
ENDBRANCH   2   3
ENDBRANCH   1   2
BRANCH   1  16
ATOM     16  C   UNL     1       1.466   4.839  18.967  0.00  0.00    +0.000 C 
BRANCH  16  17
ATOM     17  C   UNL     1       2.485   5.789  19.601  0.00  0.00    +0.000 C 
BRANCH  17  18
ATOM     18  N   UNL     1       2.167   7.193  19.371  0.00  0.00    +0.000 N 
ATOM     19  C   UNL     1       2.481   7.796  18.175  0.00  0.00    +0.000 A 
ATOM     20  N   UNL     1       2.194   9.011  17.857  0.00  0.00    +0.000 NA
ATOM     21  C   UNL     1       1.473   9.773  18.782  0.00  0.00    +0.000 A 
ATOM     22  C   UNL     1       1.090  11.067  18.426  0.00  0.00    +0.000 A 
ATOM     23  C   UNL     1       0.267  11.821  19.270  0.00  0.00    +0.000 A 
ATOM     24 BR   UNL     1      -0.282  13.531  18.654  0.00  0.00    +0.000 Br
ATOM     25  C   UNL     1      -0.149  11.290  20.498  0.00  0.00    +0.000 A 
ATOM     26 CL   UNL     1      -1.207  12.133  21.570  0.00  0.00    +0.000 Cl
ATOM     27  C   UNL     1       0.271  10.014  20.881  0.00  0.00    +0.000 A 
ATOM     28  C   UNL     1       1.071   9.263  20.014  0.00  0.00    +0.000 A 
ATOM     29  C   UNL     1       1.458   7.880  20.347  0.00  0.00    +0.000 A 
ATOM     30  O   UNL     1       1.112   7.404  21.426  0.00  0.00    +0.000 OA
ENDBRANCH  17  18
ENDBRANCH  16  17
ENDBRANCH   1  16
TORSDOF 12
ENDMDL
MODEL 5
REMARK VINA RESULT:      -6.5      6.156      8.638
REMARK  Name = 
REMARK  13 active torsions:
REMARK  status: ('A' for Active; 'I' for Inactive)
REMARK    1  A    between atoms: C_1  and  C_2
REMARK    2  A    between atoms: C_2  and  O_3
REMARK    3  A    between atoms: C_2  and  C_4
REMARK    4  A    between atoms: C_4  and  N_5
REMARK    5  A    between atoms: C_4  and  C_6
REMARK    6  A    between atoms: C_6  and  O_8
REMARK    7  A    between atoms: O_8  and  C_9
REMARK    8  A    between atoms: C_9  and  C_10
REMARK    9  A    between atoms: C_10  and  C_11
REMARK   10  A    between atoms: C_11  and  C_12
REMARK   11  A    between atoms: C_12  and  C_13
REMARK   12  A    between atoms: C_13  and  C_14
REMARK   13  A    between atoms: C_14  and  N_15
REMARK                            x       y       z     vdW  Elec       q    Type
REMARK                         _______ _______ _______ _____ _____    ______ ____
ROOT
ATOM      1  C   UNL     1       8.230   8.196  18.506  0.00  0.00    +0.000 C 
ENDROOT
BRANCH   1   2
ATOM      2  C   UNL     1       8.544   9.670  18.264  0.00  0.00    +0.000 C 
BRANCH   2   3
ATOM      3  C   UNL     1       9.607  10.200  19.228  0.00  0.00    +0.000 C 
BRANCH   3   4
ATOM      4  C   UNL     1       9.409  11.685  19.486  0.00  0.00    +0.000 C 
BRANCH   4   5
ATOM      5  O   UNL     1      10.682  12.325  19.657  0.00  0.00    +0.000 OA
BRANCH   5   6
ATOM      6  C   UNL     1      11.200  12.826  18.490  0.00  0.00    +0.000 C 
ATOM      7  O   UNL     1      11.975  12.237  17.766  0.00  0.00    +0.000 OA
BRANCH   6   8
ATOM      8  C   UNL     1      10.739  14.277  18.246  0.00  0.00    +0.000 C 
BRANCH   8   9
ATOM      9  N   UNL     1      11.120  15.086  19.442  0.00  0.00    +0.000 NA
ATOM     10  H   UNL     1      11.885  15.702  19.138  0.00  0.00    +0.000 HD
ATOM     11  H   UNL     1      11.555  14.463  20.122  0.00  0.00    +0.000 HD
ENDBRANCH   8   9
BRANCH   8  13
ATOM     12  C   UNL     1      10.941  16.345  16.728  0.00  0.00    +0.000 C 
ATOM     13  C   UNL     1      11.362  14.901  16.977  0.00  0.00    +0.000 C 
BRANCH  13  14
ATOM     14  O   UNL     1      11.108  14.093  15.821  0.00  0.00    +0.000 OA
ATOM     15  H   UNL     1      11.371  13.177  16.003  0.00  0.00    +0.000 HD
ENDBRANCH  13  14
ENDBRANCH   8  13
ENDBRANCH   6   8
ENDBRANCH   5   6
ENDBRANCH   4   5
ENDBRANCH   3   4
ENDBRANCH   2   3
ENDBRANCH   1   2
BRANCH   1  16
ATOM     16  C   UNL     1       7.703   7.534  17.232  0.00  0.00    +0.000 C 
BRANCH  16  17
ATOM     17  C   UNL     1       7.705   6.007  17.337  0.00  0.00    +0.000 C 
BRANCH  17  18
ATOM     18  N   UNL     1       6.365   5.450  17.487  0.00  0.00    +0.000 N 
ATOM     19  C   UNL     1       5.616   5.122  16.382  0.00  0.00    +0.000 A 
ATOM     20  N   UNL     1       4.449   4.577  16.410  0.00  0.00    +0.000 NA
ATOM     21  C   UNL     1       3.909   4.257  17.661  0.00  0.00    +0.000 A 
ATOM     22  C   UNL     1       2.679   3.600  17.710  0.00  0.00    +0.000 A 
ATOM     23  C   UNL     1       2.160   3.155  18.931  0.00  0.00    +0.000 A 
ATOM     24 BR   UNL     1       0.529   2.184  18.883  0.00  0.00    +0.000 Br
ATOM     25  C   UNL     1       2.861   3.399  20.119  0.00  0.00    +0.000 A 
ATOM     26 CL   UNL     1       2.315   2.835  21.657  0.00  0.00    +0.000 Cl
ATOM     27  C   UNL     1       4.070   4.097  20.081  0.00  0.00    +0.000 A 
ATOM     28  C   UNL     1       4.588   4.512  18.850  0.00  0.00    +0.000 A 
ATOM     29  C   UNL     1       5.903   5.173  18.767  0.00  0.00    +0.000 A 
ATOM     30  O   UNL     1       6.525   5.405  19.801  0.00  0.00    +0.000 OA
ENDBRANCH  17  18
ENDBRANCH  16  17
ENDBRANCH   1  16
TORSDOF 12
ENDMDL
MODEL 6
REMARK VINA RESULT:      -6.4      2.220      3.672
REMARK  Name = 
REMARK  13 active torsions:
REMARK  status: ('A' for Active; 'I' for Inactive)
REMARK    1  A    between atoms: C_1  and  C_2
REMARK    2  A    between atoms: C_2  and  O_3
REMARK    3  A    between atoms: C_2  and  C_4
REMARK    4  A    between atoms: C_4  and  N_5
REMARK    5  A    between atoms: C_4  and  C_6
REMARK    6  A    between atoms: C_6  and  O_8
REMARK    7  A    between atoms: O_8  and  C_9
REMARK    8  A    between atoms: C_9  and  C_10
REMARK    9  A    between atoms: C_10  and  C_11
REMARK   10  A    between atoms: C_11  and  C_12
REMARK   11  A    between atoms: C_12  and  C_13
REMARK   12  A    between atoms: C_13  and  C_14
REMARK   13  A    between atoms: C_14  and  N_15
REMARK                            x       y       z     vdW  Elec       q    Type
REMARK                         _______ _______ _______ _____ _____    ______ ____
ROOT
ATOM      1  C   UNL     1       5.802   4.397  18.577  0.00  0.00    +0.000 C 
ENDROOT
BRANCH   1   2
ATOM      2  C   UNL     1       6.611   5.439  19.345  0.00  0.00    +0.000 C 
BRANCH   2   3
ATOM      3  C   UNL     1       7.736   6.036  18.499  0.00  0.00    +0.000 C 
BRANCH   3   4
ATOM      4  C   UNL     1       7.179   6.699  17.250  0.00  0.00    +0.000 C 
BRANCH   4   5
ATOM      5  O   UNL     1       7.445   5.879  16.102  0.00  0.00    +0.000 OA
BRANCH   5   6
ATOM      6  C   UNL     1       6.423   5.879  15.186  0.00  0.00    +0.000 C 
ATOM      7  O   UNL     1       5.288   6.239  15.413  0.00  0.00    +0.000 OA
BRANCH   6   8
ATOM      8  C   UNL     1       6.876   5.283  13.839  0.00  0.00    +0.000 C 
BRANCH   8   9
ATOM      9  N   UNL     1       8.338   5.550  13.687  0.00  0.00    +0.000 NA
ATOM     10  H   UNL     1       8.590   6.193  14.448  0.00  0.00    +0.000 HD
ATOM     11  H   UNL     1       8.475   6.098  12.839  0.00  0.00    +0.000 HD
ENDBRANCH   8   9
BRANCH   8  13
ATOM     12  C   UNL     1       5.735   3.370  12.550  0.00  0.00    +0.000 C 
ATOM     13  C   UNL     1       6.612   3.764  13.733  0.00  0.00    +0.000 C 
BRANCH  13  14
ATOM     14  O   UNL     1       6.078   3.242  14.955  0.00  0.00    +0.000 OA
ATOM     15  H   UNL     1       5.222   2.821  14.780  0.00  0.00    +0.000 HD
ENDBRANCH  13  14
ENDBRANCH   8  13
ENDBRANCH   6   8
ENDBRANCH   5   6
ENDBRANCH   4   5
ENDBRANCH   3   4
ENDBRANCH   2   3
ENDBRANCH   1   2
BRANCH   1  16
ATOM     16  C   UNL     1       4.577   3.958  19.379  0.00  0.00    +0.000 C 
BRANCH  16  17
ATOM     17  C   UNL     1       3.269   4.291  18.654  0.00  0.00    +0.000 C 
BRANCH  17  18
ATOM     18  N   UNL     1       2.836   5.666  18.876  0.00  0.00    +0.000 N 
ATOM     19  C   UNL     1       2.933   6.601  17.872  0.00  0.00    +0.000 A 
ATOM     20  N   UNL     1       2.530   7.822  17.952  0.00  0.00    +0.000 NA
ATOM     21  C   UNL     1       1.909   8.226  19.138  0.00  0.00    +0.000 A 
ATOM     22  C   UNL     1       1.400   9.523  19.217  0.00  0.00    +0.000 A 
ATOM     23  C   UNL     1       0.666   9.931  20.338  0.00  0.00    +0.000 A 
ATOM     24 BR   UNL     1      -0.070  11.681  20.308  0.00  0.00    +0.000 Br
ATOM     25  C   UNL     1       0.470   9.045  21.405  0.00  0.00    +0.000 A 
ATOM     26 CL   UNL     1      -0.467   9.453  22.796  0.00  0.00    +0.000 Cl
ATOM     27  C   UNL     1       1.018   7.761  21.352  0.00  0.00    +0.000 A 
ATOM     28  C   UNL     1       1.725   7.360  20.214  0.00  0.00    +0.000 A 
ATOM     29  C   UNL     1       2.239   5.985  20.088  0.00  0.00    +0.000 A 
ATOM     30  O   UNL     1       2.086   5.199  21.020  0.00  0.00    +0.000 OA
ENDBRANCH  17  18
ENDBRANCH  16  17
ENDBRANCH   1  16
TORSDOF 12
ENDMDL
MODEL 7
REMARK VINA RESULT:      -6.4      2.179      2.772
REMARK  Name = 
REMARK  13 active torsions:
REMARK  status: ('A' for Active; 'I' for Inactive)
REMARK    1  A    between atoms: C_1  and  C_2
REMARK    2  A    between atoms: C_2  and  O_3
REMARK    3  A    between atoms: C_2  and  C_4
REMARK    4  A    between atoms: C_4  and  N_5
REMARK    5  A    between atoms: C_4  and  C_6
REMARK    6  A    between atoms: C_6  and  O_8
REMARK    7  A    between atoms: O_8  and  C_9
REMARK    8  A    between atoms: C_9  and  C_10
REMARK    9  A    between atoms: C_10  and  C_11
REMARK   10  A    between atoms: C_11  and  C_12
REMARK   11  A    between atoms: C_12  and  C_13
REMARK   12  A    between atoms: C_13  and  C_14
REMARK   13  A    between atoms: C_14  and  N_15
REMARK                            x       y       z     vdW  Elec       q    Type
REMARK                         _______ _______ _______ _____ _____    ______ ____
ROOT
ATOM      1  C   UNL     1       1.477   4.263  18.307  0.00  0.00    +0.000 C 
ENDROOT
BRANCH   1   2
ATOM      2  C   UNL     1       1.763   2.766  18.234  0.00  0.00    +0.000 C 
BRANCH   2   3
ATOM      3  C   UNL     1       3.033   2.457  17.439  0.00  0.00    +0.000 C 
BRANCH   3   4
ATOM      4  C   UNL     1       3.741   3.740  17.033  0.00  0.00    +0.000 C 
BRANCH   4   5
ATOM      5  O   UNL     1       5.150   3.619  17.278  0.00  0.00    +0.000 OA
BRANCH   5   6
ATOM      6  C   UNL     1       5.515   3.987  18.548  0.00  0.00    +0.000 C 
ATOM      7  O   UNL     1       5.196   3.399  19.559  0.00  0.00    +0.000 OA
BRANCH   6   8
ATOM      8  C   UNL     1       6.321   5.301  18.542  0.00  0.00    +0.000 C 
BRANCH   8   9
ATOM      9  N   UNL     1       7.004   5.425  19.865  0.00  0.00    +0.000 NA
ATOM     10  H   UNL     1       7.392   6.375  19.898  0.00  0.00    +0.000 HD
ATOM     11  H   UNL     1       7.823   4.818  19.859  0.00  0.00    +0.000 HD
ENDBRANCH   8   9
BRANCH   8  13
ATOM     12  C   UNL     1       6.813   5.845  16.076  0.00  0.00    +0.000 C 
ATOM     13  C   UNL     1       7.370   5.360  17.409  0.00  0.00    +0.000 C 
BRANCH  13  14
ATOM     14  O   UNL     1       8.036   4.102  17.251  0.00  0.00    +0.000 OA
ATOM     15  H   UNL     1       8.409   3.824  18.103  0.00  0.00    +0.000 HD
ENDBRANCH  13  14
ENDBRANCH   8  13
ENDBRANCH   6   8
ENDBRANCH   5   6
ENDBRANCH   4   5
ENDBRANCH   3   4
ENDBRANCH   2   3
ENDBRANCH   1   2
BRANCH   1  16
ATOM     16  C   UNL     1       1.543   4.762  19.751  0.00  0.00    +0.000 C 
BRANCH  16  17
ATOM     17  C   UNL     1       2.667   5.781  19.954  0.00  0.00    +0.000 C 
BRANCH  17  18
ATOM     18  N   UNL     1       2.268   7.139  19.605  0.00  0.00    +0.000 N 
ATOM     19  C   UNL     1       2.536   7.649  18.356  0.00  0.00    +0.000 A 
ATOM     20  N   UNL     1       2.178   8.813  17.936  0.00  0.00    +0.000 NA
ATOM     21  C   UNL     1       1.424   9.614  18.800  0.00  0.00    +0.000 A 
ATOM     22  C   UNL     1       0.964  10.848  18.337  0.00  0.00    +0.000 A 
ATOM     23  C   UNL     1       0.108  11.626  19.123  0.00  0.00    +0.000 A 
ATOM     24 BR   UNL     1      -0.543  13.242  18.366  0.00  0.00    +0.000 Br
ATOM     25  C   UNL     1      -0.265  11.185  20.399  0.00  0.00    +0.000 A 
ATOM     26 CL   UNL     1      -1.359  12.061  21.407  0.00  0.00    +0.000 Cl
ATOM     27  C   UNL     1       0.230   9.973  20.886  0.00  0.00    +0.000 A 
ATOM     28  C   UNL     1       1.063   9.193  20.078  0.00  0.00    +0.000 A 
ATOM     29  C   UNL     1       1.530   7.870  20.527  0.00  0.00    +0.000 A 
ATOM     30  O   UNL     1       1.222   7.473  21.648  0.00  0.00    +0.000 OA
ENDBRANCH  17  18
ENDBRANCH  16  17
ENDBRANCH   1  16
TORSDOF 12
ENDMDL
MODEL 8
REMARK VINA RESULT:      -6.4      3.389      4.627
REMARK  Name = 
REMARK  13 active torsions:
REMARK  status: ('A' for Active; 'I' for Inactive)
REMARK    1  A    between atoms: C_1  and  C_2
REMARK    2  A    between atoms: C_2  and  O_3
REMARK    3  A    between atoms: C_2  and  C_4
REMARK    4  A    between atoms: C_4  and  N_5
REMARK    5  A    between atoms: C_4  and  C_6
REMARK    6  A    between atoms: C_6  and  O_8
REMARK    7  A    between atoms: O_8  and  C_9
REMARK    8  A    between atoms: C_9  and  C_10
REMARK    9  A    between atoms: C_10  and  C_11
REMARK   10  A    between atoms: C_11  and  C_12
REMARK   11  A    between atoms: C_12  and  C_13
REMARK   12  A    between atoms: C_13  and  C_14
REMARK   13  A    between atoms: C_14  and  N_15
REMARK                            x       y       z     vdW  Elec       q    Type
REMARK                         _______ _______ _______ _____ _____    ______ ____
ROOT
ATOM      1  C   UNL     1       6.330   4.690  18.042  0.00  0.00    +0.000 C 
ENDROOT
BRANCH   1   2
ATOM      2  C   UNL     1       5.984   4.297  16.608  0.00  0.00    +0.000 C 
BRANCH   2   3
ATOM      3  C   UNL     1       6.413   5.361  15.597  0.00  0.00    +0.000 C 
BRANCH   3   4
ATOM      4  C   UNL     1       7.076   4.721  14.388  0.00  0.00    +0.000 C 
BRANCH   4   5
ATOM      5  O   UNL     1       6.209   3.726  13.824  0.00  0.00    +0.000 OA
BRANCH   5   6
ATOM      6  C   UNL     1       6.408   3.529  12.482  0.00  0.00    +0.000 C 
ATOM      7  O   UNL     1       7.119   4.214  11.778  0.00  0.00    +0.000 OA
BRANCH   6   8
ATOM      8  C   UNL     1       5.545   2.367  11.949  0.00  0.00    +0.000 C 
BRANCH   8   9
ATOM      9  N   UNL     1       4.393   2.957  11.203  0.00  0.00    +0.000 NA
ATOM     10  H   UNL     1       4.582   3.965  11.139  0.00  0.00    +0.000 HD
ATOM     11  H   UNL     1       3.565   2.893  11.794  0.00  0.00    +0.000 HD
ENDBRANCH   8   9
BRANCH   8  13
ATOM     12  C   UNL     1       6.041  -0.065  11.273  0.00  0.00    +0.000 C 
ATOM     13  C   UNL     1       6.329   1.410  11.023  0.00  0.00    +0.000 C 
BRANCH  13  14
ATOM     14  O   UNL     1       7.737   1.668  11.079  0.00  0.00    +0.000 OA
ATOM     15  H   UNL     1       7.918   2.327  11.768  0.00  0.00    +0.000 HD
ENDBRANCH  13  14
ENDBRANCH   8  13
ENDBRANCH   6   8
ENDBRANCH   5   6
ENDBRANCH   4   5
ENDBRANCH   3   4
ENDBRANCH   2   3
ENDBRANCH   1   2
BRANCH   1  16
ATOM     16  C   UNL     1       5.226   4.257  19.007  0.00  0.00    +0.000 C 
BRANCH  16  17
ATOM     17  C   UNL     1       3.832   4.433  18.398  0.00  0.00    +0.000 C 
BRANCH  17  18
ATOM     18  N   UNL     1       3.272   5.757  18.643  0.00  0.00    +0.000 N 
ATOM     19  C   UNL     1       3.330   6.732  17.675  0.00  0.00    +0.000 A 
ATOM     20  N   UNL     1       2.819   7.910  17.776  0.00  0.00    +0.000 NA
ATOM     21  C   UNL     1       2.114   8.218  18.945  0.00  0.00    +0.000 A 
ATOM     22  C   UNL     1       1.491   9.463  19.042  0.00  0.00    +0.000 A 
ATOM     23  C   UNL     1       0.678   9.766  20.140  0.00  0.00    +0.000 A 
ATOM     24 BR   UNL     1      -0.205  11.446  20.133  0.00  0.00    +0.000 Br
ATOM     25  C   UNL     1       0.514   8.828  21.168  0.00  0.00    +0.000 A 
ATOM     26 CL   UNL     1      -0.514   9.105  22.528  0.00  0.00    +0.000 Cl
ATOM     27  C   UNL     1       1.173   7.599  21.099  0.00  0.00    +0.000 A 
ATOM     28  C   UNL     1       1.960   7.301  19.983  0.00  0.00    +0.000 A 
ATOM     29  C   UNL     1       2.598   5.980  19.837  0.00  0.00    +0.000 A 
ATOM     30  O   UNL     1       2.473   5.151  20.735  0.00  0.00    +0.000 OA
ENDBRANCH  17  18
ENDBRANCH  16  17
ENDBRANCH   1  16
TORSDOF 12
ENDMDL
MODEL 9
REMARK VINA RESULT:      -6.4      6.289      8.728
REMARK  Name = 
REMARK  13 active torsions:
REMARK  status: ('A' for Active; 'I' for Inactive)
REMARK    1  A    between atoms: C_1  and  C_2
REMARK    2  A    between atoms: C_2  and  O_3
REMARK    3  A    between atoms: C_2  and  C_4
REMARK    4  A    between atoms: C_4  and  N_5
REMARK    5  A    between atoms: C_4  and  C_6
REMARK    6  A    between atoms: C_6  and  O_8
REMARK    7  A    between atoms: O_8  and  C_9
REMARK    8  A    between atoms: C_9  and  C_10
REMARK    9  A    between atoms: C_10  and  C_11
REMARK   10  A    between atoms: C_11  and  C_12
REMARK   11  A    between atoms: C_12  and  C_13
REMARK   12  A    between atoms: C_13  and  C_14
REMARK   13  A    between atoms: C_14  and  N_15
REMARK                            x       y       z     vdW  Elec       q    Type
REMARK                         _______ _______ _______ _____ _____    ______ ____
ROOT
ATOM      1  C   UNL     1       8.974   9.208  18.611  0.00  0.00    +0.000 C 
ENDROOT
BRANCH   1   2
ATOM      2  C   UNL     1       9.208  10.717  18.613  0.00  0.00    +0.000 C 
BRANCH   2   3
ATOM      3  C   UNL     1       9.943  11.187  19.869  0.00  0.00    +0.000 C 
BRANCH   3   4
ATOM      4  C   UNL     1      11.259  11.855  19.506  0.00  0.00    +0.000 C 
BRANCH   4   5
ATOM      5  O   UNL     1      11.078  12.702  18.362  0.00  0.00    +0.000 OA
BRANCH   5   6
ATOM      6  C   UNL     1      11.262  14.033  18.636  0.00  0.00    +0.000 C 
ATOM      7  O   UNL     1      12.333  14.602  18.625  0.00  0.00    +0.000 OA
BRANCH   6   8
ATOM      8  C   UNL     1       9.940  14.712  19.046  0.00  0.00    +0.000 C 
BRANCH   8   9
ATOM      9  N   UNL     1      10.116  15.262  20.423  0.00  0.00    +0.000 NA
ATOM     10  H   UNL     1       9.575  14.650  21.046  0.00  0.00    +0.000 HD
ATOM     11  H   UNL     1       9.634  16.159  20.471  0.00  0.00    +0.000 HD
ENDBRANCH   8   9
BRANCH   8  13
ATOM     12  C   UNL     1       8.014  16.040  17.976  0.00  0.00    +0.000 C 
ATOM     13  C   UNL     1       9.522  15.845  18.083  0.00  0.00    +0.000 C 
BRANCH  13  14
ATOM     14  O   UNL     1      10.101  15.667  16.785  0.00  0.00    +0.000 OA
ATOM     15  H   UNL     1      11.049  15.877  16.823  0.00  0.00    +0.000 HD
ENDBRANCH  13  14
ENDBRANCH   8  13
ENDBRANCH   6   8
ENDBRANCH   5   6
ENDBRANCH   4   5
ENDBRANCH   3   4
ENDBRANCH   2   3
ENDBRANCH   1   2
BRANCH   1  16
ATOM     16  C   UNL     1       7.725   8.851  17.804  0.00  0.00    +0.000 C 
BRANCH  16  17
ATOM     17  C   UNL     1       7.840   7.469  17.153  0.00  0.00    +0.000 C 
BRANCH  17  18
ATOM     18  N   UNL     1       6.943   6.487  17.752  0.00  0.00    +0.000 N 
ATOM     19  C   UNL     1       7.259   5.889  18.950  0.00  0.00    +0.000 A 
ATOM     20  N   UNL     1       6.512   5.054  19.583  0.00  0.00    +0.000 NA
ATOM     21  C   UNL     1       5.260   4.753  19.035  0.00  0.00    +0.000 A 
ATOM     22  C   UNL     1       4.406   3.907  19.743  0.00  0.00    +0.000 A 
ATOM     23  C   UNL     1       3.102   3.675  19.291  0.00  0.00    +0.000 A 
ATOM     24 BR   UNL     1       1.984   2.589  20.375  0.00  0.00    +0.000 Br
ATOM     25  C   UNL     1       2.658   4.267  18.102  0.00  0.00    +0.000 A 
ATOM     26 CL   UNL     1       1.049   4.074  17.506  0.00  0.00    +0.000 Cl
ATOM     27  C   UNL     1       3.525   5.077  17.364  0.00  0.00    +0.000 A 
ATOM     28  C   UNL     1       4.816   5.321  17.843  0.00  0.00    +0.000 A 
ATOM     29  C   UNL     1       5.725   6.240  17.135  0.00  0.00    +0.000 A 
ATOM     30  O   UNL     1       5.355   6.759  16.084  0.00  0.00    +0.000 OA
ENDBRANCH  17  18
ENDBRANCH  16  17
ENDBRANCH   1  16
TORSDOF 12
ENDMDL
