MODEL 1
REMARK VINA RESULT:      -6.9      0.000      0.000
REMARK  Name = 
REMARK  6 active torsions:
REMARK  status: ('A' for Active; 'I' for Inactive)
REMARK    1  A    between atoms: C_1  and  C_2
REMARK    2  A    between atoms: C_2  and  O_3
REMARK    3  A    between atoms: C_2  and  C_15
REMARK    4  A    between atoms: O_3  and  C_4
REMARK    5  A    between atoms: C_4  and  C_6
REMARK    6  A    between atoms: C_10  and  C_11
REMARK                            x       y       z     vdW  Elec       q    Type
REMARK                         _______ _______ _______ _____ _____    ______ ____
ROOT
ATOM      1  C   UNL     1       4.481   4.967  17.606  0.00  0.00    +0.000 A 
ATOM      2  C   UNL     1       5.340   4.876  18.707  0.00  0.00    +0.000 A 
ATOM      3  C   UNL     1       6.717   4.743  18.515  0.00  0.00    +0.000 A 
ATOM      4  C   UNL     1       7.243   4.680  17.221  0.00  0.00    +0.000 A 
ATOM      5  C   UNL     1       6.393   4.764  16.110  0.00  0.00    +0.000 A 
ATOM      6  C   UNL     1       5.017   4.938  16.309  0.00  0.00    +0.000 A 
ENDROOT
BRANCH   5   7
ATOM      7  C   UNL     1       6.863   4.619  14.704  0.00  0.00    +0.000 C 
ATOM      8  N   UNL     1       6.332   3.620  13.939  0.00  0.00    +0.000 N 
ATOM      9  O   UNL     1       7.675   5.397  14.218  0.00  0.00    +0.000 OA
ATOM     10  H   UNL     1       5.561   3.033  14.211  0.00  0.00    +0.000 HD
ATOM     11  H   UNL     1       6.594   3.625  12.960  0.00  0.00    +0.000 HD
ENDBRANCH   5   7
BRANCH   1  12
ATOM     12  C   UNL     1       3.010   4.941  17.845  0.00  0.00    +0.000 C 
ATOM     13  O   UNL     1       2.339   5.947  18.009  0.00  0.00    +0.000 OA
BRANCH  12  14
ATOM     14  O   UNL     1       2.605   3.662  18.019  0.00  0.00    +0.000 OA
BRANCH  14  16
ATOM     15  C   UNL     1       0.783   2.239  18.653  0.00  0.00    +0.000 C 
ATOM     16  C   UNL     1       1.622   3.451  19.044  0.00  0.00    +0.000 C 
BRANCH  16  17
ATOM     17  C   UNL     1       2.376   3.175  20.323  0.00  0.00    +0.000 C 
ATOM     18  C   UNL     1       2.242   4.100  21.510  0.00  0.00    +0.000 C 
ATOM     19  C   UNL     1       1.664   2.714  21.567  0.00  0.00    +0.000 C 
ENDBRANCH  16  17
ENDBRANCH  14  16
ENDBRANCH  12  14
ENDBRANCH   1  12
TORSDOF 5
ENDMDL
MODEL 2
REMARK VINA RESULT:      -6.9      1.356      2.422
REMARK  Name = 
REMARK  6 active torsions:
REMARK  status: ('A' for Active; 'I' for Inactive)
REMARK    1  A    between atoms: C_1  and  C_2
REMARK    2  A    between atoms: C_2  and  O_3
REMARK    3  A    between atoms: C_2  and  C_15
REMARK    4  A    between atoms: O_3  and  C_4
REMARK    5  A    between atoms: C_4  and  C_6
REMARK    6  A    between atoms: C_10  and  C_11
REMARK                            x       y       z     vdW  Elec       q    Type
REMARK                         _______ _______ _______ _____ _____    ______ ____
ROOT
ATOM      1  C   UNL     1       4.740   4.877  18.079  0.00  0.00    +0.000 A 
ATOM      2  C   UNL     1       4.175   6.157  18.039  0.00  0.00    +0.000 A 
ATOM      3  C   UNL     1       4.369   6.976  16.924  0.00  0.00    +0.000 A 
ATOM      4  C   UNL     1       5.145   6.529  15.851  0.00  0.00    +0.000 A 
ATOM      5  C   UNL     1       5.721   5.253  15.881  0.00  0.00    +0.000 A 
ATOM      6  C   UNL     1       5.489   4.420  16.984  0.00  0.00    +0.000 A 
ENDROOT
BRANCH   5   7
ATOM      7  C   UNL     1       6.629   4.736  14.819  0.00  0.00    +0.000 C 
ATOM      8  N   UNL     1       6.282   3.586  14.168  0.00  0.00    +0.000 N 
ATOM      9  O   UNL     1       7.645   5.339  14.497  0.00  0.00    +0.000 OA
ATOM     10  H   UNL     1       5.401   3.111  14.268  0.00  0.00    +0.000 HD
ATOM     11  H   UNL     1       6.866   3.330  13.380  0.00  0.00    +0.000 HD
ENDBRANCH   5   7
BRANCH   1  12
ATOM     12  C   UNL     1       4.652   4.099  19.347  0.00  0.00    +0.000 C 
ATOM     13  O   UNL     1       5.396   3.169  19.617  0.00  0.00    +0.000 OA
BRANCH  12  14
ATOM     14  O   UNL     1       3.543   4.470  20.027  0.00  0.00    +0.000 OA
BRANCH  14  16
ATOM     15  C   UNL     1       2.121   3.507  21.699  0.00  0.00    +0.000 C 
ATOM     16  C   UNL     1       2.567   3.439  20.242  0.00  0.00    +0.000 C 
BRANCH  16  17
ATOM     17  C   UNL     1       1.406   3.738  19.325  0.00  0.00    +0.000 C 
ATOM     18  C   UNL     1       1.432   3.293  17.881  0.00  0.00    +0.000 C 
ATOM     19  C   UNL     1       0.483   2.647  18.851  0.00  0.00    +0.000 C 
ENDBRANCH  16  17
ENDBRANCH  14  16
ENDBRANCH  12  14
ENDBRANCH   1  12
TORSDOF 5
ENDMDL
MODEL 3
REMARK VINA RESULT:      -6.9      1.412      1.862
REMARK  Name = 
REMARK  6 active torsions:
REMARK  status: ('A' for Active; 'I' for Inactive)
REMARK    1  A    between atoms: C_1  and  C_2
REMARK    2  A    between atoms: C_2  and  O_3
REMARK    3  A    between atoms: C_2  and  C_15
REMARK    4  A    between atoms: O_3  and  C_4
REMARK    5  A    between atoms: C_4  and  C_6
REMARK    6  A    between atoms: C_10  and  C_11
REMARK                            x       y       z     vdW  Elec       q    Type
REMARK                         _______ _______ _______ _____ _____    ______ ____
ROOT
ATOM      1  C   UNL     1       4.833   4.608  17.536  0.00  0.00    +0.000 A 
ATOM      2  C   UNL     1       4.361   5.920  17.652  0.00  0.00    +0.000 A 
ATOM      3  C   UNL     1       4.614   6.850  16.642  0.00  0.00    +0.000 A 
ATOM      4  C   UNL     1       5.358   6.480  15.517  0.00  0.00    +0.000 A 
ATOM      5  C   UNL     1       5.842   5.172  15.392  0.00  0.00    +0.000 A 
ATOM      6  C   UNL     1       5.549   4.232  16.390  0.00  0.00    +0.000 A 
ENDROOT
BRANCH   5   7
ATOM      7  C   UNL     1       6.713   4.722  14.270  0.00  0.00    +0.000 C 
ATOM      8  N   UNL     1       6.358   3.597  13.580  0.00  0.00    +0.000 N 
ATOM      9  O   UNL     1       7.704   5.359  13.935  0.00  0.00    +0.000 OA
ATOM     10  H   UNL     1       5.490   3.101  13.695  0.00  0.00    +0.000 HD
ATOM     11  H   UNL     1       6.912   3.389  12.758  0.00  0.00    +0.000 HD
ENDBRANCH   5   7
BRANCH   1  12
ATOM     12  C   UNL     1       4.688   3.692  18.703  0.00  0.00    +0.000 C 
ATOM     13  O   UNL     1       5.543   3.561  19.564  0.00  0.00    +0.000 OA
BRANCH  12  14
ATOM     14  O   UNL     1       3.576   2.937  18.547  0.00  0.00    +0.000 OA
BRANCH  14  16
ATOM     15  C   UNL     1       1.288   3.495  18.100  0.00  0.00    +0.000 C 
ATOM     16  C   UNL     1       2.383   3.447  19.161  0.00  0.00    +0.000 C 
BRANCH  16  17
ATOM     17  C   UNL     1       2.006   2.478  20.257  0.00  0.00    +0.000 C 
ATOM     18  C   UNL     1       2.576   2.631  21.648  0.00  0.00    +0.000 C 
ATOM     19  C   UNL     1       1.118   2.895  21.399  0.00  0.00    +0.000 C 
ENDBRANCH  16  17
ENDBRANCH  14  16
ENDBRANCH  12  14
ENDBRANCH   1  12
TORSDOF 5
ENDMDL
MODEL 4
REMARK VINA RESULT:      -6.8      1.460      1.897
REMARK  Name = 
REMARK  6 active torsions:
REMARK  status: ('A' for Active; 'I' for Inactive)
REMARK    1  A    between atoms: C_1  and  C_2
REMARK    2  A    between atoms: C_2  and  O_3
REMARK    3  A    between atoms: C_2  and  C_15
REMARK    4  A    between atoms: O_3  and  C_4
REMARK    5  A    between atoms: C_4  and  C_6
REMARK    6  A    between atoms: C_10  and  C_11
REMARK                            x       y       z     vdW  Elec       q    Type
REMARK                         _______ _______ _______ _____ _____    ______ ____
ROOT
ATOM      1  C   UNL     1       4.483   4.020  17.428  0.00  0.00    +0.000 A 
ATOM      2  C   UNL     1       5.358   4.269  18.492  0.00  0.00    +0.000 A 
ATOM      3  C   UNL     1       6.675   4.659  18.241  0.00  0.00    +0.000 A 
ATOM      4  C   UNL     1       7.133   4.783  16.926  0.00  0.00    +0.000 A 
ATOM      5  C   UNL     1       6.269   4.531  15.853  0.00  0.00    +0.000 A 
ATOM      6  C   UNL     1       4.937   4.180  16.110  0.00  0.00    +0.000 A 
ENDROOT
BRANCH   5   7
ATOM      7  C   UNL     1       6.701   4.558  14.427  0.00  0.00    +0.000 C 
ATOM      8  N   UNL     1       7.675   5.442  14.058  0.00  0.00    +0.000 N 
ATOM      9  O   UNL     1       6.232   3.783  13.602  0.00  0.00    +0.000 OA
ATOM     10  H   UNL     1       8.211   6.007  14.695  0.00  0.00    +0.000 HD
ATOM     11  H   UNL     1       8.018   5.352  13.109  0.00  0.00    +0.000 HD
ENDBRANCH   5   7
BRANCH   1  12
ATOM     12  C   UNL     1       3.140   3.448  17.729  0.00  0.00    +0.000 C 
ATOM     13  O   UNL     1       2.296   3.230  16.874  0.00  0.00    +0.000 OA
BRANCH  12  14
ATOM     14  O   UNL     1       2.966   3.387  19.069  0.00  0.00    +0.000 OA
BRANCH  14  16
ATOM     15  C   UNL     1       1.130   3.237  20.602  0.00  0.00    +0.000 C 
ATOM     16  C   UNL     1       1.848   4.123  19.589  0.00  0.00    +0.000 C 
BRANCH  16  17
ATOM     17  C   UNL     1       2.410   5.347  20.271  0.00  0.00    +0.000 C 
ATOM     18  C   UNL     1       2.540   6.653  19.522  0.00  0.00    +0.000 C 
ATOM     19  C   UNL     1       1.532   6.516  20.628  0.00  0.00    +0.000 C 
ENDBRANCH  16  17
ENDBRANCH  14  16
ENDBRANCH  12  14
ENDBRANCH   1  12
TORSDOF 5
ENDMDL
MODEL 5
REMARK VINA RESULT:      -6.8      1.590      2.053
REMARK  Name = 
REMARK  6 active torsions:
REMARK  status: ('A' for Active; 'I' for Inactive)
REMARK    1  A    between atoms: C_1  and  C_2
REMARK    2  A    between atoms: C_2  and  O_3
REMARK    3  A    between atoms: C_2  and  C_15
REMARK    4  A    between atoms: O_3  and  C_4
REMARK    5  A    between atoms: C_4  and  C_6
REMARK    6  A    between atoms: C_10  and  C_11
REMARK                            x       y       z     vdW  Elec       q    Type
REMARK                         _______ _______ _______ _____ _____    ______ ____
ROOT
ATOM      1  C   UNL     1       5.178   4.965  17.782  0.00  0.00    +0.000 A 
ATOM      2  C   UNL     1       4.527   6.203  17.735  0.00  0.00    +0.000 A 
ATOM      3  C   UNL     1       4.550   6.965  16.566  0.00  0.00    +0.000 A 
ATOM      4  C   UNL     1       5.242   6.506  15.441  0.00  0.00    +0.000 A 
ATOM      5  C   UNL     1       5.903   5.271  15.477  0.00  0.00    +0.000 A 
ATOM      6  C   UNL     1       5.842   4.492  16.640  0.00  0.00    +0.000 A 
ENDROOT
BRANCH   5   7
ATOM      7  C   UNL     1       6.732   4.751  14.353  0.00  0.00    +0.000 C 
ATOM      8  N   UNL     1       6.346   3.592  13.742  0.00  0.00    +0.000 N 
ATOM      9  O   UNL     1       7.715   5.359  13.948  0.00  0.00    +0.000 OA
ATOM     10  H   UNL     1       5.479   3.111  13.914  0.00  0.00    +0.000 HD
ATOM     11  H   UNL     1       6.870   3.332  12.914  0.00  0.00    +0.000 HD
ENDBRANCH   5   7
BRANCH   1  12
ATOM     12  C   UNL     1       5.273   4.258  19.091  0.00  0.00    +0.000 C 
ATOM     13  O   UNL     1       6.063   4.571  19.967  0.00  0.00    +0.000 OA
BRANCH  12  14
ATOM     14  O   UNL     1       4.493   3.153  19.063  0.00  0.00    +0.000 OA
BRANCH  14  16
ATOM     15  C   UNL     1       2.479   2.124  18.269  0.00  0.00    +0.000 C 
ATOM     16  C   UNL     1       3.088   3.383  18.878  0.00  0.00    +0.000 C 
BRANCH  16  17
ATOM     17  C   UNL     1       2.503   3.637  20.247  0.00  0.00    +0.000 C 
ATOM     18  C   UNL     1       1.925   4.988  20.597  0.00  0.00    +0.000 C 
ATOM     19  C   UNL     1       1.020   3.799  20.445  0.00  0.00    +0.000 C 
ENDBRANCH  16  17
ENDBRANCH  14  16
ENDBRANCH  12  14
ENDBRANCH   1  12
TORSDOF 5
ENDMDL
MODEL 6
REMARK VINA RESULT:      -6.7      1.658      2.101
REMARK  Name = 
REMARK  6 active torsions:
REMARK  status: ('A' for Active; 'I' for Inactive)
REMARK    1  A    between atoms: C_1  and  C_2
REMARK    2  A    between atoms: C_2  and  O_3
REMARK    3  A    between atoms: C_2  and  C_15
REMARK    4  A    between atoms: O_3  and  C_4
REMARK    5  A    between atoms: C_4  and  C_6
REMARK    6  A    between atoms: C_10  and  C_11
REMARK                            x       y       z     vdW  Elec       q    Type
REMARK                         _______ _______ _______ _____ _____    ______ ____
ROOT
ATOM      1  C   UNL     1       4.162   4.296  16.997  0.00  0.00    +0.000 A 
ATOM      2  C   UNL     1       3.933   5.613  17.413  0.00  0.00    +0.000 A 
ATOM      3  C   UNL     1       4.585   6.673  16.780  0.00  0.00    +0.000 A 
ATOM      4  C   UNL     1       5.487   6.423  15.741  0.00  0.00    +0.000 A 
ATOM      5  C   UNL     1       5.729   5.110  15.320  0.00  0.00    +0.000 A 
ATOM      6  C   UNL     1       5.040   4.053  15.931  0.00  0.00    +0.000 A 
ENDROOT
BRANCH   5   7
ATOM      7  C   UNL     1       6.736   4.753  14.280  0.00  0.00    +0.000 C 
ATOM      8  N   UNL     1       6.476   3.693  13.458  0.00  0.00    +0.000 N 
ATOM      9  O   UNL     1       7.757   5.412  14.126  0.00  0.00    +0.000 OA
ATOM     10  H   UNL     1       5.604   3.193  13.421  0.00  0.00    +0.000 HD
ATOM     11  H   UNL     1       7.129   3.554  12.696  0.00  0.00    +0.000 HD
ENDBRANCH   5   7
BRANCH   1  12
ATOM     12  C   UNL     1       3.578   3.184  17.799  0.00  0.00    +0.000 C 
ATOM     13  O   UNL     1       2.635   2.507  17.421  0.00  0.00    +0.000 OA
BRANCH  12  14
ATOM     14  O   UNL     1       4.134   3.178  19.032  0.00  0.00    +0.000 OA
BRANCH  14  16
ATOM     15  C   UNL     1       4.559   1.741  20.903  0.00  0.00    +0.000 C 
ATOM     16  C   UNL     1       3.484   2.349  20.007  0.00  0.00    +0.000 C 
BRANCH  16  17
ATOM     17  C   UNL     1       2.581   3.251  20.815  0.00  0.00    +0.000 C 
ATOM     18  C   UNL     1       1.098   3.307  20.530  0.00  0.00    +0.000 C 
ATOM     19  C   UNL     1       1.597   2.688  21.805  0.00  0.00    +0.000 C 
ENDBRANCH  16  17
ENDBRANCH  14  16
ENDBRANCH  12  14
ENDBRANCH   1  12
TORSDOF 5
ENDMDL
MODEL 7
REMARK VINA RESULT:      -6.7      2.656      3.342
REMARK  Name = 
REMARK  6 active torsions:
REMARK  status: ('A' for Active; 'I' for Inactive)
REMARK    1  A    between atoms: C_1  and  C_2
REMARK    2  A    between atoms: C_2  and  O_3
REMARK    3  A    between atoms: C_2  and  C_15
REMARK    4  A    between atoms: O_3  and  C_4
REMARK    5  A    between atoms: C_4  and  C_6
REMARK    6  A    between atoms: C_10  and  C_11
REMARK                            x       y       z     vdW  Elec       q    Type
REMARK                         _______ _______ _______ _____ _____    ______ ____
ROOT
ATOM      1  C   UNL     1       4.625   3.911  17.905  0.00  0.00    +0.000 A 
ATOM      2  C   UNL     1       4.317   4.593  16.722  0.00  0.00    +0.000 A 
ATOM      3  C   UNL     1       5.094   5.679  16.315  0.00  0.00    +0.000 A 
ATOM      4  C   UNL     1       6.173   6.104  17.097  0.00  0.00    +0.000 A 
ATOM      5  C   UNL     1       6.487   5.433  18.286  0.00  0.00    +0.000 A 
ATOM      6  C   UNL     1       5.728   4.319  18.668  0.00  0.00    +0.000 A 
ENDROOT
BRANCH   5   7
ATOM      7  C   UNL     1       7.564   5.874  19.217  0.00  0.00    +0.000 C 
ATOM      8  N   UNL     1       8.310   6.967  18.879  0.00  0.00    +0.000 N 
ATOM      9  O   UNL     1       7.759   5.305  20.284  0.00  0.00    +0.000 OA
ATOM     10  H   UNL     1       8.123   7.574  18.099  0.00  0.00    +0.000 HD
ATOM     11  H   UNL     1       8.954   7.299  19.588  0.00  0.00    +0.000 HD
ENDBRANCH   5   7
BRANCH   1  12
ATOM     12  C   UNL     1       3.679   2.867  18.392  0.00  0.00    +0.000 C 
ATOM     13  O   UNL     1       3.272   1.952  17.695  0.00  0.00    +0.000 OA
BRANCH  12  14
ATOM     14  O   UNL     1       3.235   3.202  19.625  0.00  0.00    +0.000 OA
BRANCH  14  16
ATOM     15  C   UNL     1       1.027   3.413  20.535  0.00  0.00    +0.000 C 
ATOM     16  C   UNL     1       2.092   4.071  19.664  0.00  0.00    +0.000 C 
BRANCH  16  17
ATOM     17  C   UNL     1       2.550   5.368  20.287  0.00  0.00    +0.000 C 
ATOM     18  C   UNL     1       2.550   6.648  19.486  0.00  0.00    +0.000 C 
ATOM     19  C   UNL     1       1.574   6.466  20.614  0.00  0.00    +0.000 C 
ENDBRANCH  16  17
ENDBRANCH  14  16
ENDBRANCH  12  14
ENDBRANCH   1  12
TORSDOF 5
ENDMDL
MODEL 8
REMARK VINA RESULT:      -6.7      1.398      2.060
REMARK  Name = 
REMARK  6 active torsions:
REMARK  status: ('A' for Active; 'I' for Inactive)
REMARK    1  A    between atoms: C_1  and  C_2
REMARK    2  A    between atoms: C_2  and  O_3
REMARK    3  A    between atoms: C_2  and  C_15
REMARK    4  A    between atoms: O_3  and  C_4
REMARK    5  A    between atoms: C_4  and  C_6
REMARK    6  A    between atoms: C_10  and  C_11
REMARK                            x       y       z     vdW  Elec       q    Type
REMARK                         _______ _______ _______ _____ _____    ______ ____
ROOT
ATOM      1  C   UNL     1       5.467   4.500  18.596  0.00  0.00    +0.000 A 
ATOM      2  C   UNL     1       6.289   5.377  19.313  0.00  0.00    +0.000 A 
ATOM      3  C   UNL     1       7.306   6.077  18.662  0.00  0.00    +0.000 A 
ATOM      4  C   UNL     1       7.522   5.891  17.293  0.00  0.00    +0.000 A 
ATOM      5  C   UNL     1       6.711   5.012  16.565  0.00  0.00    +0.000 A 
ATOM      6  C   UNL     1       5.666   4.343  17.216  0.00  0.00    +0.000 A 
ENDROOT
BRANCH   5   7
ATOM      7  C   UNL     1       6.930   4.693  15.126  0.00  0.00    +0.000 C 
ATOM      8  N   UNL     1       6.255   3.637  14.583  0.00  0.00    +0.000 N 
ATOM      9  O   UNL     1       7.661   5.380  14.424  0.00  0.00    +0.000 OA
ATOM     10  H   UNL     1       5.531   3.115  15.047  0.00  0.00    +0.000 HD
ATOM     11  H   UNL     1       6.345   3.523  13.580  0.00  0.00    +0.000 HD
ENDBRANCH   5   7
BRANCH   1  12
ATOM     12  C   UNL     1       4.504   3.648  19.350  0.00  0.00    +0.000 C 
ATOM     13  O   UNL     1       4.821   2.611  19.910  0.00  0.00    +0.000 OA
BRANCH  12  14
ATOM     14  O   UNL     1       3.247   4.110  19.158  0.00  0.00    +0.000 OA
BRANCH  14  16
ATOM     15  C   UNL     1       2.448   6.289  19.759  0.00  0.00    +0.000 C 
ATOM     16  C   UNL     1       2.685   4.862  20.244  0.00  0.00    +0.000 C 
BRANCH  16  17
ATOM     17  C   UNL     1       1.371   4.205  20.596  0.00  0.00    +0.000 C 
ATOM     18  C   UNL     1       0.902   2.977  19.851  0.00  0.00    +0.000 C 
ATOM     19  C   UNL     1       1.326   2.869  21.289  0.00  0.00    +0.000 C 
ENDBRANCH  16  17
ENDBRANCH  14  16
ENDBRANCH  12  14
ENDBRANCH   1  12
TORSDOF 5
ENDMDL
MODEL 9
REMARK VINA RESULT:      -6.7      1.971      2.349
REMARK  Name = 
REMARK  6 active torsions:
REMARK  status: ('A' for Active; 'I' for Inactive)
REMARK    1  A    between atoms: C_1  and  C_2
REMARK    2  A    between atoms: C_2  and  O_3
REMARK    3  A    between atoms: C_2  and  C_15
REMARK    4  A    between atoms: O_3  and  C_4
REMARK    5  A    between atoms: C_4  and  C_6
REMARK    6  A    between atoms: C_10  and  C_11
REMARK                            x       y       z     vdW  Elec       q    Type
REMARK                         _______ _______ _______ _____ _____    ______ ____
ROOT
ATOM      1  C   UNL     1       4.381   4.884  17.303  0.00  0.00    +0.000 A 
ATOM      2  C   UNL     1       4.726   4.056  16.229  0.00  0.00    +0.000 A 
ATOM      3  C   UNL     1       6.012   4.108  15.687  0.00  0.00    +0.000 A 
ATOM      4  C   UNL     1       6.956   5.002  16.201  0.00  0.00    +0.000 A 
ATOM      5  C   UNL     1       6.621   5.840  17.273  0.00  0.00    +0.000 A 
ATOM      6  C   UNL     1       5.342   5.754  17.839  0.00  0.00    +0.000 A 
ENDROOT
BRANCH   5   7
ATOM      7  C   UNL     1       7.539   6.877  17.822  0.00  0.00    +0.000 C 
ATOM      8  N   UNL     1       7.636   8.073  17.170  0.00  0.00    +0.000 N 
ATOM      9  O   UNL     1       8.167   6.691  18.857  0.00  0.00    +0.000 OA
ATOM     10  H   UNL     1       7.051   8.360  16.403  0.00  0.00    +0.000 HD
ATOM     11  H   UNL     1       8.182   8.788  17.635  0.00  0.00    +0.000 HD
ENDBRANCH   5   7
BRANCH   1  12
ATOM     12  C   UNL     1       2.959   4.921  17.746  0.00  0.00    +0.000 C 
ATOM     13  O   UNL     1       2.363   5.954  18.005  0.00  0.00    +0.000 OA
BRANCH  12  14
ATOM     14  O   UNL     1       2.525   3.660  17.974  0.00  0.00    +0.000 OA
BRANCH  14  16
ATOM     15  C   UNL     1       0.679   2.319  18.707  0.00  0.00    +0.000 C 
ATOM     16  C   UNL     1       1.574   3.508  19.039  0.00  0.00    +0.000 C 
BRANCH  16  17
ATOM     17  C   UNL     1       2.364   3.233  20.296  0.00  0.00    +0.000 C 
ATOM     18  C   UNL     1       2.250   4.149  21.492  0.00  0.00    +0.000 C 
ATOM     19  C   UNL     1       1.690   2.755  21.554  0.00  0.00    +0.000 C 
ENDBRANCH  16  17
ENDBRANCH  14  16
ENDBRANCH  12  14
ENDBRANCH   1  12
TORSDOF 5
ENDMDL
