MODEL 1
REMARK VINA RESULT:      -8.2      0.000      0.000
REMARK  Name = 
REMARK  8 active torsions:
REMARK  status: ('A' for Active; 'I' for Inactive)
REMARK    1  A    between atoms: C_1  and  O_2
REMARK    2  A    between atoms: O_2  and  C_3
REMARK    3  A    between atoms: C_5  and  C_6
REMARK    4  A    between atoms: N_7  and  N_8
REMARK    5  A    between atoms: N_11  and  C_12
REMARK    6  A    between atoms: C_24  and  O_25
REMARK    7  A    between atoms: O_25  and  C_26
REMARK    8  A    between atoms: C_26  and  C_27
REMARK                            x       y       z     vdW  Elec       q    Type
REMARK                         _______ _______ _______ _____ _____    ______ ____
ROOT
ATOM      1  C   UNL     1       8.305   8.747  18.390  0.00  0.00    +0.000 C 
ATOM      2  N   UNL     1       7.857   8.062  17.379  0.00  0.00    +0.000 NA
ENDROOT
BRANCH   1   5
ATOM      3  C   UNL     1      10.622  11.725  18.290  0.00  0.00    +0.000 A 
ATOM      4  C   UNL     1      10.088  10.473  18.631  0.00  0.00    +0.000 A 
ATOM      5  C   UNL     1       8.788  10.139  18.262  0.00  0.00    +0.000 A 
ATOM      6  C   UNL     1       7.960  11.099  17.682  0.00  0.00    +0.000 A 
ATOM      7  C   UNL     1       8.463  12.378  17.420  0.00  0.00    +0.000 A 
ATOM      8  C   UNL     1       9.795  12.706  17.709  0.00  0.00    +0.000 A 
BRANCH   3  10
ATOM      9  C   UNL     1      12.333  12.318  19.808  0.00  0.00    +0.000 C 
ATOM     10  O   UNL     1      11.955  11.986  18.471  0.00  0.00    +0.000 OA
ENDBRANCH   3  10
BRANCH   8  11
ATOM     11  O   UNL     1      10.163  13.958  17.271  0.00  0.00    +0.000 OA
BRANCH  11  12
ATOM     12  C   UNL     1      10.063  15.023  18.214  0.00  0.00    +0.000 C 
BRANCH  12  13
ATOM     13  C   UNL     1      10.143  16.413  17.571  0.00  0.00    +0.000 C 
ATOM     14  N   UNL     1      11.216  16.670  16.768  0.00  0.00    +0.000 N 
ATOM     15  O   UNL     1       9.298  17.287  17.768  0.00  0.00    +0.000 OA
ATOM     16  H   UNL     1      11.949  15.985  16.644  0.00  0.00    +0.000 HD
ATOM     17  H   UNL     1      11.310  17.594  16.373  0.00  0.00    +0.000 HD
ENDBRANCH  12  13
ENDBRANCH  11  12
ENDBRANCH   8  11
ENDBRANCH   1   5
BRANCH   2  18
ATOM     18  N   UNL     1       7.494   6.745  17.618  0.00  0.00    +0.000 N 
ATOM     19  C   UNL     1       6.171   6.369  17.819  0.00  0.00    +0.000 C 
ATOM     20  O   UNL     1       5.215   7.117  17.678  0.00  0.00    +0.000 OA
ATOM     21  N   UNL     1       6.043   5.037  18.188  0.00  0.00    +0.000 N 
ATOM     22  H   UNL     1       8.183   6.236  18.154  0.00  0.00    +0.000 HD
ATOM     23  H   UNL     1       6.802   4.437  17.912  0.00  0.00    +0.000 HD
BRANCH  21  24
ATOM     24  C   UNL     1       4.708   4.420  18.301  0.00  0.00    +0.000 C 
ATOM     25  C   UNL     1       4.762   3.174  19.225  0.00  0.00    +0.000 C 
ATOM     26  C   UNL     1       3.378   2.522  19.345  0.00  0.00    +0.000 C 
ATOM     27  C   UNL     1       2.399   3.533  19.959  0.00  0.00    +0.000 C 
ATOM     28  C   UNL     1       2.302   4.781  19.066  0.00  0.00    +0.000 C 
ATOM     29  C   UNL     1       1.787   4.358  17.681  0.00  0.00    +0.000 C 
ATOM     30  C   UNL     1       2.763   3.362  17.046  0.00  0.00    +0.000 C 
ATOM     31  C   UNL     1       2.893   2.118  17.942  0.00  0.00    +0.000 C 
ATOM     32  C   UNL     1       4.138   4.028  16.909  0.00  0.00    +0.000 C 
ATOM     33  C   UNL     1       3.701   5.424  18.928  0.00  0.00    +0.000 C 
ENDBRANCH  21  24
ENDBRANCH   2  18
TORSDOF 7
ENDMDL
MODEL 2
REMARK VINA RESULT:      -8.2      0.994      2.324
REMARK  Name = 
REMARK  8 active torsions:
REMARK  status: ('A' for Active; 'I' for Inactive)
REMARK    1  A    between atoms: C_1  and  O_2
REMARK    2  A    between atoms: O_2  and  C_3
REMARK    3  A    between atoms: C_5  and  C_6
REMARK    4  A    between atoms: N_7  and  N_8
REMARK    5  A    between atoms: N_11  and  C_12
REMARK    6  A    between atoms: C_24  and  O_25
REMARK    7  A    between atoms: O_25  and  C_26
REMARK    8  A    between atoms: C_26  and  C_27
REMARK                            x       y       z     vdW  Elec       q    Type
REMARK                         _______ _______ _______ _____ _____    ______ ____
ROOT
ATOM      1  C   UNL     1       8.310   8.639  18.438  0.00  0.00    +0.000 C 
ATOM      2  N   UNL     1       7.803   8.023  17.410  0.00  0.00    +0.000 NA
ENDROOT
BRANCH   1   5
ATOM      3  C   UNL     1       8.522  12.333  17.694  0.00  0.00    +0.000 A 
ATOM      4  C   UNL     1       8.186  10.976  17.578  0.00  0.00    +0.000 A 
ATOM      5  C   UNL     1       8.824  10.024  18.368  0.00  0.00    +0.000 A 
ATOM      6  C   UNL     1       9.901  10.395  19.172  0.00  0.00    +0.000 A 
ATOM      7  C   UNL     1      10.296  11.735  19.224  0.00  0.00    +0.000 A 
ATOM      8  C   UNL     1       9.611  12.721  18.498  0.00  0.00    +0.000 A 
BRANCH   3  10
ATOM      9  C   UNL     1       6.609  13.718  17.790  0.00  0.00    +0.000 C 
ATOM     10  O   UNL     1       7.768  13.293  17.071  0.00  0.00    +0.000 OA
ENDBRANCH   3  10
BRANCH   8  11
ATOM     11  O   UNL     1      10.044  14.001  18.761  0.00  0.00    +0.000 OA
BRANCH  11  12
ATOM     12  C   UNL     1      10.993  14.558  17.854  0.00  0.00    +0.000 C 
BRANCH  12  13
ATOM     13  C   UNL     1      10.546  15.896  17.254  0.00  0.00    +0.000 C 
ATOM     14  N   UNL     1       9.205  16.096  17.099  0.00  0.00    +0.000 N 
ATOM     15  O   UNL     1      11.342  16.766  16.899  0.00  0.00    +0.000 OA
ATOM     16  H   UNL     1       8.540  15.368  17.329  0.00  0.00    +0.000 HD
ATOM     17  H   UNL     1       8.893  16.950  16.664  0.00  0.00    +0.000 HD
ENDBRANCH  12  13
ENDBRANCH  11  12
ENDBRANCH   8  11
ENDBRANCH   1   5
BRANCH   2  18
ATOM     18  N   UNL     1       7.414   6.705  17.591  0.00  0.00    +0.000 N 
ATOM     19  C   UNL     1       6.095   6.352  17.846  0.00  0.00    +0.000 C 
ATOM     20  O   UNL     1       5.155   7.132  17.806  0.00  0.00    +0.000 OA
ATOM     21  N   UNL     1       5.948   5.004  18.141  0.00  0.00    +0.000 N 
ATOM     22  H   UNL     1       8.117   6.145  18.054  0.00  0.00    +0.000 HD
ATOM     23  H   UNL     1       6.672   4.402  17.785  0.00  0.00    +0.000 HD
BRANCH  21  24
ATOM     24  C   UNL     1       4.604   4.416  18.294  0.00  0.00    +0.000 C 
ATOM     25  C   UNL     1       4.017   4.031  16.910  0.00  0.00    +0.000 C 
ATOM     26  C   UNL     1       2.616   3.423  17.061  0.00  0.00    +0.000 C 
ATOM     27  C   UNL     1       2.711   2.148  17.912  0.00  0.00    +0.000 C 
ATOM     28  C   UNL     1       3.276   2.486  19.302  0.00  0.00    +0.000 C 
ATOM     29  C   UNL     1       2.329   3.482  19.990  0.00  0.00    +0.000 C 
ATOM     30  C   UNL     1       2.238   4.768  19.162  0.00  0.00    +0.000 C 
ATOM     31  C   UNL     1       1.700   4.444  17.757  0.00  0.00    +0.000 C 
ATOM     32  C   UNL     1       3.637   5.382  19.035  0.00  0.00    +0.000 C 
ATOM     33  C   UNL     1       4.678   3.119  19.148  0.00  0.00    +0.000 C 
ENDBRANCH  21  24
ENDBRANCH   2  18
TORSDOF 7
ENDMDL
MODEL 3
REMARK VINA RESULT:      -8.1      1.562      2.297
REMARK  Name = 
REMARK  8 active torsions:
REMARK  status: ('A' for Active; 'I' for Inactive)
REMARK    1  A    between atoms: C_1  and  O_2
REMARK    2  A    between atoms: O_2  and  C_3
REMARK    3  A    between atoms: C_5  and  C_6
REMARK    4  A    between atoms: N_7  and  N_8
REMARK    5  A    between atoms: N_11  and  C_12
REMARK    6  A    between atoms: C_24  and  O_25
REMARK    7  A    between atoms: O_25  and  C_26
REMARK    8  A    between atoms: C_26  and  C_27
REMARK                            x       y       z     vdW  Elec       q    Type
REMARK                         _______ _______ _______ _____ _____    ______ ____
ROOT
ATOM      1  C   UNL     1       7.812   9.259  17.748  0.00  0.00    +0.000 C 
ATOM      2  N   UNL     1       8.073   8.044  17.363  0.00  0.00    +0.000 NA
ENDROOT
BRANCH   1   5
ATOM      3  C   UNL     1      10.217  12.129  18.217  0.00  0.00    +0.000 A 
ATOM      4  C   UNL     1       9.437  11.143  17.594  0.00  0.00    +0.000 A 
ATOM      5  C   UNL     1       8.831  10.144  18.351  0.00  0.00    +0.000 A 
ATOM      6  C   UNL     1       9.116  10.032  19.711  0.00  0.00    +0.000 A 
ATOM      7  C   UNL     1       9.965  10.962  20.319  0.00  0.00    +0.000 A 
ATOM      8  C   UNL     1      10.517  12.024  19.588  0.00  0.00    +0.000 A 
BRANCH   3  10
ATOM      9  C   UNL     1      11.972  13.117  16.980  0.00  0.00    +0.000 C 
ATOM     10  O   UNL     1      10.650  13.222  17.513  0.00  0.00    +0.000 OA
ENDBRANCH   3  10
BRANCH   8  11
ATOM     11  O   UNL     1      11.221  12.919  20.362  0.00  0.00    +0.000 OA
BRANCH  11  12
ATOM     12  C   UNL     1      10.478  13.989  20.942  0.00  0.00    +0.000 C 
BRANCH  12  13
ATOM     13  C   UNL     1      10.875  15.368  20.400  0.00  0.00    +0.000 C 
ATOM     14  N   UNL     1      10.435  15.699  19.152  0.00  0.00    +0.000 N 
ATOM     15  O   UNL     1      11.578  16.156  21.035  0.00  0.00    +0.000 OA
ATOM     16  H   UNL     1       9.908  15.040  18.594  0.00  0.00    +0.000 HD
ATOM     17  H   UNL     1      10.724  16.582  18.759  0.00  0.00    +0.000 HD
ENDBRANCH  12  13
ENDBRANCH  11  12
ENDBRANCH   8  11
ENDBRANCH   1   5
BRANCH   2  18
ATOM     18  N   UNL     1       7.016   7.294  16.872  0.00  0.00    +0.000 N 
ATOM     19  C   UNL     1       6.289   6.426  17.679  0.00  0.00    +0.000 C 
ATOM     20  O   UNL     1       6.421   6.340  18.890  0.00  0.00    +0.000 OA
ATOM     21  N   UNL     1       5.376   5.666  16.961  0.00  0.00    +0.000 N 
ATOM     22  H   UNL     1       7.152   6.996  15.916  0.00  0.00    +0.000 HD
ATOM     23  H   UNL     1       5.079   6.060  16.084  0.00  0.00    +0.000 HD
BRANCH  21  24
ATOM     24  C   UNL     1       4.414   4.796  17.663  0.00  0.00    +0.000 C 
ATOM     25  C   UNL     1       3.803   3.758  16.684  0.00  0.00    +0.000 C 
ATOM     26  C   UNL     1       2.797   2.853  17.406  0.00  0.00    +0.000 C 
ATOM     27  C   UNL     1       3.522   2.088  18.523  0.00  0.00    +0.000 C 
ATOM     28  C   UNL     1       4.132   3.079  19.528  0.00  0.00    +0.000 C 
ATOM     29  C   UNL     1       2.999   3.918  20.143  0.00  0.00    +0.000 C 
ATOM     30  C   UNL     1       2.277   4.701  19.042  0.00  0.00    +0.000 C 
ATOM     31  C   UNL     1       1.684   3.725  18.012  0.00  0.00    +0.000 C 
ATOM     32  C   UNL     1       3.284   5.621  18.341  0.00  0.00    +0.000 C 
ATOM     33  C   UNL     1       5.128   4.006  18.795  0.00  0.00    +0.000 C 
ENDBRANCH  21  24
ENDBRANCH   2  18
TORSDOF 7
ENDMDL
MODEL 4
REMARK VINA RESULT:      -8.1      1.587      2.000
REMARK  Name = 
REMARK  8 active torsions:
REMARK  status: ('A' for Active; 'I' for Inactive)
REMARK    1  A    between atoms: C_1  and  O_2
REMARK    2  A    between atoms: O_2  and  C_3
REMARK    3  A    between atoms: C_5  and  C_6
REMARK    4  A    between atoms: N_7  and  N_8
REMARK    5  A    between atoms: N_11  and  C_12
REMARK    6  A    between atoms: C_24  and  O_25
REMARK    7  A    between atoms: O_25  and  C_26
REMARK    8  A    between atoms: C_26  and  C_27
REMARK                            x       y       z     vdW  Elec       q    Type
REMARK                         _______ _______ _______ _____ _____    ______ ____
ROOT
ATOM      1  C   UNL     1       7.656   9.082  17.642  0.00  0.00    +0.000 C 
ATOM      2  N   UNL     1       7.844   7.799  17.534  0.00  0.00    +0.000 NA
ENDROOT
BRANCH   1   5
ATOM      3  C   UNL     1       9.877  12.093  18.137  0.00  0.00    +0.000 A 
ATOM      4  C   UNL     1       9.107  11.105  17.505  0.00  0.00    +0.000 A 
ATOM      5  C   UNL     1       8.669   9.993  18.219  0.00  0.00    +0.000 A 
ATOM      6  C   UNL     1       9.115   9.781  19.522  0.00  0.00    +0.000 A 
ATOM      7  C   UNL     1       9.956  10.722  20.127  0.00  0.00    +0.000 A 
ATOM      8  C   UNL     1      10.340  11.889  19.451  0.00  0.00    +0.000 A 
BRANCH   3  10
ATOM      9  C   UNL     1      11.391  13.331  16.810  0.00  0.00    +0.000 C 
ATOM     10  O   UNL     1      10.143  13.279  17.504  0.00  0.00    +0.000 OA
ENDBRANCH   3  10
BRANCH   8  11
ATOM     11  O   UNL     1      11.058  12.767  20.231  0.00  0.00    +0.000 OA
BRANCH  11  12
ATOM     12  C   UNL     1      10.309  13.714  20.990  0.00  0.00    +0.000 C 
BRANCH  12  13
ATOM     13  C   UNL     1      10.602  15.169  20.604  0.00  0.00    +0.000 C 
ATOM     14  N   UNL     1      10.123  15.607  19.404  0.00  0.00    +0.000 N 
ATOM     15  O   UNL     1      11.257  15.928  21.320  0.00  0.00    +0.000 OA
ATOM     16  H   UNL     1       9.635  14.979  18.778  0.00  0.00    +0.000 HD
ATOM     17  H   UNL     1      10.344  16.546  19.112  0.00  0.00    +0.000 HD
ENDBRANCH  12  13
ENDBRANCH  11  12
ENDBRANCH   8  11
ENDBRANCH   1   5
BRANCH   2  18
ATOM     18  N   UNL     1       6.792   7.046  17.035  0.00  0.00    +0.000 N 
ATOM     19  C   UNL     1       6.075   6.161  17.832  0.00  0.00    +0.000 C 
ATOM     20  O   UNL     1       6.209   6.062  19.042  0.00  0.00    +0.000 OA
ATOM     21  N   UNL     1       5.167   5.402  17.106  0.00  0.00    +0.000 N 
ATOM     22  H   UNL     1       6.930   6.761  16.075  0.00  0.00    +0.000 HD
ATOM     23  H   UNL     1       4.866   5.804  16.234  0.00  0.00    +0.000 HD
BRANCH  21  24
ATOM     24  C   UNL     1       4.214   4.515  17.799  0.00  0.00    +0.000 C 
ATOM     25  C   UNL     1       4.937   3.696  18.902  0.00  0.00    +0.000 C 
ATOM     26  C   UNL     1       3.953   2.766  19.625  0.00  0.00    +0.000 C 
ATOM     27  C   UNL     1       2.861   3.614  20.295  0.00  0.00    +0.000 C 
ATOM     28  C   UNL     1       2.108   4.434  19.235  0.00  0.00    +0.000 C 
ATOM     29  C   UNL     1       1.452   3.465  18.237  0.00  0.00    +0.000 C 
ATOM     30  C   UNL     1       2.531   2.624  17.546  0.00  0.00    +0.000 C 
ATOM     31  C   UNL     1       3.313   1.817  18.597  0.00  0.00    +0.000 C 
ATOM     32  C   UNL     1       3.496   3.558  16.807  0.00  0.00    +0.000 C 
ATOM     33  C   UNL     1       3.103   5.353  18.491  0.00  0.00    +0.000 C 
ENDBRANCH  21  24
ENDBRANCH   2  18
TORSDOF 7
ENDMDL
MODEL 5
REMARK VINA RESULT:      -8.1      1.488      2.353
REMARK  Name = 
REMARK  8 active torsions:
REMARK  status: ('A' for Active; 'I' for Inactive)
REMARK    1  A    between atoms: C_1  and  O_2
REMARK    2  A    between atoms: O_2  and  C_3
REMARK    3  A    between atoms: C_5  and  C_6
REMARK    4  A    between atoms: N_7  and  N_8
REMARK    5  A    between atoms: N_11  and  C_12
REMARK    6  A    between atoms: C_24  and  O_25
REMARK    7  A    between atoms: O_25  and  C_26
REMARK    8  A    between atoms: C_26  and  C_27
REMARK                            x       y       z     vdW  Elec       q    Type
REMARK                         _______ _______ _______ _____ _____    ______ ____
ROOT
ATOM      1  C   UNL     1       7.972   9.346  17.863  0.00  0.00    +0.000 C 
ATOM      2  N   UNL     1       8.188   8.138  17.430  0.00  0.00    +0.000 NA
ENDROOT
BRANCH   1   5
ATOM      3  C   UNL     1      10.877  11.726  18.238  0.00  0.00    +0.000 A 
ATOM      4  C   UNL     1      10.024  10.753  17.697  0.00  0.00    +0.000 A 
ATOM      5  C   UNL     1       9.028  10.176  18.481  0.00  0.00    +0.000 A 
ATOM      6  C   UNL     1       8.968  10.454  19.845  0.00  0.00    +0.000 A 
ATOM      7  C   UNL     1       9.874  11.359  20.408  0.00  0.00    +0.000 A 
ATOM      8  C   UNL     1      10.831  12.012  19.616  0.00  0.00    +0.000 A 
BRANCH   3  10
ATOM      9  C   UNL     1      11.110  13.499  16.693  0.00  0.00    +0.000 C 
ATOM     10  O   UNL     1      11.722  12.438  17.429  0.00  0.00    +0.000 OA
ENDBRANCH   3  10
BRANCH   8  11
ATOM     11  O   UNL     1      11.555  12.963  20.298  0.00  0.00    +0.000 OA
BRANCH  11  12
ATOM     12  C   UNL     1      10.823  14.060  20.842  0.00  0.00    +0.000 C 
BRANCH  12  13
ATOM     13  C   UNL     1      10.517  15.155  19.813  0.00  0.00    +0.000 C 
ATOM     14  N   UNL     1       9.228  15.266  19.382  0.00  0.00    +0.000 N 
ATOM     15  O   UNL     1      11.384  15.906  19.363  0.00  0.00    +0.000 OA
ATOM     16  H   UNL     1       8.516  14.618  19.696  0.00  0.00    +0.000 HD
ATOM     17  H   UNL     1       9.015  15.949  18.671  0.00  0.00    +0.000 HD
ENDBRANCH  12  13
ENDBRANCH  11  12
ENDBRANCH   8  11
ENDBRANCH   1   5
BRANCH   2  18
ATOM     18  N   UNL     1       7.100   7.440  16.930  0.00  0.00    +0.000 N 
ATOM     19  C   UNL     1       6.391   6.526  17.700  0.00  0.00    +0.000 C 
ATOM     20  O   UNL     1       6.570   6.351  18.896  0.00  0.00    +0.000 OA
ATOM     21  N   UNL     1       5.438   5.833  16.967  0.00  0.00    +0.000 N 
ATOM     22  H   UNL     1       7.194   7.211  15.950  0.00  0.00    +0.000 HD
ATOM     23  H   UNL     1       5.114   6.293  16.133  0.00  0.00    +0.000 HD
BRANCH  21  24
ATOM     24  C   UNL     1       4.491   4.928  17.644  0.00  0.00    +0.000 C 
ATOM     25  C   UNL     1       3.304   5.730  18.241  0.00  0.00    +0.000 C 
ATOM     26  C   UNL     1       2.315   4.796  18.951  0.00  0.00    +0.000 C 
ATOM     27  C   UNL     1       1.752   3.794  17.933  0.00  0.00    +0.000 C 
ATOM     28  C   UNL     1       2.894   2.964  17.325  0.00  0.00    +0.000 C 
ATOM     29  C   UNL     1       3.599   2.194  18.453  0.00  0.00    +0.000 C 
ATOM     30  C   UNL     1       4.183   3.181  19.469  0.00  0.00    +0.000 C 
ATOM     31  C   UNL     1       3.055   4.039  20.068  0.00  0.00    +0.000 C 
ATOM     32  C   UNL     1       5.187   4.096  18.757  0.00  0.00    +0.000 C 
ATOM     33  C   UNL     1       3.902   3.908  16.629  0.00  0.00    +0.000 C 
ENDBRANCH  21  24
ENDBRANCH   2  18
TORSDOF 7
ENDMDL
MODEL 6
REMARK VINA RESULT:      -8.0      2.526     11.078
REMARK  Name = 
REMARK  8 active torsions:
REMARK  status: ('A' for Active; 'I' for Inactive)
REMARK    1  A    between atoms: C_1  and  O_2
REMARK    2  A    between atoms: O_2  and  C_3
REMARK    3  A    between atoms: C_5  and  C_6
REMARK    4  A    between atoms: N_7  and  N_8
REMARK    5  A    between atoms: N_11  and  C_12
REMARK    6  A    between atoms: C_24  and  O_25
REMARK    7  A    between atoms: O_25  and  C_26
REMARK    8  A    between atoms: C_26  and  C_27
REMARK                            x       y       z     vdW  Elec       q    Type
REMARK                         _______ _______ _______ _____ _____    ______ ____
ROOT
ATOM      1  C   UNL     1       7.801   7.315  17.983  0.00  0.00    +0.000 C 
ATOM      2  N   UNL     1       7.809   8.610  17.860  0.00  0.00    +0.000 NA
ENDROOT
BRANCH   1   5
ATOM      3  C   UNL     1       5.973   4.586  16.126  0.00  0.00    +0.000 A 
ATOM      4  C   UNL     1       6.941   5.548  16.449  0.00  0.00    +0.000 A 
ATOM      5  C   UNL     1       6.704   6.469  17.466  0.00  0.00    +0.000 A 
ATOM      6  C   UNL     1       5.449   6.534  18.068  0.00  0.00    +0.000 A 
ATOM      7  C   UNL     1       4.450   5.632  17.685  0.00  0.00    +0.000 A 
ATOM      8  C   UNL     1       4.698   4.644  16.722  0.00  0.00    +0.000 A 
BRANCH   3  10
ATOM      9  C   UNL     1       6.207   3.884  13.881  0.00  0.00    +0.000 C 
ATOM     10  O   UNL     1       6.271   3.557  15.271  0.00  0.00    +0.000 OA
ENDBRANCH   3  10
BRANCH   8  11
ATOM     11  O   UNL     1       3.656   3.760  16.558  0.00  0.00    +0.000 OA
BRANCH  11  12
ATOM     12  C   UNL     1       3.456   2.803  17.595  0.00  0.00    +0.000 C 
BRANCH  12  13
ATOM     13  C   UNL     1       2.055   2.863  18.216  0.00  0.00    +0.000 C 
ATOM     14  N   UNL     1       1.327   3.998  18.008  0.00  0.00    +0.000 N 
ATOM     15  O   UNL     1       1.588   1.948  18.896  0.00  0.00    +0.000 OA
ATOM     16  H   UNL     1       1.719   4.783  17.503  0.00  0.00    +0.000 HD
ATOM     17  H   UNL     1       0.422   4.076  18.446  0.00  0.00    +0.000 HD
ENDBRANCH  12  13
ENDBRANCH  11  12
ENDBRANCH   8  11
ENDBRANCH   1   5
BRANCH   2  18
ATOM     18  N   UNL     1       8.864   9.295  18.444  0.00  0.00    +0.000 N 
ATOM     19  C   UNL     1       9.070  10.653  18.232  0.00  0.00    +0.000 C 
ATOM     20  O   UNL     1       8.292  11.381  17.636  0.00  0.00    +0.000 OA
ATOM     21  N   UNL     1      10.259  11.107  18.785  0.00  0.00    +0.000 N 
ATOM     22  H   UNL     1       9.698   8.732  18.536  0.00  0.00    +0.000 HD
ATOM     23  H   UNL     1      10.620  10.557  19.547  0.00  0.00    +0.000 HD
BRANCH  21  24
ATOM     24  C   UNL     1      10.578  12.546  18.789  0.00  0.00    +0.000 C 
ATOM     25  C   UNL     1      10.647  13.093  17.338  0.00  0.00    +0.000 C 
ATOM     26  C   UNL     1      10.983  14.590  17.333  0.00  0.00    +0.000 C 
ATOM     27  C   UNL     1       9.881  15.355  18.082  0.00  0.00    +0.000 C 
ATOM     28  C   UNL     1       9.788  14.855  19.533  0.00  0.00    +0.000 C 
ATOM     29  C   UNL     1      11.137  15.104  20.228  0.00  0.00    +0.000 C 
ATOM     30  C   UNL     1      12.245  14.333  19.503  0.00  0.00    +0.000 C 
ATOM     31  C   UNL     1      12.333  14.802  18.040  0.00  0.00    +0.000 C 
ATOM     32  C   UNL     1      11.913  12.836  19.532  0.00  0.00    +0.000 C 
ATOM     33  C   UNL     1       9.472  13.342  19.537  0.00  0.00    +0.000 C 
ENDBRANCH  21  24
ENDBRANCH   2  18
TORSDOF 7
ENDMDL
MODEL 7
REMARK VINA RESULT:      -7.9      2.463     11.030
REMARK  Name = 
REMARK  8 active torsions:
REMARK  status: ('A' for Active; 'I' for Inactive)
REMARK    1  A    between atoms: C_1  and  O_2
REMARK    2  A    between atoms: O_2  and  C_3
REMARK    3  A    between atoms: C_5  and  C_6
REMARK    4  A    between atoms: N_7  and  N_8
REMARK    5  A    between atoms: N_11  and  C_12
REMARK    6  A    between atoms: C_24  and  O_25
REMARK    7  A    between atoms: O_25  and  C_26
REMARK    8  A    between atoms: C_26  and  C_27
REMARK                            x       y       z     vdW  Elec       q    Type
REMARK                         _______ _______ _______ _____ _____    ______ ____
ROOT
ATOM      1  C   UNL     1       7.888   7.536  17.909  0.00  0.00    +0.000 C 
ATOM      2  N   UNL     1       7.848   8.831  17.801  0.00  0.00    +0.000 NA
ENDROOT
BRANCH   1   5
ATOM      3  C   UNL     1       6.081   4.727  16.150  0.00  0.00    +0.000 A 
ATOM      4  C   UNL     1       7.038   5.712  16.435  0.00  0.00    +0.000 A 
ATOM      5  C   UNL     1       6.798   6.658  17.428  0.00  0.00    +0.000 A 
ATOM      6  C   UNL     1       5.549   6.722  18.043  0.00  0.00    +0.000 A 
ATOM      7  C   UNL     1       4.560   5.794  17.698  0.00  0.00    +0.000 A 
ATOM      8  C   UNL     1       4.813   4.783  16.759  0.00  0.00    +0.000 A 
BRANCH   3  10
ATOM      9  C   UNL     1       6.363   3.983  13.925  0.00  0.00    +0.000 C 
ATOM     10  O   UNL     1       6.386   3.680  15.321  0.00  0.00    +0.000 OA
ENDBRANCH   3  10
BRANCH   8  11
ATOM     11  O   UNL     1       3.782   3.879  16.632  0.00  0.00    +0.000 OA
BRANCH  11  12
ATOM     12  C   UNL     1       3.504   3.058  17.765  0.00  0.00    +0.000 C 
BRANCH  12  13
ATOM     13  C   UNL     1       2.134   3.335  18.394  0.00  0.00    +0.000 C 
ATOM     14  N   UNL     1       2.118   3.869  19.649  0.00  0.00    +0.000 N 
ATOM     15  O   UNL     1       1.074   3.078  17.821  0.00  0.00    +0.000 OA
ATOM     16  H   UNL     1       2.978   4.030  20.157  0.00  0.00    +0.000 HD
ATOM     17  H   UNL     1       1.227   4.015  20.099  0.00  0.00    +0.000 HD
ENDBRANCH  12  13
ENDBRANCH  11  12
ENDBRANCH   8  11
ENDBRANCH   1   5
BRANCH   2  18
ATOM     18  N   UNL     1       8.903   9.545  18.348  0.00  0.00    +0.000 N 
ATOM     19  C   UNL     1       9.067  10.907  18.126  0.00  0.00    +0.000 C 
ATOM     20  O   UNL     1       8.251  11.613  17.554  0.00  0.00    +0.000 OA
ATOM     21  N   UNL     1      10.262  11.393  18.638  0.00  0.00    +0.000 N 
ATOM     22  H   UNL     1       9.754   9.004  18.414  0.00  0.00    +0.000 HD
ATOM     23  H   UNL     1      10.661  10.856  19.389  0.00  0.00    +0.000 HD
BRANCH  21  24
ATOM     24  C   UNL     1      10.543  12.841  18.628  0.00  0.00    +0.000 C 
ATOM     25  C   UNL     1       9.361  13.629  19.254  0.00  0.00    +0.000 C 
ATOM     26  C   UNL     1       9.644  15.137  19.243  0.00  0.00    +0.000 C 
ATOM     27  C   UNL     1      10.902  15.418  20.078  0.00  0.00    +0.000 C 
ATOM     28  C   UNL     1      12.105  14.667  19.484  0.00  0.00    +0.000 C 
ATOM     29  C   UNL     1      12.333  15.160  18.045  0.00  0.00    +0.000 C 
ATOM     30  C   UNL     1      11.092  14.870  17.194  0.00  0.00    +0.000 C 
ATOM     31  C   UNL     1       9.873  15.593  17.791  0.00  0.00    +0.000 C 
ATOM     32  C   UNL     1      10.830  13.359  17.191  0.00  0.00    +0.000 C 
ATOM     33  C   UNL     1      11.811  13.149  19.474  0.00  0.00    +0.000 C 
ENDBRANCH  21  24
ENDBRANCH   2  18
TORSDOF 7
ENDMDL
MODEL 8
REMARK VINA RESULT:      -7.8      1.110      1.846
REMARK  Name = 
REMARK  8 active torsions:
REMARK  status: ('A' for Active; 'I' for Inactive)
REMARK    1  A    between atoms: C_1  and  O_2
REMARK    2  A    between atoms: O_2  and  C_3
REMARK    3  A    between atoms: C_5  and  C_6
REMARK    4  A    between atoms: N_7  and  N_8
REMARK    5  A    between atoms: N_11  and  C_12
REMARK    6  A    between atoms: C_24  and  O_25
REMARK    7  A    between atoms: O_25  and  C_26
REMARK    8  A    between atoms: C_26  and  C_27
REMARK                            x       y       z     vdW  Elec       q    Type
REMARK                         _______ _______ _______ _____ _____    ______ ____
ROOT
ATOM      1  C   UNL     1       8.408   9.150  18.327  0.00  0.00    +0.000 C 
ATOM      2  N   UNL     1       7.974   8.293  17.450  0.00  0.00    +0.000 NA
ENDROOT
BRANCH   1   5
ATOM      3  C   UNL     1       8.447  12.844  17.554  0.00  0.00    +0.000 A 
ATOM      4  C   UNL     1       7.999  11.520  17.668  0.00  0.00    +0.000 A 
ATOM      5  C   UNL     1       8.897  10.496  17.957  0.00  0.00    +0.000 A 
ATOM      6  C   UNL     1      10.266  10.759  17.990  0.00  0.00    +0.000 A 
ATOM      7  C   UNL     1      10.724  12.065  17.789  0.00  0.00    +0.000 A 
ATOM      8  C   UNL     1       9.827  13.123  17.579  0.00  0.00    +0.000 A 
BRANCH   3  10
ATOM      9  C   UNL     1       7.201  14.483  18.714  0.00  0.00    +0.000 C 
ATOM     10  O   UNL     1       7.551  13.877  17.468  0.00  0.00    +0.000 OA
ENDBRANCH   3  10
BRANCH   8  11
ATOM     11  O   UNL     1      10.433  14.358  17.530  0.00  0.00    +0.000 OA
BRANCH  11  12
ATOM     12  C   UNL     1      10.823  14.932  18.776  0.00  0.00    +0.000 C 
BRANCH  12  13
ATOM     13  C   UNL     1      10.850  16.465  18.757  0.00  0.00    +0.000 C 
ATOM     14  N   UNL     1       9.695  17.106  18.415  0.00  0.00    +0.000 N 
ATOM     15  O   UNL     1      11.863  17.116  19.015  0.00  0.00    +0.000 OA
ATOM     16  H   UNL     1       8.872  16.586  18.142  0.00  0.00    +0.000 HD
ATOM     17  H   UNL     1       9.705  18.113  18.352  0.00  0.00    +0.000 HD
ENDBRANCH  12  13
ENDBRANCH  11  12
ENDBRANCH   8  11
ENDBRANCH   1   5
BRANCH   2  18
ATOM     18  N   UNL     1       7.604   7.042  17.917  0.00  0.00    +0.000 N 
ATOM     19  C   UNL     1       6.280   6.619  17.925  0.00  0.00    +0.000 C 
ATOM     20  O   UNL     1       5.358   7.237  17.416  0.00  0.00    +0.000 OA
ATOM     21  N   UNL     1       6.111   5.400  18.568  0.00  0.00    +0.000 N 
ATOM     22  H   UNL     1       8.173   6.723  18.690  0.00  0.00    +0.000 HD
ATOM     23  H   UNL     1       6.928   4.814  18.607  0.00  0.00    +0.000 HD
BRANCH  21  24
ATOM     24  C   UNL     1       4.802   4.722  18.549  0.00  0.00    +0.000 C 
ATOM     25  C   UNL     1       4.863   3.396  19.354  0.00  0.00    +0.000 C 
ATOM     26  C   UNL     1       3.506   2.682  19.334  0.00  0.00    +0.000 C 
ATOM     27  C   UNL     1       2.452   3.589  19.986  0.00  0.00    +0.000 C 
ATOM     28  C   UNL     1       2.345   4.912  19.210  0.00  0.00    +0.000 C 
ATOM     29  C   UNL     1       1.922   4.603  17.765  0.00  0.00    +0.000 C 
ATOM     30  C   UNL     1       2.973   3.713  17.094  0.00  0.00    +0.000 C 
ATOM     31  C   UNL     1       3.112   2.394  17.875  0.00  0.00    +0.000 C 
ATOM     32  C   UNL     1       4.322   4.443  17.097  0.00  0.00    +0.000 C 
ATOM     33  C   UNL     1       3.719   5.620  19.210  0.00  0.00    +0.000 C 
ENDBRANCH  21  24
ENDBRANCH   2  18
TORSDOF 7
ENDMDL
MODEL 9
REMARK VINA RESULT:      -7.8      6.768      9.530
REMARK  Name = 
REMARK  8 active torsions:
REMARK  status: ('A' for Active; 'I' for Inactive)
REMARK    1  A    between atoms: C_1  and  O_2
REMARK    2  A    between atoms: O_2  and  C_3
REMARK    3  A    between atoms: C_5  and  C_6
REMARK    4  A    between atoms: N_7  and  N_8
REMARK    5  A    between atoms: N_11  and  C_12
REMARK    6  A    between atoms: C_24  and  O_25
REMARK    7  A    between atoms: O_25  and  C_26
REMARK    8  A    between atoms: C_26  and  C_27
REMARK                            x       y       z     vdW  Elec       q    Type
REMARK                         _______ _______ _______ _____ _____    ______ ____
ROOT
ATOM      1  C   UNL     1       1.458   8.551  21.352  0.00  0.00    +0.000 C 
ATOM      2  N   UNL     1       1.081   7.375  20.944  0.00  0.00    +0.000 NA
ENDROOT
BRANCH   1   5
ATOM      3  C   UNL     1      -0.894  11.452  20.808  0.00  0.00    +0.000 A 
ATOM      4  C   UNL     1       0.179  10.566  20.630  0.00  0.00    +0.000 A 
ATOM      5  C   UNL     1       0.504   9.648  21.625  0.00  0.00    +0.000 A 
ATOM      6  C   UNL     1      -0.139   9.702  22.860  0.00  0.00    +0.000 A 
ATOM      7  C   UNL     1      -1.151  10.645  23.072  0.00  0.00    +0.000 A 
ATOM      8  C   UNL     1      -1.548  11.522  22.053  0.00  0.00    +0.000 A 
BRANCH   3  10
ATOM      9  C   UNL     1      -1.499  11.524  18.524  0.00  0.00    +0.000 C 
ATOM     10  O   UNL     1      -1.345  12.217  19.765  0.00  0.00    +0.000 OA
ENDBRANCH   3  10
BRANCH   8  11
ATOM     11  O   UNL     1      -2.640  12.292  22.383  0.00  0.00    +0.000 OA
BRANCH  11  12
ATOM     12  C   UNL     1      -2.531  13.092  23.558  0.00  0.00    +0.000 C 
BRANCH  12  13
ATOM     13  C   UNL     1      -3.810  13.107  24.404  0.00  0.00    +0.000 C 
ATOM     14  N   UNL     1      -4.187  14.301  24.946  0.00  0.00    +0.000 N 
ATOM     15  O   UNL     1      -4.478  12.095  24.619  0.00  0.00    +0.000 OA
ATOM     16  H   UNL     1      -3.618  15.129  24.829  0.00  0.00    +0.000 HD
ATOM     17  H   UNL     1      -4.999  14.323  25.543  0.00  0.00    +0.000 HD
ENDBRANCH  12  13
ENDBRANCH  11  12
ENDBRANCH   8  11
ENDBRANCH   1   5
BRANCH   2  18
ATOM     18  N   UNL     1       2.077   6.453  20.661  0.00  0.00    +0.000 N 
ATOM     19  C   UNL     1       2.894   6.568  19.543  0.00  0.00    +0.000 C 
ATOM     20  O   UNL     1       2.903   7.533  18.795  0.00  0.00    +0.000 OA
ATOM     21  N   UNL     1       3.721   5.466  19.368  0.00  0.00    +0.000 N 
ATOM     22  H   UNL     1       1.832   5.510  20.933  0.00  0.00    +0.000 HD
ATOM     23  H   UNL     1       3.913   4.933  20.200  0.00  0.00    +0.000 HD
BRANCH  21  24
ATOM     24  C   UNL     1       4.759   5.472  18.322  0.00  0.00    +0.000 C 
ATOM     25  C   UNL     1       6.165   5.673  18.951  0.00  0.00    +0.000 C 
ATOM     26  C   UNL     1       7.251   5.685  17.868  0.00  0.00    +0.000 C 
ATOM     27  C   UNL     1       7.243   4.336  17.133  0.00  0.00    +0.000 C 
ATOM     28  C   UNL     1       5.871   4.102  16.480  0.00  0.00    +0.000 C 
ATOM     29  C   UNL     1       5.608   5.229  15.468  0.00  0.00    +0.000 C 
ATOM     30  C   UNL     1       5.595   6.581  16.189  0.00  0.00    +0.000 C 
ATOM     31  C   UNL     1       6.952   6.819  16.872  0.00  0.00    +0.000 C 
ATOM     32  C   UNL     1       4.491   6.569  17.254  0.00  0.00    +0.000 C 
ATOM     33  C   UNL     1       4.774   4.113  17.569  0.00  0.00    +0.000 C 
ENDBRANCH  21  24
ENDBRANCH   2  18
TORSDOF 7
ENDMDL
