MODEL 1
REMARK VINA RESULT:      -8.5      0.000      0.000
REMARK  Name = 
REMARK  9 active torsions:
REMARK  status: ('A' for Active; 'I' for Inactive)
REMARK    1  A    between atoms: C_1  and  C_2
REMARK    2  A    between atoms: C_7  and  C_8
REMARK    3  A    between atoms: C_8  and  N_9
REMARK    4  A    between atoms: C_18  and  N_19
REMARK    5  A    between atoms: N_19  and  C_20
REMARK    6  A    between atoms: C_20  and  C_21
REMARK    7  A    between atoms: N_25  and  C_26
REMARK    8  A    between atoms: C_26  and  C_27
REMARK    9  A    between atoms: C_30  and  C_31
REMARK                            x       y       z     vdW  Elec       q    Type
REMARK                         _______ _______ _______ _____ _____    ______ ____
ROOT
ATOM      1  N   UNL     1       3.776   4.400  17.314  0.00  0.00    +0.000 N 
ATOM      2  C   UNL     1       2.442   3.873  16.910  0.00  0.00    +0.000 C 
ATOM      3  C   UNL     1       1.285   3.526  18.006  0.00  0.00    +0.000 C 
ATOM      4  C   UNL     1       1.445   3.528  19.535  0.00  0.00    +0.000 A 
ATOM      5  C   UNL     1       0.860   2.518  20.327  0.00  0.00    +0.000 A 
ATOM      6  C   UNL     1       1.200   2.361  21.683  0.00  0.00    +0.000 A 
ATOM      7  C   UNL     1       2.096   3.232  22.290  0.00  0.00    +0.000 A 
ATOM      8  C   UNL     1       2.564   4.319  21.569  0.00  0.00    +0.000 A 
ATOM      9  C   UNL     1       2.214   4.494  20.210  0.00  0.00    +0.000 A 
ATOM     10  C   UNL     1       3.023   5.484  19.428  0.00  0.00    +0.000 C 
ATOM     11  C   UNL     1       3.996   4.497  18.680  0.00  0.00    +0.000 C 
ATOM     12  O   UNL     1       4.814   3.765  19.237  0.00  0.00    +0.000 OA
ENDROOT
BRANCH  10  13
ATOM     13  N   UNL     1       2.309   6.391  18.492  0.00  0.00    +0.000 NA
ATOM     14  H   UNL     1       1.331   6.162  18.453  0.00  0.00    +0.000 HD
BRANCH  13  15
ATOM     15  C   UNL     1       2.423   7.832  18.587  0.00  0.00    +0.000 C 
BRANCH  15  16
ATOM     16  C   UNL     1       1.580   8.358  19.691  0.00  0.00    +0.000 A 
ATOM     17  C   UNL     1       1.531   8.007  21.027  0.00  0.00    +0.000 A 
ATOM     18  N   UNL     1       0.644   8.781  21.722  0.00  0.00    +0.000 NA
ATOM     19  C   UNL     1       0.156   9.617  20.839  0.00  0.00    +0.000 A 
ATOM     20  N   UNL     1       0.701   9.415  19.601  0.00  0.00    +0.000 N 
BRANCH  20  21
ATOM     21  C   UNL     1       0.475  10.308  18.477  0.00  0.00    +0.000 C 
BRANCH  21  22
ATOM     22  C   UNL     1      -0.976  10.636  18.213  0.00  0.00    +0.000 A 
ATOM     23  C   UNL     1      -1.731   9.788  17.381  0.00  0.00    +0.000 A 
ATOM     24  C   UNL     1      -3.114   9.966  17.258  0.00  0.00    +0.000 A 
ATOM     25  C   UNL     1      -3.761  10.963  17.986  0.00  0.00    +0.000 A 
ATOM     26  C   UNL     1      -3.013  11.835  18.778  0.00  0.00    +0.000 A 
ATOM     27  C   UNL     1      -1.634  11.675  18.884  0.00  0.00    +0.000 A 
BRANCH  25  28
ATOM     28  C   UNL     1      -5.177  11.084  17.947  0.00  0.00    +0.000 C 
ATOM     29  N   UNL     1      -6.332  11.222  17.898  0.00  0.00    +0.000 NA
ENDBRANCH  25  28
ENDBRANCH  21  22
ENDBRANCH  20  21
ENDBRANCH  15  16
ENDBRANCH  13  15
ENDBRANCH  10  13
BRANCH   1  30
ATOM     30  C   UNL     1       4.505   5.510  16.651  0.00  0.00    +0.000 C 
BRANCH  30  37
ATOM     31  C   UNL     1       7.365   6.485  16.891  0.00  0.00    +0.000 C 
ATOM     32  C   UNL     1       6.871   5.661  15.724  0.00  0.00    +0.000 A 
ATOM     33  C   UNL     1       7.837   5.264  14.783  0.00  0.00    +0.000 A 
ATOM     34  C   UNL     1       7.477   4.518  13.668  0.00  0.00    +0.000 A 
ATOM     35  C   UNL     1       6.146   4.153  13.484  0.00  0.00    +0.000 A 
ATOM     36  C   UNL     1       5.170   4.522  14.417  0.00  0.00    +0.000 A 
ATOM     37  C   UNL     1       5.503   5.295  15.536  0.00  0.00    +0.000 A 
ENDBRANCH  30  37
ENDBRANCH   1  30
TORSDOF 8
ENDMDL
MODEL 2
REMARK VINA RESULT:      -8.2      5.576      8.016
REMARK  Name = 
REMARK  9 active torsions:
REMARK  status: ('A' for Active; 'I' for Inactive)
REMARK    1  A    between atoms: C_1  and  C_2
REMARK    2  A    between atoms: C_7  and  C_8
REMARK    3  A    between atoms: C_8  and  N_9
REMARK    4  A    between atoms: C_18  and  N_19
REMARK    5  A    between atoms: N_19  and  C_20
REMARK    6  A    between atoms: C_20  and  C_21
REMARK    7  A    between atoms: N_25  and  C_26
REMARK    8  A    between atoms: C_26  and  C_27
REMARK    9  A    between atoms: C_30  and  C_31
REMARK                            x       y       z     vdW  Elec       q    Type
REMARK                         _______ _______ _______ _____ _____    ______ ____
ROOT
ATOM      1  N   UNL     1       1.828  12.047  18.876  0.00  0.00    +0.000 N 
ATOM      2  C   UNL     1       1.618  10.658  18.378  0.00  0.00    +0.000 C 
ATOM      3  C   UNL     1       0.662   9.597  19.166  0.00  0.00    +0.000 C 
ATOM      4  C   UNL     1       0.011   9.802  20.545  0.00  0.00    +0.000 A 
ATOM      5  C   UNL     1      -0.031   8.756  21.489  0.00  0.00    +0.000 A 
ATOM      6  C   UNL     1      -0.390   8.992  22.829  0.00  0.00    +0.000 A 
ATOM      7  C   UNL     1      -0.755  10.266  23.245  0.00  0.00    +0.000 A 
ATOM      8  C   UNL     1      -0.865  11.273  22.300  0.00  0.00    +0.000 A 
ATOM      9  C   UNL     1      -0.522  11.040  20.948  0.00  0.00    +0.000 A 
ATOM     10  C   UNL     1      -0.344  12.249  20.080  0.00  0.00    +0.000 C 
ATOM     11  C   UNL     1       1.227  12.350  20.089  0.00  0.00    +0.000 C 
ATOM     12  O   UNL     1       1.910  12.557  21.092  0.00  0.00    +0.000 OA
ENDROOT
BRANCH  10  13
ATOM     13  N   UNL     1      -0.901  12.212  18.702  0.00  0.00    +0.000 NA
ATOM     14  H   UNL     1      -0.524  11.435  18.188  0.00  0.00    +0.000 HD
BRANCH  13  15
ATOM     15  C   UNL     1      -2.327  12.259  18.452  0.00  0.00    +0.000 C 
BRANCH  15  16
ATOM     16  C   UNL     1      -2.695  11.368  17.322  0.00  0.00    +0.000 A 
ATOM     17  C   UNL     1      -1.977  10.363  16.702  0.00  0.00    +0.000 A 
ATOM     18  N   UNL     1      -2.710   9.744  15.728  0.00  0.00    +0.000 NA
ATOM     19  C   UNL     1      -3.876  10.341  15.747  0.00  0.00    +0.000 A 
ATOM     20  N   UNL     1      -3.925  11.318  16.703  0.00  0.00    +0.000 N 
BRANCH  20  21
ATOM     21  C   UNL     1      -5.147  12.017  17.064  0.00  0.00    +0.000 C 
BRANCH  21  22
ATOM     22  C   UNL     1      -5.609  11.789  18.484  0.00  0.00    +0.000 A 
ATOM     23  C   UNL     1      -5.321  12.758  19.463  0.00  0.00    +0.000 A 
ATOM     24  C   UNL     1      -5.882  12.660  20.742  0.00  0.00    +0.000 A 
ATOM     25  C   UNL     1      -6.760  11.620  21.045  0.00  0.00    +0.000 A 
ATOM     26  C   UNL     1      -7.015  10.632  20.093  0.00  0.00    +0.000 A 
ATOM     27  C   UNL     1      -6.439  10.715  18.828  0.00  0.00    +0.000 A 
BRANCH  25  28
ATOM     28  C   UNL     1      -7.415  11.571  22.306  0.00  0.00    +0.000 C 
ATOM     29  N   UNL     1      -7.916  11.515  23.355  0.00  0.00    +0.000 NA
ENDBRANCH  25  28
ENDBRANCH  21  22
ENDBRANCH  20  21
ENDBRANCH  15  16
ENDBRANCH  13  15
ENDBRANCH  10  13
BRANCH   1  30
ATOM     30  C   UNL     1       1.824  13.275  18.041  0.00  0.00    +0.000 C 
BRANCH  30  37
ATOM     31  C   UNL     1       0.185  15.723  18.755  0.00  0.00    +0.000 C 
ATOM     32  C   UNL     1       1.688  15.665  18.907  0.00  0.00    +0.000 A 
ATOM     33  C   UNL     1       2.301  16.779  19.505  0.00  0.00    +0.000 A 
ATOM     34  C   UNL     1       3.679  16.825  19.673  0.00  0.00    +0.000 A 
ATOM     35  C   UNL     1       4.461  15.753  19.251  0.00  0.00    +0.000 A 
ATOM     36  C   UNL     1       3.871  14.626  18.668  0.00  0.00    +0.000 A 
ATOM     37  C   UNL     1       2.487  14.566  18.465  0.00  0.00    +0.000 A 
ENDBRANCH  30  37
ENDBRANCH   1  30
TORSDOF 8
ENDMDL
MODEL 3
REMARK VINA RESULT:      -7.8      3.807      7.515
REMARK  Name = 
REMARK  9 active torsions:
REMARK  status: ('A' for Active; 'I' for Inactive)
REMARK    1  A    between atoms: C_1  and  C_2
REMARK    2  A    between atoms: C_7  and  C_8
REMARK    3  A    between atoms: C_8  and  N_9
REMARK    4  A    between atoms: C_18  and  N_19
REMARK    5  A    between atoms: N_19  and  C_20
REMARK    6  A    between atoms: C_20  and  C_21
REMARK    7  A    between atoms: N_25  and  C_26
REMARK    8  A    between atoms: C_26  and  C_27
REMARK    9  A    between atoms: C_30  and  C_31
REMARK                            x       y       z     vdW  Elec       q    Type
REMARK                         _______ _______ _______ _____ _____    ______ ____
ROOT
ATOM      1  N   UNL     1      -0.520   9.981  18.552  0.00  0.00    +0.000 N 
ATOM      2  C   UNL     1      -1.214  10.002  17.233  0.00  0.00    +0.000 C 
ATOM      3  C   UNL     1      -2.576  10.867  16.991  0.00  0.00    +0.000 C 
ATOM      4  C   UNL     1      -3.392  11.607  18.063  0.00  0.00    +0.000 A 
ATOM      5  C   UNL     1      -4.801  11.576  18.052  0.00  0.00    +0.000 A 
ATOM      6  C   UNL     1      -5.554  12.028  19.152  0.00  0.00    +0.000 A 
ATOM      7  C   UNL     1      -4.919  12.560  20.267  0.00  0.00    +0.000 A 
ATOM      8  C   UNL     1      -3.546  12.737  20.234  0.00  0.00    +0.000 A 
ATOM      9  C   UNL     1      -2.783  12.301  19.126  0.00  0.00    +0.000 A 
ATOM     10  C   UNL     1      -1.299  12.221  19.318  0.00  0.00    +0.000 C 
ATOM     11  C   UNL     1      -1.150  10.675  19.575  0.00  0.00    +0.000 C 
ATOM     12  O   UNL     1      -1.642  10.073  20.530  0.00  0.00    +0.000 OA
ENDROOT
BRANCH  10  13
ATOM     13  N   UNL     1      -0.422  12.698  18.217  0.00  0.00    +0.000 NA
ATOM     14  H   UNL     1      -0.904  12.657  17.336  0.00  0.00    +0.000 HD
BRANCH  13  15
ATOM     15  C   UNL     1       0.269  13.969  18.286  0.00  0.00    +0.000 C 
BRANCH  15  16
ATOM     16  C   UNL     1       1.258  13.974  19.395  0.00  0.00    +0.000 A 
ATOM     17  C   UNL     1       2.554  13.495  19.442  0.00  0.00    +0.000 A 
ATOM     18  N   UNL     1       3.144  13.749  20.649  0.00  0.00    +0.000 NA
ATOM     19  C   UNL     1       2.238  14.393  21.343  0.00  0.00    +0.000 A 
ATOM     20  N   UNL     1       1.087  14.570  20.626  0.00  0.00    +0.000 N 
BRANCH  20  21
ATOM     21  C   UNL     1      -0.014  15.400  21.081  0.00  0.00    +0.000 C 
BRANCH  21  22
ATOM     22  C   UNL     1      -0.935  14.737  22.078  0.00  0.00    +0.000 A 
ATOM     23  C   UNL     1      -2.131  15.381  22.442  0.00  0.00    +0.000 A 
ATOM     24  C   UNL     1      -3.083  14.718  23.225  0.00  0.00    +0.000 A 
ATOM     25  C   UNL     1      -2.870  13.397  23.620  0.00  0.00    +0.000 A 
ATOM     26  C   UNL     1      -1.667  12.767  23.300  0.00  0.00    +0.000 A 
ATOM     27  C   UNL     1      -0.708  13.434  22.541  0.00  0.00    +0.000 A 
BRANCH  25  28
ATOM     28  C   UNL     1      -3.876  12.682  24.326  0.00  0.00    +0.000 C 
ATOM     29  N   UNL     1      -4.673  12.063  24.904  0.00  0.00    +0.000 NA
ENDBRANCH  25  28
ENDBRANCH  21  22
ENDBRANCH  20  21
ENDBRANCH  15  16
ENDBRANCH  13  15
ENDBRANCH  10  13
BRANCH   1  30
ATOM     30  C   UNL     1       0.946  10.086  18.761  0.00  0.00    +0.000 C 
BRANCH  30  37
ATOM     31  C   UNL     1       1.066   8.279  21.191  0.00  0.00    +0.000 C 
ATOM     32  C   UNL     1       1.813   7.987  19.910  0.00  0.00    +0.000 A 
ATOM     33  C   UNL     1       2.500   6.762  19.850  0.00  0.00    +0.000 A 
ATOM     34  C   UNL     1       3.229   6.412  18.721  0.00  0.00    +0.000 A 
ATOM     35  C   UNL     1       3.274   7.281  17.634  0.00  0.00    +0.000 A 
ATOM     36  C   UNL     1       2.585   8.498  17.665  0.00  0.00    +0.000 A 
ATOM     37  C   UNL     1       1.864   8.885  18.800  0.00  0.00    +0.000 A 
ENDBRANCH  30  37
ENDBRANCH   1  30
TORSDOF 8
ENDMDL
MODEL 4
REMARK VINA RESULT:      -7.7      1.957      2.831
REMARK  Name = 
REMARK  9 active torsions:
REMARK  status: ('A' for Active; 'I' for Inactive)
REMARK    1  A    between atoms: C_1  and  C_2
REMARK    2  A    between atoms: C_7  and  C_8
REMARK    3  A    between atoms: C_8  and  N_9
REMARK    4  A    between atoms: C_18  and  N_19
REMARK    5  A    between atoms: N_19  and  C_20
REMARK    6  A    between atoms: C_20  and  C_21
REMARK    7  A    between atoms: N_25  and  C_26
REMARK    8  A    between atoms: C_26  and  C_27
REMARK    9  A    between atoms: C_30  and  C_31
REMARK                            x       y       z     vdW  Elec       q    Type
REMARK                         _______ _______ _______ _____ _____    ______ ____
ROOT
ATOM      1  N   UNL     1       3.774   4.328  17.282  0.00  0.00    +0.000 N 
ATOM      2  C   UNL     1       2.422   3.833  16.895  0.00  0.00    +0.000 C 
ATOM      3  C   UNL     1       1.270   3.517  18.006  0.00  0.00    +0.000 C 
ATOM      4  C   UNL     1       1.449   3.518  19.533  0.00  0.00    +0.000 A 
ATOM      5  C   UNL     1       0.849   2.525  20.334  0.00  0.00    +0.000 A 
ATOM      6  C   UNL     1       1.202   2.363  21.687  0.00  0.00    +0.000 A 
ATOM      7  C   UNL     1       2.126   3.213  22.280  0.00  0.00    +0.000 A 
ATOM      8  C   UNL     1       2.612   4.286  21.551  0.00  0.00    +0.000 A 
ATOM      9  C   UNL     1       2.250   4.467  20.196  0.00  0.00    +0.000 A 
ATOM     10  C   UNL     1       3.073   5.435  19.401  0.00  0.00    +0.000 C 
ATOM     11  C   UNL     1       4.013   4.423  18.645  0.00  0.00    +0.000 C 
ATOM     12  O   UNL     1       4.819   3.672  19.193  0.00  0.00    +0.000 OA
ENDROOT
BRANCH  10  13
ATOM     13  N   UNL     1       2.370   6.357  18.472  0.00  0.00    +0.000 NA
ATOM     14  H   UNL     1       1.387   6.148  18.441  0.00  0.00    +0.000 HD
BRANCH  13  15
ATOM     15  C   UNL     1       2.515   7.795  18.567  0.00  0.00    +0.000 C 
BRANCH  15  16
ATOM     16  C   UNL     1       1.613   8.350  19.609  0.00  0.00    +0.000 A 
ATOM     17  C   UNL     1       1.475   8.018  20.944  0.00  0.00    +0.000 A 
ATOM     18  N   UNL     1       0.559   8.816  21.572  0.00  0.00    +0.000 NA
ATOM     19  C   UNL     1       0.140   9.646  20.649  0.00  0.00    +0.000 A 
ATOM     20  N   UNL     1       0.758   9.418  19.450  0.00  0.00    +0.000 N 
BRANCH  20  21
ATOM     21  C   UNL     1       0.617  10.299  18.303  0.00  0.00    +0.000 C 
BRANCH  21  22
ATOM     22  C   UNL     1       0.756  11.770  18.617  0.00  0.00    +0.000 A 
ATOM     23  C   UNL     1       2.041  12.315  18.801  0.00  0.00    +0.000 A 
ATOM     24  C   UNL     1       2.213  13.699  18.919  0.00  0.00    +0.000 A 
ATOM     25  C   UNL     1       1.116  14.554  18.819  0.00  0.00    +0.000 A 
ATOM     26  C   UNL     1      -0.166  14.019  18.681  0.00  0.00    +0.000 A 
ATOM     27  C   UNL     1      -0.341  12.640  18.587  0.00  0.00    +0.000 A 
BRANCH  25  28
ATOM     28  C   UNL     1       1.293  15.964  18.834  0.00  0.00    +0.000 C 
ATOM     29  N   UNL     1       1.468  17.114  18.816  0.00  0.00    +0.000 NA
ENDBRANCH  25  28
ENDBRANCH  21  22
ENDBRANCH  20  21
ENDBRANCH  15  16
ENDBRANCH  13  15
ENDBRANCH  10  13
BRANCH   1  30
ATOM     30  C   UNL     1       4.521   5.418  16.607  0.00  0.00    +0.000 C 
BRANCH  30  37
ATOM     31  C   UNL     1       7.382   6.418  16.661  0.00  0.00    +0.000 C 
ATOM     32  C   UNL     1       6.831   5.562  15.545  0.00  0.00    +0.000 A 
ATOM     33  C   UNL     1       7.745   5.149  14.561  0.00  0.00    +0.000 A 
ATOM     34  C   UNL     1       7.329   4.374  13.486  0.00  0.00    +0.000 A 
ATOM     35  C   UNL     1       5.993   3.994  13.387  0.00  0.00    +0.000 A 
ATOM     36  C   UNL     1       5.068   4.380  14.364  0.00  0.00    +0.000 A 
ATOM     37  C   UNL     1       5.457   5.182  15.443  0.00  0.00    +0.000 A 
ENDBRANCH  30  37
ENDBRANCH   1  30
TORSDOF 8
ENDMDL
MODEL 5
REMARK VINA RESULT:      -7.7      3.765      7.634
REMARK  Name = 
REMARK  9 active torsions:
REMARK  status: ('A' for Active; 'I' for Inactive)
REMARK    1  A    between atoms: C_1  and  C_2
REMARK    2  A    between atoms: C_7  and  C_8
REMARK    3  A    between atoms: C_8  and  N_9
REMARK    4  A    between atoms: C_18  and  N_19
REMARK    5  A    between atoms: N_19  and  C_20
REMARK    6  A    between atoms: C_20  and  C_21
REMARK    7  A    between atoms: N_25  and  C_26
REMARK    8  A    between atoms: C_26  and  C_27
REMARK    9  A    between atoms: C_30  and  C_31
REMARK                            x       y       z     vdW  Elec       q    Type
REMARK                         _______ _______ _______ _____ _____    ______ ____
ROOT
ATOM      1  N   UNL     1      -0.447   9.897  18.493  0.00  0.00    +0.000 N 
ATOM      2  C   UNL     1      -1.075   9.984  17.144  0.00  0.00    +0.000 C 
ATOM      3  C   UNL     1      -2.403  10.891  16.869  0.00  0.00    +0.000 C 
ATOM      4  C   UNL     1      -3.253  11.611  17.928  0.00  0.00    +0.000 A 
ATOM      5  C   UNL     1      -4.660  11.616  17.848  0.00  0.00    +0.000 A 
ATOM      6  C   UNL     1      -5.455  12.046  18.927  0.00  0.00    +0.000 A 
ATOM      7  C   UNL     1      -4.864  12.521  20.091  0.00  0.00    +0.000 A 
ATOM      8  C   UNL     1      -3.486  12.665  20.131  0.00  0.00    +0.000 A 
ATOM      9  C   UNL     1      -2.681  12.251  19.045  0.00  0.00    +0.000 A 
ATOM     10  C   UNL     1      -1.210  12.126  19.304  0.00  0.00    +0.000 C 
ATOM     11  C   UNL     1      -1.110  10.568  19.510  0.00  0.00    +0.000 C 
ATOM     12  O   UNL     1      -1.663   9.945  20.416  0.00  0.00    +0.000 OA
ENDROOT
BRANCH  10  13
ATOM     13  N   UNL     1      -0.269  12.621  18.266  0.00  0.00    +0.000 NA
ATOM     14  H   UNL     1      -0.773  13.004  17.484  0.00  0.00    +0.000 HD
BRANCH  13  15
ATOM     15  C   UNL     1       0.813  13.530  18.585  0.00  0.00    +0.000 C 
BRANCH  15  16
ATOM     16  C   UNL     1       0.287  14.799  19.153  0.00  0.00    +0.000 A 
ATOM     17  C   UNL     1      -0.372  15.849  18.541  0.00  0.00    +0.000 A 
ATOM     18  N   UNL     1      -0.737  16.811  19.442  0.00  0.00    +0.000 NA
ATOM     19  C   UNL     1      -0.327  16.363  20.603  0.00  0.00    +0.000 A 
ATOM     20  N   UNL     1       0.282  15.144  20.486  0.00  0.00    +0.000 N 
BRANCH  20  21
ATOM     21  C   UNL     1       0.672  14.337  21.629  0.00  0.00    +0.000 C 
BRANCH  21  22
ATOM     22  C   UNL     1      -0.478  13.835  22.469  0.00  0.00    +0.000 A 
ATOM     23  C   UNL     1      -1.399  14.759  22.997  0.00  0.00    +0.000 A 
ATOM     24  C   UNL     1      -2.566  14.314  23.629  0.00  0.00    +0.000 A 
ATOM     25  C   UNL     1      -2.844  12.950  23.710  0.00  0.00    +0.000 A 
ATOM     26  C   UNL     1      -1.915  12.027  23.229  0.00  0.00    +0.000 A 
ATOM     27  C   UNL     1      -0.742  12.467  22.621  0.00  0.00    +0.000 A 
BRANCH  25  28
ATOM     28  C   UNL     1      -4.074  12.494  24.257  0.00  0.00    +0.000 C 
ATOM     29  N   UNL     1      -5.060  12.102  24.736  0.00  0.00    +0.000 NA
ENDBRANCH  25  28
ENDBRANCH  21  22
ENDBRANCH  20  21
ENDBRANCH  15  16
ENDBRANCH  13  15
ENDBRANCH  10  13
BRANCH   1  30
ATOM     30  C   UNL     1       1.009   9.957  18.775  0.00  0.00    +0.000 C 
BRANCH  30  37
ATOM     31  C   UNL     1       1.114   8.182  21.229  0.00  0.00    +0.000 C 
ATOM     32  C   UNL     1       1.835   7.852  19.943  0.00  0.00    +0.000 A 
ATOM     33  C   UNL     1       2.487   6.607  19.891  0.00  0.00    +0.000 A 
ATOM     34  C   UNL     1       3.191   6.222  18.757  0.00  0.00    +0.000 A 
ATOM     35  C   UNL     1       3.244   7.074  17.657  0.00  0.00    +0.000 A 
ATOM     36  C   UNL     1       2.589   8.310  17.680  0.00  0.00    +0.000 A 
ATOM     37  C   UNL     1       1.894   8.733  18.820  0.00  0.00    +0.000 A 
ENDBRANCH  30  37
ENDBRANCH   1  30
TORSDOF 8
ENDMDL
MODEL 6
REMARK VINA RESULT:      -7.6      1.174      1.971
REMARK  Name = 
REMARK  9 active torsions:
REMARK  status: ('A' for Active; 'I' for Inactive)
REMARK    1  A    between atoms: C_1  and  C_2
REMARK    2  A    between atoms: C_7  and  C_8
REMARK    3  A    between atoms: C_8  and  N_9
REMARK    4  A    between atoms: C_18  and  N_19
REMARK    5  A    between atoms: N_19  and  C_20
REMARK    6  A    between atoms: C_20  and  C_21
REMARK    7  A    between atoms: N_25  and  C_26
REMARK    8  A    between atoms: C_26  and  C_27
REMARK    9  A    between atoms: C_30  and  C_31
REMARK                            x       y       z     vdW  Elec       q    Type
REMARK                         _______ _______ _______ _____ _____    ______ ____
ROOT
ATOM      1  N   UNL     1       4.114   4.400  17.155  0.00  0.00    +0.000 N 
ATOM      2  C   UNL     1       2.849   3.761  16.692  0.00  0.00    +0.000 C 
ATOM      3  C   UNL     1       1.631   3.417  17.721  0.00  0.00    +0.000 C 
ATOM      4  C   UNL     1       1.669   3.536  19.254  0.00  0.00    +0.000 A 
ATOM      5  C   UNL     1       1.084   2.548  20.072  0.00  0.00    +0.000 A 
ATOM      6  C   UNL     1       1.323   2.508  21.458  0.00  0.00    +0.000 A 
ATOM      7  C   UNL     1       2.115   3.475  22.063  0.00  0.00    +0.000 A 
ATOM      8  C   UNL     1       2.575   4.536  21.301  0.00  0.00    +0.000 A 
ATOM      9  C   UNL     1       2.324   4.594  19.911  0.00  0.00    +0.000 A 
ATOM     10  C   UNL     1       3.134   5.577  19.120  0.00  0.00    +0.000 C 
ATOM     11  C   UNL     1       4.219   4.606  18.523  0.00  0.00    +0.000 C 
ATOM     12  O   UNL     1       5.031   3.968  19.192  0.00  0.00    +0.000 OA
ENDROOT
BRANCH  10  13
ATOM     13  N   UNL     1       2.444   6.370  18.068  0.00  0.00    +0.000 NA
ATOM     14  H   UNL     1       1.498   6.050  17.947  0.00  0.00    +0.000 HD
BRANCH  13  15
ATOM     15  C   UNL     1       2.424   7.818  18.092  0.00  0.00    +0.000 C 
BRANCH  15  16
ATOM     16  C   UNL     1       1.672   8.317  19.273  0.00  0.00    +0.000 A 
ATOM     17  C   UNL     1       1.785   7.988  20.611  0.00  0.00    +0.000 A 
ATOM     18  N   UNL     1       0.933   8.725  21.387  0.00  0.00    +0.000 NA
ATOM     19  C   UNL     1       0.308   9.516  20.550  0.00  0.00    +0.000 A 
ATOM     20  N   UNL     1       0.730   9.322  19.263  0.00  0.00    +0.000 N 
BRANCH  20  21
ATOM     21  C   UNL     1       0.337  10.180  18.159  0.00  0.00    +0.000 C 
BRANCH  21  22
ATOM     22  C   UNL     1      -1.145  10.460  18.074  0.00  0.00    +0.000 A 
ATOM     23  C   UNL     1      -1.701  11.471  18.879  0.00  0.00    +0.000 A 
ATOM     24  C   UNL     1      -3.030  11.870  18.698  0.00  0.00    +0.000 A 
ATOM     25  C   UNL     1      -3.806  11.294  17.693  0.00  0.00    +0.000 A 
ATOM     26  C   UNL     1      -3.275  10.259  16.920  0.00  0.00    +0.000 A 
ATOM     27  C   UNL     1      -1.960   9.845  17.115  0.00  0.00    +0.000 A 
BRANCH  25  28
ATOM     28  C   UNL     1      -5.122  11.765  17.434  0.00  0.00    +0.000 C 
ATOM     29  N   UNL     1      -6.197  12.172  17.258  0.00  0.00    +0.000 NA
ENDBRANCH  25  28
ENDBRANCH  21  22
ENDBRANCH  20  21
ENDBRANCH  15  16
ENDBRANCH  13  15
ENDBRANCH  10  13
BRANCH   1  30
ATOM     30  C   UNL     1       4.827   5.506  16.468  0.00  0.00    +0.000 C 
BRANCH  30  37
ATOM     31  C   UNL     1       7.493   4.344  17.323  0.00  0.00    +0.000 C 
ATOM     32  C   UNL     1       7.164   5.815  17.430  0.00  0.00    +0.000 A 
ATOM     33  C   UNL     1       8.203   6.662  17.853  0.00  0.00    +0.000 A 
ATOM     34  C   UNL     1       7.992   8.027  17.997  0.00  0.00    +0.000 A 
ATOM     35  C   UNL     1       6.739   8.564  17.712  0.00  0.00    +0.000 A 
ATOM     36  C   UNL     1       5.695   7.744  17.273  0.00  0.00    +0.000 A 
ATOM     37  C   UNL     1       5.874   6.361  17.144  0.00  0.00    +0.000 A 
ENDBRANCH  30  37
ENDBRANCH   1  30
TORSDOF 8
ENDMDL
MODEL 7
REMARK VINA RESULT:      -7.5      4.092      8.447
REMARK  Name = 
REMARK  9 active torsions:
REMARK  status: ('A' for Active; 'I' for Inactive)
REMARK    1  A    between atoms: C_1  and  C_2
REMARK    2  A    between atoms: C_7  and  C_8
REMARK    3  A    between atoms: C_8  and  N_9
REMARK    4  A    between atoms: C_18  and  N_19
REMARK    5  A    between atoms: N_19  and  C_20
REMARK    6  A    between atoms: C_20  and  C_21
REMARK    7  A    between atoms: N_25  and  C_26
REMARK    8  A    between atoms: C_26  and  C_27
REMARK    9  A    between atoms: C_30  and  C_31
REMARK                            x       y       z     vdW  Elec       q    Type
REMARK                         _______ _______ _______ _____ _____    ______ ____
ROOT
ATOM      1  N   UNL     1      -1.455  10.326  19.360  0.00  0.00    +0.000 N 
ATOM      2  C   UNL     1      -1.058   9.772  20.686  0.00  0.00    +0.000 C 
ATOM      3  C   UNL     1       0.389   9.057  20.923  0.00  0.00    +0.000 C 
ATOM      4  C   UNL     1       1.427   8.714  19.841  0.00  0.00    +0.000 A 
ATOM      5  C   UNL     1       2.126   7.491  19.869  0.00  0.00    +0.000 A 
ATOM      6  C   UNL     1       2.884   7.054  18.766  0.00  0.00    +0.000 A 
ATOM      7  C   UNL     1       2.995   7.846  17.631  0.00  0.00    +0.000 A 
ATOM      8  C   UNL     1       2.439   9.115  17.643  0.00  0.00    +0.000 A 
ATOM      9  C   UNL     1       1.691   9.569  18.754  0.00  0.00    +0.000 A 
ATOM     10  C   UNL     1       0.853  10.795  18.547  0.00  0.00    +0.000 C 
ATOM     11  C   UNL     1      -0.552  10.120  18.327  0.00  0.00    +0.000 C 
ATOM     12  O   UNL     1      -0.829   9.366  17.394  0.00  0.00    +0.000 OA
ENDROOT
BRANCH  10  13
ATOM     13  N   UNL     1       0.827  11.818  19.625  0.00  0.00    +0.000 NA
ATOM     14  H   UNL     1       0.729  11.382  20.525  0.00  0.00    +0.000 HD
BRANCH  13  15
ATOM     15  C   UNL     1       1.849  12.838  19.735  0.00  0.00    +0.000 C 
BRANCH  15  16
ATOM     16  C   UNL     1       1.252  14.196  19.648  0.00  0.00    +0.000 A 
ATOM     17  C   UNL     1       0.918  14.959  18.544  0.00  0.00    +0.000 A 
ATOM     18  N   UNL     1       0.336  16.143  18.905  0.00  0.00    +0.000 NA
ATOM     19  C   UNL     1       0.290  16.115  20.214  0.00  0.00    +0.000 A 
ATOM     20  N   UNL     1       0.815  14.954  20.711  0.00  0.00    +0.000 N 
BRANCH  20  21
ATOM     21  C   UNL     1       0.732  14.581  22.113  0.00  0.00    +0.000 C 
BRANCH  21  22
ATOM     22  C   UNL     1      -0.619  14.064  22.549  0.00  0.00    +0.000 A 
ATOM     23  C   UNL     1      -0.826  12.675  22.639  0.00  0.00    +0.000 A 
ATOM     24  C   UNL     1      -2.003  12.170  23.204  0.00  0.00    +0.000 A 
ATOM     25  C   UNL     1      -2.966  13.040  23.715  0.00  0.00    +0.000 A 
ATOM     26  C   UNL     1      -2.787  14.418  23.589  0.00  0.00    +0.000 A 
ATOM     27  C   UNL     1      -1.627  14.922  23.006  0.00  0.00    +0.000 A 
BRANCH  25  28
ATOM     28  C   UNL     1      -4.115  12.536  24.383  0.00  0.00    +0.000 C 
ATOM     29  N   UNL     1      -5.042  12.084  24.923  0.00  0.00    +0.000 NA
ENDBRANCH  25  28
ENDBRANCH  21  22
ENDBRANCH  20  21
ENDBRANCH  15  16
ENDBRANCH  13  15
ENDBRANCH  10  13
BRANCH   1  30
ATOM     30  C   UNL     1      -2.124  11.631  19.133  0.00  0.00    +0.000 C 
BRANCH  30  37
ATOM     31  C   UNL     1      -4.469  12.774  20.675  0.00  0.00    +0.000 C 
ATOM     32  C   UNL     1      -4.547  12.410  19.211  0.00  0.00    +0.000 A 
ATOM     33  C   UNL     1      -5.745  12.726  18.547  0.00  0.00    +0.000 A 
ATOM     34  C   UNL     1      -5.917  12.415  17.205  0.00  0.00    +0.000 A 
ATOM     35  C   UNL     1      -4.887  11.789  16.506  0.00  0.00    +0.000 A 
ATOM     36  C   UNL     1      -3.680  11.480  17.141  0.00  0.00    +0.000 A 
ATOM     37  C   UNL     1      -3.491  11.760  18.499  0.00  0.00    +0.000 A 
ENDBRANCH  30  37
ENDBRANCH   1  30
TORSDOF 8
ENDMDL
MODEL 8
REMARK VINA RESULT:      -7.5      4.441      8.752
REMARK  Name = 
REMARK  9 active torsions:
REMARK  status: ('A' for Active; 'I' for Inactive)
REMARK    1  A    between atoms: C_1  and  C_2
REMARK    2  A    between atoms: C_7  and  C_8
REMARK    3  A    between atoms: C_8  and  N_9
REMARK    4  A    between atoms: C_18  and  N_19
REMARK    5  A    between atoms: N_19  and  C_20
REMARK    6  A    between atoms: C_20  and  C_21
REMARK    7  A    between atoms: N_25  and  C_26
REMARK    8  A    between atoms: C_26  and  C_27
REMARK    9  A    between atoms: C_30  and  C_31
REMARK                            x       y       z     vdW  Elec       q    Type
REMARK                         _______ _______ _______ _____ _____    ______ ____
ROOT
ATOM      1  N   UNL     1      -1.906  10.773  19.447  0.00  0.00    +0.000 N 
ATOM      2  C   UNL     1      -1.422  10.436  20.816  0.00  0.00    +0.000 C 
ATOM      3  C   UNL     1       0.053   9.788  21.071  0.00  0.00    +0.000 C 
ATOM      4  C   UNL     1       1.037   9.300  19.994  0.00  0.00    +0.000 A 
ATOM      5  C   UNL     1       1.767   8.107  20.167  0.00  0.00    +0.000 A 
ATOM      6  C   UNL     1       2.472   7.518  19.101  0.00  0.00    +0.000 A 
ATOM      7  C   UNL     1       2.499   8.128  17.853  0.00  0.00    +0.000 A 
ATOM      8  C   UNL     1       1.914   9.375  17.706  0.00  0.00    +0.000 A 
ATOM      9  C   UNL     1       1.218   9.982  18.776  0.00  0.00    +0.000 A 
ATOM     10  C   UNL     1       0.340  11.148  18.436  0.00  0.00    +0.000 C 
ATOM     11  C   UNL     1      -1.059  10.425  18.405  0.00  0.00    +0.000 C 
ATOM     12  O   UNL     1      -1.369   9.533  17.616  0.00  0.00    +0.000 OA
ENDROOT
BRANCH  10  13
ATOM     13  N   UNL     1       0.349  12.324  19.345  0.00  0.00    +0.000 NA
ATOM     14  H   UNL     1       0.730  12.075  20.242  0.00  0.00    +0.000 HD
BRANCH  13  15
ATOM     15  C   UNL     1       0.932  13.590  18.951  0.00  0.00    +0.000 C 
BRANCH  15  16
ATOM     16  C   UNL     1       1.805  14.128  20.026  0.00  0.00    +0.000 A 
ATOM     17  C   UNL     1       3.167  13.996  20.225  0.00  0.00    +0.000 A 
ATOM     18  N   UNL     1       3.589  14.700  21.319  0.00  0.00    +0.000 NA
ATOM     19  C   UNL     1       2.511  15.279  21.789  0.00  0.00    +0.000 A 
ATOM     20  N   UNL     1       1.410  14.979  21.035  0.00  0.00    +0.000 N 
BRANCH  20  21
ATOM     21  C   UNL     1       0.120  15.622  21.221  0.00  0.00    +0.000 C 
BRANCH  21  22
ATOM     22  C   UNL     1      -0.950  14.731  21.807  0.00  0.00    +0.000 A 
ATOM     23  C   UNL     1      -0.577  13.693  22.680  0.00  0.00    +0.000 A 
ATOM     24  C   UNL     1      -1.552  12.964  23.371  0.00  0.00    +0.000 A 
ATOM     25  C   UNL     1      -2.901  13.286  23.229  0.00  0.00    +0.000 A 
ATOM     26  C   UNL     1      -3.281  14.285  22.331  0.00  0.00    +0.000 A 
ATOM     27  C   UNL     1      -2.314  14.995  21.624  0.00  0.00    +0.000 A 
BRANCH  25  28
ATOM     28  C   UNL     1      -3.890  12.622  24.005  0.00  0.00    +0.000 C 
ATOM     29  N   UNL     1      -4.728  12.106  24.626  0.00  0.00    +0.000 NA
ENDBRANCH  25  28
ENDBRANCH  21  22
ENDBRANCH  20  21
ENDBRANCH  15  16
ENDBRANCH  13  15
ENDBRANCH  10  13
BRANCH   1  30
ATOM     30  C   UNL     1      -2.620  12.017  19.063  0.00  0.00    +0.000 C 
BRANCH  30  37
ATOM     31  C   UNL     1      -4.113  11.403  16.499  0.00  0.00    +0.000 C 
ATOM     32  C   UNL     1      -4.810  11.710  17.804  0.00  0.00    +0.000 A 
ATOM     33  C   UNL     1      -6.211  11.595  17.809  0.00  0.00    +0.000 A 
ATOM     34  C   UNL     1      -6.942  11.873  18.957  0.00  0.00    +0.000 A 
ATOM     35  C   UNL     1      -6.279  12.263  20.118  0.00  0.00    +0.000 A 
ATOM     36  C   UNL     1      -4.884  12.368  20.141  0.00  0.00    +0.000 A 
ATOM     37  C   UNL     1      -4.126  12.118  18.990  0.00  0.00    +0.000 A 
ENDBRANCH  30  37
ENDBRANCH   1  30
TORSDOF 8
ENDMDL
MODEL 9
REMARK VINA RESULT:      -7.4      5.911      8.811
REMARK  Name = 
REMARK  9 active torsions:
REMARK  status: ('A' for Active; 'I' for Inactive)
REMARK    1  A    between atoms: C_1  and  C_2
REMARK    2  A    between atoms: C_7  and  C_8
REMARK    3  A    between atoms: C_8  and  N_9
REMARK    4  A    between atoms: C_18  and  N_19
REMARK    5  A    between atoms: N_19  and  C_20
REMARK    6  A    between atoms: C_20  and  C_21
REMARK    7  A    between atoms: N_25  and  C_26
REMARK    8  A    between atoms: C_26  and  C_27
REMARK    9  A    between atoms: C_30  and  C_31
REMARK                            x       y       z     vdW  Elec       q    Type
REMARK                         _______ _______ _______ _____ _____    ______ ____
ROOT
ATOM      1  N   UNL     1       0.526  13.787  19.508  0.00  0.00    +0.000 N 
ATOM      2  C   UNL     1       0.023  12.881  18.436  0.00  0.00    +0.000 C 
ATOM      3  C   UNL     1      -0.353  11.322  18.732  0.00  0.00    +0.000 C 
ATOM      4  C   UNL     1      -0.099  10.553  20.039  0.00  0.00    +0.000 A 
ATOM      5  C   UNL     1       0.367   9.222  20.018  0.00  0.00    +0.000 A 
ATOM      6  C   UNL     1       0.840   8.593  21.185  0.00  0.00    +0.000 A 
ATOM      7  C   UNL     1       0.819   9.261  22.402  0.00  0.00    +0.000 A 
ATOM      8  C   UNL     1       0.227  10.512  22.469  0.00  0.00    +0.000 A 
ATOM      9  C   UNL     1      -0.266  11.145  21.305  0.00  0.00    +0.000 A 
ATOM     10  C   UNL     1      -0.571  12.609  21.410  0.00  0.00    +0.000 C 
ATOM     11  C   UNL     1       0.730  13.197  20.747  0.00  0.00    +0.000 C 
ATOM     12  O   UNL     1       1.868  13.061  21.196  0.00  0.00    +0.000 OA
ENDROOT
BRANCH  10  13
ATOM     13  N   UNL     1      -1.812  13.116  20.768  0.00  0.00    +0.000 NA
ATOM     14  H   UNL     1      -1.637  13.373  19.812  0.00  0.00    +0.000 HD
BRANCH  13  15
ATOM     15  C   UNL     1      -3.053  12.369  20.807  0.00  0.00    +0.000 C 
BRANCH  15  16
ATOM     16  C   UNL     1      -4.213  13.258  20.543  0.00  0.00    +0.000 A 
ATOM     17  C   UNL     1      -4.378  14.611  20.777  0.00  0.00    +0.000 A 
ATOM     18  N   UNL     1      -5.591  15.058  20.332  0.00  0.00    +0.000 NA
ATOM     19  C   UNL     1      -6.173  14.005  19.812  0.00  0.00    +0.000 A 
ATOM     20  N   UNL     1      -5.376  12.896  19.898  0.00  0.00    +0.000 N 
BRANCH  20  21
ATOM     21  C   UNL     1      -5.693  11.637  19.247  0.00  0.00    +0.000 C 
BRANCH  21  22
ATOM     22  C   UNL     1      -4.864  11.334  18.022  0.00  0.00    +0.000 A 
ATOM     23  C   UNL     1      -3.962  10.254  18.052  0.00  0.00    +0.000 A 
ATOM     24  C   UNL     1      -3.311   9.842  16.883  0.00  0.00    +0.000 A 
ATOM     25  C   UNL     1      -3.577  10.477  15.670  0.00  0.00    +0.000 A 
ATOM     26  C   UNL     1      -4.436  11.576  15.641  0.00  0.00    +0.000 A 
ATOM     27  C   UNL     1      -5.067  12.002  16.807  0.00  0.00    +0.000 A 
BRANCH  25  28
ATOM     28  C   UNL     1      -3.000   9.999  14.462  0.00  0.00    +0.000 C 
ATOM     29  N   UNL     1      -2.541   9.644  13.454  0.00  0.00    +0.000 NA
ENDBRANCH  25  28
ENDBRANCH  21  22
ENDBRANCH  20  21
ENDBRANCH  15  16
ENDBRANCH  13  15
ENDBRANCH  10  13
BRANCH   1  30
ATOM     30  C   UNL     1       0.091  15.188  19.732  0.00  0.00    +0.000 C 
BRANCH  30  37
ATOM     31  C   UNL     1       2.982  15.645  18.949  0.00  0.00    +0.000 C 
ATOM     32  C   UNL     1       1.839  16.453  18.381  0.00  0.00    +0.000 A 
ATOM     33  C   UNL     1       2.163  17.377  17.372  0.00  0.00    +0.000 A 
ATOM     34  C   UNL     1       1.181  18.176  16.800  0.00  0.00    +0.000 A 
ATOM     35  C   UNL     1      -0.139  18.056  17.225  0.00  0.00    +0.000 A 
ATOM     36  C   UNL     1      -0.488  17.131  18.216  0.00  0.00    +0.000 A 
ATOM     37  C   UNL     1       0.486  16.332  18.826  0.00  0.00    +0.000 A 
ENDBRANCH  30  37
ENDBRANCH   1  30
TORSDOF 8
ENDMDL
