MODEL 1
REMARK VINA RESULT:      -7.7      0.000      0.000
REMARK  Name = 
REMARK  8 active torsions:
REMARK  status: ('A' for Active; 'I' for Inactive)
REMARK    1  A    between atoms: C_1  and  C_2
REMARK    2  A    between atoms: C_2  and  O_3
REMARK    3  A    between atoms: O_3  and  C_4
REMARK    4  A    between atoms: C_4  and  C_6
REMARK    5  A    between atoms: C_6  and  C_7
REMARK    6  A    between atoms: C_12  and  C_14
REMARK    7  A    between atoms: C_16  and  C_17
REMARK    8  A    between atoms: C_19  and  C_20
REMARK                            x       y       z     vdW  Elec       q    Type
REMARK                         _______ _______ _______ _____ _____    ______ ____
ROOT
ATOM      1  C   UNL     1       4.771   5.371  17.290  0.00  0.00    +0.000 A 
ATOM      2  C   UNL     1       4.755   4.509  18.375  0.00  0.00    +0.000 A 
ATOM      3  S   UNL     1       3.610   5.051  19.533  0.00  0.00    +0.000 S 
ATOM      4  C   UNL     1       3.273   6.398  18.541  0.00  0.00    +0.000 A 
ATOM      5  N   UNL     1       2.342   7.263  19.051  0.00  0.00    +0.000 N 
ATOM      6  C   UNL     1       2.072   8.467  18.447  0.00  0.00    +0.000 C 
ATOM      7  O   UNL     1       2.624   8.935  17.457  0.00  0.00    +0.000 OA
ATOM      8  N   UNL     1       3.930   6.464  17.413  0.00  0.00    +0.000 NA
ATOM      9  H   UNL     1       1.935   7.010  19.938  0.00  0.00    +0.000 HD
ENDROOT
BRANCH   6  10
ATOM     10  C   UNL     1       1.036   9.298  19.123  0.00  0.00    +0.000 A 
ATOM     11  C   UNL     1       0.885   9.155  20.509  0.00  0.00    +0.000 A 
ATOM     12  C   UNL     1      -0.052   9.924  21.208  0.00  0.00    +0.000 A 
ATOM     13  C   UNL     1      -0.228   9.761  22.689  0.00  0.00    +0.000 C 
ATOM     14  C   UNL     1      -0.821  10.861  20.507  0.00  0.00    +0.000 A 
ATOM     15  C   UNL     1      -0.672  11.026  19.122  0.00  0.00    +0.000 A 
ATOM     16  C   UNL     1      -1.470  12.065  18.389  0.00  0.00    +0.000 C 
ATOM     17  C   UNL     1       0.259  10.237  18.430  0.00  0.00    +0.000 A 
ENDBRANCH   6  10
BRANCH   1  18
ATOM     18  C   UNL     1       5.594   5.257  16.057  0.00  0.00    +0.000 C 
BRANCH  18  19
ATOM     19  C   UNL     1       7.072   5.329  16.355  0.00  0.00    +0.000 C 
ATOM     20  O   UNL     1       7.796   4.374  16.609  0.00  0.00    +0.000 OA
BRANCH  19  21
ATOM     21  O   UNL     1       7.445   6.640  16.463  0.00  0.00    +0.000 OA
BRANCH  21  23
ATOM     22  C   UNL     1       7.877   8.611  17.736  0.00  0.00    +0.000 C 
ATOM     23  C   UNL     1       7.689   7.106  17.797  0.00  0.00    +0.000 C 
ENDBRANCH  21  23
ENDBRANCH  19  21
ENDBRANCH  18  19
ENDBRANCH   1  18
TORSDOF 5
ENDMDL
MODEL 2
REMARK VINA RESULT:      -7.4      5.973      7.371
REMARK  Name = 
REMARK  8 active torsions:
REMARK  status: ('A' for Active; 'I' for Inactive)
REMARK    1  A    between atoms: C_1  and  C_2
REMARK    2  A    between atoms: C_2  and  O_3
REMARK    3  A    between atoms: O_3  and  C_4
REMARK    4  A    between atoms: C_4  and  C_6
REMARK    5  A    between atoms: C_6  and  C_7
REMARK    6  A    between atoms: C_12  and  C_14
REMARK    7  A    between atoms: C_16  and  C_17
REMARK    8  A    between atoms: C_19  and  C_20
REMARK                            x       y       z     vdW  Elec       q    Type
REMARK                         _______ _______ _______ _____ _____    ______ ____
ROOT
ATOM      1  C   UNL     1       6.720   5.743  16.896  0.00  0.00    +0.000 A 
ATOM      2  C   UNL     1       7.078   4.812  17.857  0.00  0.00    +0.000 A 
ATOM      3  S   UNL     1       7.962   5.579  19.112  0.00  0.00    +0.000 S 
ATOM      4  C   UNL     1       7.850   7.055  18.262  0.00  0.00    +0.000 A 
ATOM      5  N   UNL     1       8.470   8.113  18.872  0.00  0.00    +0.000 N 
ATOM      6  C   UNL     1       8.599   9.328  18.247  0.00  0.00    +0.000 C 
ATOM      7  O   UNL     1       8.245   9.612  17.107  0.00  0.00    +0.000 OA
ATOM      8  N   UNL     1       7.192   7.023  17.133  0.00  0.00    +0.000 NA
ATOM      9  H   UNL     1       8.905   7.923  19.762  0.00  0.00    +0.000 HD
ENDROOT
BRANCH   6  10
ATOM     10  C   UNL     1       9.300  10.379  19.038  0.00  0.00    +0.000 A 
ATOM     11  C   UNL     1       8.817  10.660  20.323  0.00  0.00    +0.000 A 
ATOM     12  C   UNL     1       9.445  11.617  21.127  0.00  0.00    +0.000 A 
ATOM     13  C   UNL     1       8.920  11.933  22.497  0.00  0.00    +0.000 C 
ATOM     14  C   UNL     1      10.582  12.274  20.641  0.00  0.00    +0.000 A 
ATOM     15  C   UNL     1      11.086  11.994  19.362  0.00  0.00    +0.000 A 
ATOM     16  C   UNL     1      12.332  12.671  18.870  0.00  0.00    +0.000 C 
ATOM     17  C   UNL     1      10.437  11.044  18.559  0.00  0.00    +0.000 A 
ENDBRANCH   6  10
BRANCH   1  18
ATOM     18  C   UNL     1       5.928   5.508  15.660  0.00  0.00    +0.000 C 
BRANCH  18  19
ATOM     19  C   UNL     1       6.766   4.916  14.554  0.00  0.00    +0.000 C 
ATOM     20  O   UNL     1       7.789   5.409  14.093  0.00  0.00    +0.000 OA
BRANCH  19  21
ATOM     21  O   UNL     1       6.119   3.832  14.031  0.00  0.00    +0.000 OA
BRANCH  21  23
ATOM     22  C   UNL     1       5.024   3.322  11.974  0.00  0.00    +0.000 C 
ATOM     23  C   UNL     1       6.363   3.576  12.641  0.00  0.00    +0.000 C 
ENDBRANCH  21  23
ENDBRANCH  19  21
ENDBRANCH  18  19
ENDBRANCH   1  18
TORSDOF 5
ENDMDL
MODEL 3
REMARK VINA RESULT:      -7.4      1.249      2.147
REMARK  Name = 
REMARK  8 active torsions:
REMARK  status: ('A' for Active; 'I' for Inactive)
REMARK    1  A    between atoms: C_1  and  C_2
REMARK    2  A    between atoms: C_2  and  O_3
REMARK    3  A    between atoms: O_3  and  C_4
REMARK    4  A    between atoms: C_4  and  C_6
REMARK    5  A    between atoms: C_6  and  C_7
REMARK    6  A    between atoms: C_12  and  C_14
REMARK    7  A    between atoms: C_16  and  C_17
REMARK    8  A    between atoms: C_19  and  C_20
REMARK                            x       y       z     vdW  Elec       q    Type
REMARK                         _______ _______ _______ _____ _____    ______ ____
ROOT
ATOM      1  C   UNL     1       4.970   5.737  17.061  0.00  0.00    +0.000 A 
ATOM      2  C   UNL     1       5.098   4.877  18.140  0.00  0.00    +0.000 A 
ATOM      3  S   UNL     1       3.975   5.309  19.365  0.00  0.00    +0.000 S 
ATOM      4  C   UNL     1       3.457   6.618  18.401  0.00  0.00    +0.000 A 
ATOM      5  N   UNL     1       2.479   7.391  18.968  0.00  0.00    +0.000 N 
ATOM      6  C   UNL     1       2.063   8.564  18.387  0.00  0.00    +0.000 C 
ATOM      7  O   UNL     1       2.511   9.083  17.370  0.00  0.00    +0.000 OA
ATOM      8  N   UNL     1       4.039   6.746  17.237  0.00  0.00    +0.000 NA
ATOM      9  H   UNL     1       2.149   7.101  19.876  0.00  0.00    +0.000 HD
ENDROOT
BRANCH   6  10
ATOM     10  C   UNL     1       0.994   9.295  19.125  0.00  0.00    +0.000 A 
ATOM     11  C   UNL     1       0.943   9.146  20.518  0.00  0.00    +0.000 A 
ATOM     12  C   UNL     1      -0.020   9.823  21.274  0.00  0.00    +0.000 A 
ATOM     13  C   UNL     1      -0.088   9.653  22.763  0.00  0.00    +0.000 C 
ATOM     14  C   UNL     1      -0.919  10.676  20.621  0.00  0.00    +0.000 A 
ATOM     15  C   UNL     1      -0.872  10.847  19.230  0.00  0.00    +0.000 A 
ATOM     16  C   UNL     1      -1.811  11.799  18.548  0.00  0.00    +0.000 C 
ATOM     17  C   UNL     1       0.088  10.149  18.482  0.00  0.00    +0.000 A 
ENDBRANCH   6  10
BRANCH   1  18
ATOM     18  C   UNL     1       5.729   5.701  15.783  0.00  0.00    +0.000 C 
BRANCH  18  19
ATOM     19  C   UNL     1       6.715   4.559  15.741  0.00  0.00    +0.000 C 
ATOM     20  O   UNL     1       7.841   4.572  16.225  0.00  0.00    +0.000 OA
BRANCH  19  21
ATOM     21  O   UNL     1       6.223   3.570  14.937  0.00  0.00    +0.000 OA
BRANCH  21  23
ATOM     22  C   UNL     1       6.343   3.572  12.554  0.00  0.00    +0.000 C 
ATOM     23  C   UNL     1       5.534   4.015  13.760  0.00  0.00    +0.000 C 
ENDBRANCH  21  23
ENDBRANCH  19  21
ENDBRANCH  18  19
ENDBRANCH   1  18
TORSDOF 5
ENDMDL
MODEL 4
REMARK VINA RESULT:      -7.3      1.289      1.745
REMARK  Name = 
REMARK  8 active torsions:
REMARK  status: ('A' for Active; 'I' for Inactive)
REMARK    1  A    between atoms: C_1  and  C_2
REMARK    2  A    between atoms: C_2  and  O_3
REMARK    3  A    between atoms: O_3  and  C_4
REMARK    4  A    between atoms: C_4  and  C_6
REMARK    5  A    between atoms: C_6  and  C_7
REMARK    6  A    between atoms: C_12  and  C_14
REMARK    7  A    between atoms: C_16  and  C_17
REMARK    8  A    between atoms: C_19  and  C_20
REMARK                            x       y       z     vdW  Elec       q    Type
REMARK                         _______ _______ _______ _____ _____    ______ ____
ROOT
ATOM      1  C   UNL     1       4.799   4.748  17.251  0.00  0.00    +0.000 A 
ATOM      2  C   UNL     1       4.840   3.958  18.389  0.00  0.00    +0.000 A 
ATOM      3  S   UNL     1       3.804   4.614  19.591  0.00  0.00    +0.000 S 
ATOM      4  C   UNL     1       3.435   5.907  18.540  0.00  0.00    +0.000 A 
ATOM      5  N   UNL     1       2.573   6.836  19.059  0.00  0.00    +0.000 N 
ATOM      6  C   UNL     1       2.296   8.007  18.398  0.00  0.00    +0.000 C 
ATOM      7  O   UNL     1       2.785   8.391  17.341  0.00  0.00    +0.000 OA
ATOM      8  N   UNL     1       4.005   5.877  17.363  0.00  0.00    +0.000 NA
ATOM      9  H   UNL     1       2.228   6.655  19.989  0.00  0.00    +0.000 HD
ENDROOT
BRANCH   6  10
ATOM     10  C   UNL     1       1.342   8.918  19.092  0.00  0.00    +0.000 A 
ATOM     11  C   UNL     1       1.196   8.776  20.479  0.00  0.00    +0.000 A 
ATOM     12  C   UNL     1       0.335   9.615  21.195  0.00  0.00    +0.000 A 
ATOM     13  C   UNL     1       0.163   9.456  22.677  0.00  0.00    +0.000 C 
ATOM     14  C   UNL     1      -0.361  10.619  20.510  0.00  0.00    +0.000 A 
ATOM     15  C   UNL     1      -0.215  10.783  19.125  0.00  0.00    +0.000 A 
ATOM     16  C   UNL     1      -0.931  11.892  18.410  0.00  0.00    +0.000 C 
ATOM     17  C   UNL     1       0.638   9.924  18.416  0.00  0.00    +0.000 A 
ENDBRANCH   6  10
BRANCH   1  18
ATOM     18  C   UNL     1       5.521   4.526  15.971  0.00  0.00    +0.000 C 
BRANCH  18  19
ATOM     19  C   UNL     1       7.007   4.748  16.113  0.00  0.00    +0.000 C 
ATOM     20  O   UNL     1       7.669   4.521  17.118  0.00  0.00    +0.000 OA
BRANCH  19  21
ATOM     21  O   UNL     1       7.472   5.400  15.004  0.00  0.00    +0.000 OA
BRANCH  21  23
ATOM     22  C   UNL     1       7.983   5.455  12.675  0.00  0.00    +0.000 C 
ATOM     23  C   UNL     1       7.132   4.800  13.747  0.00  0.00    +0.000 C 
ENDBRANCH  21  23
ENDBRANCH  19  21
ENDBRANCH  18  19
ENDBRANCH   1  18
TORSDOF 5
ENDMDL
MODEL 5
REMARK VINA RESULT:      -7.3      1.028      2.188
REMARK  Name = 
REMARK  8 active torsions:
REMARK  status: ('A' for Active; 'I' for Inactive)
REMARK    1  A    between atoms: C_1  and  C_2
REMARK    2  A    between atoms: C_2  and  O_3
REMARK    3  A    between atoms: O_3  and  C_4
REMARK    4  A    between atoms: C_4  and  C_6
REMARK    5  A    between atoms: C_6  and  C_7
REMARK    6  A    between atoms: C_12  and  C_14
REMARK    7  A    between atoms: C_16  and  C_17
REMARK    8  A    between atoms: C_19  and  C_20
REMARK                            x       y       z     vdW  Elec       q    Type
REMARK                         _______ _______ _______ _____ _____    ______ ____
ROOT
ATOM      1  C   UNL     1       4.571   4.426  17.177  0.00  0.00    +0.000 A 
ATOM      2  C   UNL     1       4.426   3.499  18.197  0.00  0.00    +0.000 A 
ATOM      3  S   UNL     1       3.373   4.119  19.402  0.00  0.00    +0.000 S 
ATOM      4  C   UNL     1       3.242   5.570  18.514  0.00  0.00    +0.000 A 
ATOM      5  N   UNL     1       2.449   6.524  19.094  0.00  0.00    +0.000 N 
ATOM      6  C   UNL     1       2.362   7.795  18.582  0.00  0.00    +0.000 C 
ATOM      7  O   UNL     1       2.979   8.247  17.623  0.00  0.00    +0.000 OA
ATOM      8  N   UNL     1       3.903   5.620  17.387  0.00  0.00    +0.000 NA
ATOM      9  H   UNL     1       2.008   6.269  19.964  0.00  0.00    +0.000 HD
ENDROOT
BRANCH   6  10
ATOM     10  C   UNL     1       1.460   8.720  19.326  0.00  0.00    +0.000 A 
ATOM     11  C   UNL     1       0.774   9.695  18.590  0.00  0.00    +0.000 A 
ATOM     12  C   UNL     1      -0.107  10.578  19.224  0.00  0.00    +0.000 A 
ATOM     13  C   UNL     1      -0.831  11.634  18.442  0.00  0.00    +0.000 C 
ATOM     14  C   UNL     1      -0.315  10.458  20.604  0.00  0.00    +0.000 A 
ATOM     15  C   UNL     1       0.355   9.478  21.352  0.00  0.00    +0.000 A 
ATOM     16  C   UNL     1       0.089   9.330  22.822  0.00  0.00    +0.000 C 
ATOM     17  C   UNL     1       1.248   8.610  20.707  0.00  0.00    +0.000 A 
ENDBRANCH   6  10
BRANCH   1  18
ATOM     18  C   UNL     1       5.370   4.281  15.931  0.00  0.00    +0.000 C 
BRANCH  18  19
ATOM     19  C   UNL     1       6.692   5.004  16.020  0.00  0.00    +0.000 C 
ATOM     20  O   UNL     1       7.296   5.504  15.078  0.00  0.00    +0.000 OA
BRANCH  19  21
ATOM     21  O   UNL     1       7.193   4.870  17.284  0.00  0.00    +0.000 OA
BRANCH  21  23
ATOM     22  C   UNL     1       7.871   5.759  19.392  0.00  0.00    +0.000 C 
ATOM     23  C   UNL     1       7.521   6.095  17.954  0.00  0.00    +0.000 C 
ENDBRANCH  21  23
ENDBRANCH  19  21
ENDBRANCH  18  19
ENDBRANCH   1  18
TORSDOF 5
ENDMDL
MODEL 6
REMARK VINA RESULT:      -7.2      1.150      1.364
REMARK  Name = 
REMARK  8 active torsions:
REMARK  status: ('A' for Active; 'I' for Inactive)
REMARK    1  A    between atoms: C_1  and  C_2
REMARK    2  A    between atoms: C_2  and  O_3
REMARK    3  A    between atoms: O_3  and  C_4
REMARK    4  A    between atoms: C_4  and  C_6
REMARK    5  A    between atoms: C_6  and  C_7
REMARK    6  A    between atoms: C_12  and  C_14
REMARK    7  A    between atoms: C_16  and  C_17
REMARK    8  A    between atoms: C_19  and  C_20
REMARK                            x       y       z     vdW  Elec       q    Type
REMARK                         _______ _______ _______ _____ _____    ______ ____
ROOT
ATOM      1  C   UNL     1       4.570   4.174  17.110  0.00  0.00    +0.000 A 
ATOM      2  C   UNL     1       4.032   3.139  17.858  0.00  0.00    +0.000 A 
ATOM      3  S   UNL     1       2.763   3.735  18.849  0.00  0.00    +0.000 S 
ATOM      4  C   UNL     1       3.064   5.306  18.255  0.00  0.00    +0.000 A 
ATOM      5  N   UNL     1       2.259   6.280  18.785  0.00  0.00    +0.000 N 
ATOM      6  C   UNL     1       2.474   7.611  18.525  0.00  0.00    +0.000 C 
ATOM      7  O   UNL     1       3.387   8.094  17.863  0.00  0.00    +0.000 OA
ATOM      8  N   UNL     1       4.018   5.417  17.368  0.00  0.00    +0.000 NA
ATOM      9  H   UNL     1       1.563   5.973  19.447  0.00  0.00    +0.000 HD
ENDROOT
BRANCH   6  10
ATOM     10  C   UNL     1       1.517   8.548  19.176  0.00  0.00    +0.000 A 
ATOM     11  C   UNL     1       1.385   8.484  20.570  0.00  0.00    +0.000 A 
ATOM     12  C   UNL     1       0.522   9.353  21.247  0.00  0.00    +0.000 A 
ATOM     13  C   UNL     1       0.366   9.275  22.737  0.00  0.00    +0.000 C 
ATOM     14  C   UNL     1      -0.192  10.309  20.514  0.00  0.00    +0.000 A 
ATOM     15  C   UNL     1      -0.060  10.396  19.120  0.00  0.00    +0.000 A 
ATOM     16  C   UNL     1      -0.796  11.455  18.351  0.00  0.00    +0.000 C 
ATOM     17  C   UNL     1       0.795   9.507  18.452  0.00  0.00    +0.000 A 
ENDBRANCH   6  10
BRANCH   1  18
ATOM     18  C   UNL     1       5.666   4.091  16.108  0.00  0.00    +0.000 C 
BRANCH  18  19
ATOM     19  C   UNL     1       6.263   5.444  15.808  0.00  0.00    +0.000 C 
ATOM     20  O   UNL     1       5.860   6.229  14.959  0.00  0.00    +0.000 OA
BRANCH  19  21
ATOM     21  O   UNL     1       7.425   5.588  16.515  0.00  0.00    +0.000 OA
BRANCH  21  23
ATOM     22  C   UNL     1       7.734   5.942  18.854  0.00  0.00    +0.000 C 
ATOM     23  C   UNL     1       7.411   6.604  17.527  0.00  0.00    +0.000 C 
ENDBRANCH  21  23
ENDBRANCH  19  21
ENDBRANCH  18  19
ENDBRANCH   1  18
TORSDOF 5
ENDMDL
MODEL 7
REMARK VINA RESULT:      -7.0      1.787      2.773
REMARK  Name = 
REMARK  8 active torsions:
REMARK  status: ('A' for Active; 'I' for Inactive)
REMARK    1  A    between atoms: C_1  and  C_2
REMARK    2  A    between atoms: C_2  and  O_3
REMARK    3  A    between atoms: O_3  and  C_4
REMARK    4  A    between atoms: C_4  and  C_6
REMARK    5  A    between atoms: C_6  and  C_7
REMARK    6  A    between atoms: C_12  and  C_14
REMARK    7  A    between atoms: C_16  and  C_17
REMARK    8  A    between atoms: C_19  and  C_20
REMARK                            x       y       z     vdW  Elec       q    Type
REMARK                         _______ _______ _______ _____ _____    ______ ____
ROOT
ATOM      1  C   UNL     1       3.496   3.552  19.078  0.00  0.00    +0.000 A 
ATOM      2  C   UNL     1       3.121   2.874  20.227  0.00  0.00    +0.000 A 
ATOM      3  S   UNL     1       2.177   3.901  21.227  0.00  0.00    +0.000 S 
ATOM      4  C   UNL     1       2.388   5.163  20.098  0.00  0.00    +0.000 A 
ATOM      5  N   UNL     1       1.792   6.346  20.446  0.00  0.00    +0.000 N 
ATOM      6  C   UNL     1       1.994   7.494  19.720  0.00  0.00    +0.000 C 
ATOM      7  O   UNL     1       2.728   7.631  18.747  0.00  0.00    +0.000 OA
ATOM      8  N   UNL     1       3.086   4.874  19.031  0.00  0.00    +0.000 NA
ATOM      9  H   UNL     1       1.275   6.348  21.312  0.00  0.00    +0.000 HD
ENDROOT
BRANCH   6  10
ATOM     10  C   UNL     1       1.280   8.700  20.227  0.00  0.00    +0.000 A 
ATOM     11  C   UNL     1       1.088   9.766  19.338  0.00  0.00    +0.000 A 
ATOM     12  C   UNL     1       0.403  10.918  19.743  0.00  0.00    +0.000 A 
ATOM     13  C   UNL     1       0.210  12.069  18.800  0.00  0.00    +0.000 C 
ATOM     14  C   UNL     1      -0.112  10.981  21.043  0.00  0.00    +0.000 A 
ATOM     15  C   UNL     1       0.059   9.915  21.940  0.00  0.00    +0.000 A 
ATOM     16  C   UNL     1      -0.538   9.976  23.317  0.00  0.00    +0.000 C 
ATOM     17  C   UNL     1       0.762   8.774  21.527  0.00  0.00    +0.000 A 
ENDBRANCH   6  10
BRANCH   1  18
ATOM     18  C   UNL     1       4.293   3.027  17.938  0.00  0.00    +0.000 C 
BRANCH  18  19
ATOM     19  C   UNL     1       5.283   4.043  17.423  0.00  0.00    +0.000 C 
ATOM     20  O   UNL     1       5.288   4.527  16.298  0.00  0.00    +0.000 OA
BRANCH  19  21
ATOM     21  O   UNL     1       6.273   4.215  18.351  0.00  0.00    +0.000 OA
BRANCH  21  23
ATOM     22  C   UNL     1       7.797   5.915  19.041  0.00  0.00    +0.000 C 
ATOM     23  C   UNL     1       7.405   4.978  17.913  0.00  0.00    +0.000 C 
ENDBRANCH  21  23
ENDBRANCH  19  21
ENDBRANCH  18  19
ENDBRANCH   1  18
TORSDOF 5
ENDMDL
MODEL 8
REMARK VINA RESULT:      -7.0      1.677      2.015
REMARK  Name = 
REMARK  8 active torsions:
REMARK  status: ('A' for Active; 'I' for Inactive)
REMARK    1  A    between atoms: C_1  and  C_2
REMARK    2  A    between atoms: C_2  and  O_3
REMARK    3  A    between atoms: O_3  and  C_4
REMARK    4  A    between atoms: C_4  and  C_6
REMARK    5  A    between atoms: C_6  and  C_7
REMARK    6  A    between atoms: C_12  and  C_14
REMARK    7  A    between atoms: C_16  and  C_17
REMARK    8  A    between atoms: C_19  and  C_20
REMARK                            x       y       z     vdW  Elec       q    Type
REMARK                         _______ _______ _______ _____ _____    ______ ____
ROOT
ATOM      1  C   UNL     1       3.571   3.747  19.028  0.00  0.00    +0.000 A 
ATOM      2  C   UNL     1       3.253   3.089  20.205  0.00  0.00    +0.000 A 
ATOM      3  S   UNL     1       2.307   4.112  21.208  0.00  0.00    +0.000 S 
ATOM      4  C   UNL     1       2.442   5.349  20.040  0.00  0.00    +0.000 A 
ATOM      5  N   UNL     1       1.819   6.521  20.376  0.00  0.00    +0.000 N 
ATOM      6  C   UNL     1       1.961   7.655  19.615  0.00  0.00    +0.000 C 
ATOM      7  O   UNL     1       2.661   7.789  18.616  0.00  0.00    +0.000 OA
ATOM      8  N   UNL     1       3.117   5.053  18.960  0.00  0.00    +0.000 NA
ATOM      9  H   UNL     1       1.328   6.529  21.257  0.00  0.00    +0.000 HD
ENDROOT
BRANCH   6  10
ATOM     10  C   UNL     1       1.224   8.851  20.112  0.00  0.00    +0.000 A 
ATOM     11  C   UNL     1       0.732   8.816  21.424  0.00  0.00    +0.000 A 
ATOM     12  C   UNL     1       0.053   9.915  21.961  0.00  0.00    +0.000 A 
ATOM     13  C   UNL     1      -0.490   9.875  23.359  0.00  0.00    +0.000 C 
ATOM     14  C   UNL     1      -0.107  11.065  21.177  0.00  0.00    +0.000 A 
ATOM     15  C   UNL     1       0.392  11.120  19.867  0.00  0.00    +0.000 A 
ATOM     16  C   UNL     1       0.255  12.374  19.053  0.00  0.00    +0.000 C 
ATOM     17  C   UNL     1       1.057  10.005  19.335  0.00  0.00    +0.000 A 
ENDBRANCH   6  10
BRANCH   1  18
ATOM     18  C   UNL     1       4.350   3.217  17.878  0.00  0.00    +0.000 C 
BRANCH  18  19
ATOM     19  C   UNL     1       5.417   4.182  17.424  0.00  0.00    +0.000 C 
ATOM     20  O   UNL     1       5.493   4.690  16.311  0.00  0.00    +0.000 OA
BRANCH  19  21
ATOM     21  O   UNL     1       6.380   4.274  18.390  0.00  0.00    +0.000 OA
BRANCH  21  23
ATOM     22  C   UNL     1       7.742   6.218  18.634  0.00  0.00    +0.000 C 
ATOM     23  C   UNL     1       7.622   4.857  17.972  0.00  0.00    +0.000 C 
ENDBRANCH  21  23
ENDBRANCH  19  21
ENDBRANCH  18  19
ENDBRANCH   1  18
TORSDOF 5
ENDMDL
MODEL 9
REMARK VINA RESULT:      -6.9      1.276      2.750
REMARK  Name = 
REMARK  8 active torsions:
REMARK  status: ('A' for Active; 'I' for Inactive)
REMARK    1  A    between atoms: C_1  and  C_2
REMARK    2  A    between atoms: C_2  and  O_3
REMARK    3  A    between atoms: O_3  and  C_4
REMARK    4  A    between atoms: C_4  and  C_6
REMARK    5  A    between atoms: C_6  and  C_7
REMARK    6  A    between atoms: C_12  and  C_14
REMARK    7  A    between atoms: C_16  and  C_17
REMARK    8  A    between atoms: C_19  and  C_20
REMARK                            x       y       z     vdW  Elec       q    Type
REMARK                         _______ _______ _______ _____ _____    ______ ____
ROOT
ATOM      1  C   UNL     1       4.559   5.243  17.257  0.00  0.00    +0.000 A 
ATOM      2  C   UNL     1       4.663   4.341  18.303  0.00  0.00    +0.000 A 
ATOM      3  S   UNL     1       3.680   4.853  19.614  0.00  0.00    +0.000 S 
ATOM      4  C   UNL     1       3.245   6.241  18.720  0.00  0.00    +0.000 A 
ATOM      5  N   UNL     1       2.399   7.097  19.372  0.00  0.00    +0.000 N 
ATOM      6  C   UNL     1       2.076   8.326  18.851  0.00  0.00    +0.000 C 
ATOM      7  O   UNL     1       2.509   8.824  17.817  0.00  0.00    +0.000 OA
ATOM      8  N   UNL     1       3.759   6.341  17.522  0.00  0.00    +0.000 NA
ATOM      9  H   UNL     1       2.101   6.815  20.294  0.00  0.00    +0.000 HD
ENDROOT
BRANCH   6  10
ATOM     10  C   UNL     1       1.146   9.144  19.679  0.00  0.00    +0.000 A 
ATOM     11  C   UNL     1       0.341  10.084  19.022  0.00  0.00    +0.000 A 
ATOM     12  C   UNL     1      -0.571  10.867  19.737  0.00  0.00    +0.000 A 
ATOM     13  C   UNL     1      -1.423  11.886  19.039  0.00  0.00    +0.000 C 
ATOM     14  C   UNL     1      -0.690  10.680  21.120  0.00  0.00    +0.000 A 
ATOM     15  C   UNL     1       0.099   9.733  21.791  0.00  0.00    +0.000 A 
ATOM     16  C   UNL     1      -0.069   9.510  23.266  0.00  0.00    +0.000 C 
ATOM     17  C   UNL     1       1.022   8.967  21.064  0.00  0.00    +0.000 A 
ENDBRANCH   6  10
BRANCH   1  18
ATOM     18  C   UNL     1       5.222   5.166  15.928  0.00  0.00    +0.000 C 
BRANCH  18  19
ATOM     19  C   UNL     1       6.683   4.807  16.044  0.00  0.00    +0.000 C 
ATOM     20  O   UNL     1       7.457   5.236  16.890  0.00  0.00    +0.000 OA
BRANCH  19  21
ATOM     21  O   UNL     1       7.049   4.060  14.959  0.00  0.00    +0.000 OA
BRANCH  21  23
ATOM     22  C   UNL     1       6.091   3.492  12.850  0.00  0.00    +0.000 C 
ATOM     23  C   UNL     1       6.694   4.608  13.682  0.00  0.00    +0.000 C 
ENDBRANCH  21  23
ENDBRANCH  19  21
ENDBRANCH  18  19
ENDBRANCH   1  18
TORSDOF 5
ENDMDL
