MODEL 1
REMARK VINA RESULT:      -5.5      0.000      0.000
REMARK  Name = 
REMARK  16 active torsions:
REMARK  status: ('A' for Active; 'I' for Inactive)
REMARK    1  A    between atoms: C_1  and  C_2
REMARK    2  A    between atoms: C_2  and  C_3
REMARK    3  A    between atoms: C_3  and  C_4
REMARK    4  A    between atoms: C_4  and  C_5
REMARK    5  A    between atoms: C_5  and  C_6
REMARK    6  A    between atoms: C_6  and  C_7
REMARK    7  A    between atoms: C_7  and  C_8
REMARK    8  A    between atoms: C_8  and  C_9
REMARK    9  A    between atoms: C_9  and  C_10
REMARK   10  A    between atoms: C_10  and  C_11
REMARK   11  A    between atoms: C_11  and  C_12
REMARK   12  A    between atoms: C_12  and  C_13
REMARK   13  A    between atoms: C_13  and  C_14
REMARK   14  A    between atoms: N_16  and  C_17
REMARK   15  A    between atoms: C_17  and  C_18
REMARK   16  A    between atoms: C_18  and  O_20
REMARK                            x       y       z     vdW  Elec       q    Type
REMARK                         _______ _______ _______ _____ _____    ______ ____
ROOT
ATOM      1  C   UNL     1       5.368   4.697  17.356  0.00  0.00    +0.000 C 
ENDROOT
BRANCH   1   2
ATOM      2  C   UNL     1       4.009   5.279  16.970  0.00  0.00    +0.000 C 
BRANCH   2   3
ATOM      3  C   UNL     1       3.333   5.914  18.178  0.00  0.00    +0.000 C 
BRANCH   3   4
ATOM      4  C   UNL     1       4.071   5.546  19.457  0.00  0.00    +0.000 C 
BRANCH   4   5
ATOM      5  C   UNL     1       3.161   4.743  20.375  0.00  0.00    +0.000 C 
BRANCH   5   6
ATOM      6  C   UNL     1       1.712   5.149  20.161  0.00  0.00    +0.000 C 
BRANCH   6   7
ATOM      7  C   UNL     1       0.793   3.971  20.441  0.00  0.00    +0.000 C 
BRANCH   7   8
ATOM      8  C   UNL     1       1.470   2.671  20.035  0.00  0.00    +0.000 C 
BRANCH   8   9
ATOM      9  C   UNL     1       1.097   2.307  18.606  0.00  0.00    +0.000 C 
BRANCH   9  11
ATOM     10  C   UNL     1       3.497   1.637  18.430  0.00  0.00    +0.000 C 
ATOM     11  C   UNL     1       2.333   2.296  17.715  0.00  0.00    +0.000 C 
ENDBRANCH   9  11
ENDBRANCH   8   9
ENDBRANCH   7   8
ENDBRANCH   6   7
ENDBRANCH   5   6
ENDBRANCH   4   5
ENDBRANCH   3   4
ENDBRANCH   2   3
ENDBRANCH   1   2
BRANCH   1  12
ATOM     12  C   UNL     1       6.058   4.085  16.142  0.00  0.00    +0.000 C 
BRANCH  12  13
ATOM     13  C   UNL     1       7.157   4.983  15.564  0.00  0.00    +0.000 C 
BRANCH  13  14
ATOM     14  C   UNL     1       7.197   4.869  14.050  0.00  0.00    +0.000 C 
ATOM     15  O   UNL     1       7.793   5.669  13.333  0.00  0.00    +0.000 OA
ATOM     16  N   UNL     1       6.521   3.804  13.507  0.00  0.00    +0.000 N 
ATOM     17  H   UNL     1       6.020   3.131  14.081  0.00  0.00    +0.000 HD
BRANCH  16  18
ATOM     18  C   UNL     1       6.514   3.627  12.060  0.00  0.00    +0.000 C 
BRANCH  18  19
ATOM     19  C   UNL     1       5.461   2.605  11.732  0.00  0.00    +0.000 C 
ATOM     20  O   UNL     1       5.748   1.420  11.591  0.00  0.00    +0.000 OA
BRANCH  19  21
ATOM     21  O   UNL     1       4.207   3.090  11.610  0.00  0.00    +0.000 OA
ATOM     22  H   UNL     1       3.502   2.413  11.573  0.00  0.00    +0.000 HD
ENDBRANCH  19  21
ENDBRANCH  18  19
ENDBRANCH  16  18
ENDBRANCH  13  14
ENDBRANCH  12  13
ENDBRANCH   1  12
TORSDOF 15
ENDMDL
MODEL 2
REMARK VINA RESULT:      -5.5      1.739      3.601
REMARK  Name = 
REMARK  16 active torsions:
REMARK  status: ('A' for Active; 'I' for Inactive)
REMARK    1  A    between atoms: C_1  and  C_2
REMARK    2  A    between atoms: C_2  and  C_3
REMARK    3  A    between atoms: C_3  and  C_4
REMARK    4  A    between atoms: C_4  and  C_5
REMARK    5  A    between atoms: C_5  and  C_6
REMARK    6  A    between atoms: C_6  and  C_7
REMARK    7  A    between atoms: C_7  and  C_8
REMARK    8  A    between atoms: C_8  and  C_9
REMARK    9  A    between atoms: C_9  and  C_10
REMARK   10  A    between atoms: C_10  and  C_11
REMARK   11  A    between atoms: C_11  and  C_12
REMARK   12  A    between atoms: C_12  and  C_13
REMARK   13  A    between atoms: C_13  and  C_14
REMARK   14  A    between atoms: N_16  and  C_17
REMARK   15  A    between atoms: C_17  and  C_18
REMARK   16  A    between atoms: C_18  and  O_20
REMARK                            x       y       z     vdW  Elec       q    Type
REMARK                         _______ _______ _______ _____ _____    ______ ____
ROOT
ATOM      1  C   UNL     1       4.240   3.275  17.885  0.00  0.00    +0.000 C 
ENDROOT
BRANCH   1   2
ATOM      2  C   UNL     1       3.014   2.402  17.616  0.00  0.00    +0.000 C 
BRANCH   2   3
ATOM      3  C   UNL     1       2.168   2.261  18.875  0.00  0.00    +0.000 C 
BRANCH   3   4
ATOM      4  C   UNL     1       1.082   3.326  18.911  0.00  0.00    +0.000 C 
BRANCH   4   5
ATOM      5  C   UNL     1       1.006   3.950  20.297  0.00  0.00    +0.000 C 
BRANCH   5   6
ATOM      6  C   UNL     1       1.894   5.182  20.365  0.00  0.00    +0.000 C 
BRANCH   6   7
ATOM      7  C   UNL     1       2.012   5.818  18.990  0.00  0.00    +0.000 C 
BRANCH   7   8
ATOM      8  C   UNL     1       2.502   7.253  19.116  0.00  0.00    +0.000 C 
BRANCH   8   9
ATOM      9  C   UNL     1       2.374   7.971  17.782  0.00  0.00    +0.000 C 
BRANCH   9  11
ATOM     10  C   UNL     1       0.618   9.730  18.037  0.00  0.00    +0.000 C 
ATOM     11  C   UNL     1       2.110   9.456  17.995  0.00  0.00    +0.000 C 
ENDBRANCH   9  11
ENDBRANCH   8   9
ENDBRANCH   7   8
ENDBRANCH   6   7
ENDBRANCH   5   6
ENDBRANCH   4   5
ENDBRANCH   3   4
ENDBRANCH   2   3
ENDBRANCH   1   2
BRANCH   1  12
ATOM     12  C   UNL     1       4.646   4.036  16.627  0.00  0.00    +0.000 C 
BRANCH  12  13
ATOM     13  C   UNL     1       6.122   4.452  16.632  0.00  0.00    +0.000 C 
BRANCH  13  14
ATOM     14  C   UNL     1       6.646   4.570  15.212  0.00  0.00    +0.000 C 
ATOM     15  O   UNL     1       7.610   5.268  14.908  0.00  0.00    +0.000 OA
ATOM     16  N   UNL     1       5.976   3.841  14.259  0.00  0.00    +0.000 N 
ATOM     17  H   UNL     1       5.175   3.258  14.486  0.00  0.00    +0.000 HD
BRANCH  16  18
ATOM     18  C   UNL     1       6.421   3.902  12.871  0.00  0.00    +0.000 C 
BRANCH  18  19
ATOM     19  C   UNL     1       5.539   2.984  12.071  0.00  0.00    +0.000 C 
ATOM     20  O   UNL     1       4.444   3.354  11.659  0.00  0.00    +0.000 OA
BRANCH  19  21
ATOM     21  O   UNL     1       6.043   1.750  11.852  0.00  0.00    +0.000 OA
ATOM     22  H   UNL     1       5.379   1.034  11.806  0.00  0.00    +0.000 HD
ENDBRANCH  19  21
ENDBRANCH  18  19
ENDBRANCH  16  18
ENDBRANCH  13  14
ENDBRANCH  12  13
ENDBRANCH   1  12
TORSDOF 15
ENDMDL
MODEL 3
REMARK VINA RESULT:      -5.3      1.032      1.495
REMARK  Name = 
REMARK  16 active torsions:
REMARK  status: ('A' for Active; 'I' for Inactive)
REMARK    1  A    between atoms: C_1  and  C_2
REMARK    2  A    between atoms: C_2  and  C_3
REMARK    3  A    between atoms: C_3  and  C_4
REMARK    4  A    between atoms: C_4  and  C_5
REMARK    5  A    between atoms: C_5  and  C_6
REMARK    6  A    between atoms: C_6  and  C_7
REMARK    7  A    between atoms: C_7  and  C_8
REMARK    8  A    between atoms: C_8  and  C_9
REMARK    9  A    between atoms: C_9  and  C_10
REMARK   10  A    between atoms: C_10  and  C_11
REMARK   11  A    between atoms: C_11  and  C_12
REMARK   12  A    between atoms: C_12  and  C_13
REMARK   13  A    between atoms: C_13  and  C_14
REMARK   14  A    between atoms: N_16  and  C_17
REMARK   15  A    between atoms: C_17  and  C_18
REMARK   16  A    between atoms: C_18  and  O_20
REMARK                            x       y       z     vdW  Elec       q    Type
REMARK                         _______ _______ _______ _____ _____    ______ ____
ROOT
ATOM      1  C   UNL     1       5.997   6.389  17.566  0.00  0.00    +0.000 C 
ENDROOT
BRANCH   1   2
ATOM      2  C   UNL     1       4.562   6.067  17.146  0.00  0.00    +0.000 C 
BRANCH   2   3
ATOM      3  C   UNL     1       3.581   7.028  17.805  0.00  0.00    +0.000 C 
BRANCH   3   4
ATOM      4  C   UNL     1       2.502   6.258  18.554  0.00  0.00    +0.000 C 
BRANCH   4   5
ATOM      5  C   UNL     1       2.137   6.985  19.839  0.00  0.00    +0.000 C 
BRANCH   5   6
ATOM      6  C   UNL     1       1.340   6.067  20.752  0.00  0.00    +0.000 C 
BRANCH   6   7
ATOM      7  C   UNL     1       2.022   4.713  20.855  0.00  0.00    +0.000 C 
BRANCH   7   8
ATOM      8  C   UNL     1       1.071   3.612  20.410  0.00  0.00    +0.000 C 
BRANCH   8   9
ATOM      9  C   UNL     1       1.857   2.410  19.908  0.00  0.00    +0.000 C 
BRANCH   9  11
ATOM     10  C   UNL     1       3.229   2.510  17.823  0.00  0.00    +0.000 C 
ATOM     11  C   UNL     1       1.830   2.348  18.387  0.00  0.00    +0.000 C 
ENDBRANCH   9  11
ENDBRANCH   8   9
ENDBRANCH   7   8
ENDBRANCH   6   7
ENDBRANCH   5   6
ENDBRANCH   4   5
ENDBRANCH   3   4
ENDBRANCH   2   3
ENDBRANCH   1   2
BRANCH   1  12
ATOM     12  C   UNL     1       6.975   5.391  16.955  0.00  0.00    +0.000 C 
BRANCH  12  13
ATOM     13  C   UNL     1       6.275   4.275  16.170  0.00  0.00    +0.000 C 
BRANCH  13  14
ATOM     14  C   UNL     1       6.346   4.548  14.678  0.00  0.00    +0.000 C 
ATOM     15  O   UNL     1       6.293   5.678  14.200  0.00  0.00    +0.000 OA
ATOM     16  N   UNL     1       6.477   3.445  13.869  0.00  0.00    +0.000 N 
ATOM     17  H   UNL     1       6.522   2.501  14.242  0.00  0.00    +0.000 HD
BRANCH  16  18
ATOM     18  C   UNL     1       6.552   3.627  12.424  0.00  0.00    +0.000 C 
BRANCH  18  19
ATOM     19  C   UNL     1       5.432   2.835  11.808  0.00  0.00    +0.000 C 
ATOM     20  O   UNL     1       4.363   3.365  11.520  0.00  0.00    +0.000 OA
BRANCH  19  21
ATOM     21  O   UNL     1       5.697   1.527  11.606  0.00  0.00    +0.000 OA
ATOM     22  H   UNL     1       4.910   0.947  11.559  0.00  0.00    +0.000 HD
ENDBRANCH  19  21
ENDBRANCH  18  19
ENDBRANCH  16  18
ENDBRANCH  13  14
ENDBRANCH  12  13
ENDBRANCH   1  12
TORSDOF 15
ENDMDL
MODEL 4
REMARK VINA RESULT:      -5.2      1.761      2.247
REMARK  Name = 
REMARK  16 active torsions:
REMARK  status: ('A' for Active; 'I' for Inactive)
REMARK    1  A    between atoms: C_1  and  C_2
REMARK    2  A    between atoms: C_2  and  C_3
REMARK    3  A    between atoms: C_3  and  C_4
REMARK    4  A    between atoms: C_4  and  C_5
REMARK    5  A    between atoms: C_5  and  C_6
REMARK    6  A    between atoms: C_6  and  C_7
REMARK    7  A    between atoms: C_7  and  C_8
REMARK    8  A    between atoms: C_8  and  C_9
REMARK    9  A    between atoms: C_9  and  C_10
REMARK   10  A    between atoms: C_10  and  C_11
REMARK   11  A    between atoms: C_11  and  C_12
REMARK   12  A    between atoms: C_12  and  C_13
REMARK   13  A    between atoms: C_13  and  C_14
REMARK   14  A    between atoms: N_16  and  C_17
REMARK   15  A    between atoms: C_17  and  C_18
REMARK   16  A    between atoms: C_18  and  O_20
REMARK                            x       y       z     vdW  Elec       q    Type
REMARK                         _______ _______ _______ _____ _____    ______ ____
ROOT
ATOM      1  C   UNL     1       5.069   4.549  18.161  0.00  0.00    +0.000 C 
ENDROOT
BRANCH   1   2
ATOM      2  C   UNL     1       3.833   5.444  18.072  0.00  0.00    +0.000 C 
BRANCH   2   3
ATOM      3  C   UNL     1       3.588   6.157  19.395  0.00  0.00    +0.000 C 
BRANCH   3   4
ATOM      4  C   UNL     1       2.115   6.511  19.546  0.00  0.00    +0.000 C 
BRANCH   4   5
ATOM      5  C   UNL     1       1.512   5.756  20.720  0.00  0.00    +0.000 C 
BRANCH   5   6
ATOM      6  C   UNL     1       2.312   4.494  20.997  0.00  0.00    +0.000 C 
BRANCH   6   7
ATOM      7  C   UNL     1       1.375   3.315  21.203  0.00  0.00    +0.000 C 
BRANCH   7   8
ATOM      8  C   UNL     1       1.612   2.264  20.129  0.00  0.00    +0.000 C 
BRANCH   8   9
ATOM      9  C   UNL     1       1.390   2.863  18.749  0.00  0.00    +0.000 C 
BRANCH   9  11
ATOM     10  C   UNL     1       3.426   1.451  18.431  0.00  0.00    +0.000 C 
ATOM     11  C   UNL     1       2.324   2.225  17.730  0.00  0.00    +0.000 C 
ENDBRANCH   9  11
ENDBRANCH   8   9
ENDBRANCH   7   8
ENDBRANCH   6   7
ENDBRANCH   5   6
ENDBRANCH   4   5
ENDBRANCH   3   4
ENDBRANCH   2   3
ENDBRANCH   1   2
BRANCH   1  12
ATOM     12  C   UNL     1       6.163   5.221  18.984  0.00  0.00    +0.000 C 
BRANCH  12  13
ATOM     13  C   UNL     1       7.177   5.980  18.121  0.00  0.00    +0.000 C 
BRANCH  13  14
ATOM     14  C   UNL     1       7.520   5.181  16.876  0.00  0.00    +0.000 C 
ATOM     15  O   UNL     1       8.151   4.127  16.908  0.00  0.00    +0.000 OA
ATOM     16  N   UNL     1       7.081   5.704  15.684  0.00  0.00    +0.000 N 
ATOM     17  H   UNL     1       6.559   6.575  15.633  0.00  0.00    +0.000 HD
BRANCH  16  18
ATOM     18  C   UNL     1       7.372   4.993  14.444  0.00  0.00    +0.000 C 
BRANCH  18  19
ATOM     19  C   UNL     1       6.130   4.240  14.052  0.00  0.00    +0.000 C 
ATOM     20  O   UNL     1       6.140   3.440  13.121  0.00  0.00    +0.000 OA
BRANCH  19  21
ATOM     21  O   UNL     1       5.034   4.514  14.791  0.00  0.00    +0.000 OA
ATOM     22  H   UNL     1       5.096   4.259  15.733  0.00  0.00    +0.000 HD
ENDBRANCH  19  21
ENDBRANCH  18  19
ENDBRANCH  16  18
ENDBRANCH  13  14
ENDBRANCH  12  13
ENDBRANCH   1  12
TORSDOF 15
ENDMDL
MODEL 5
REMARK VINA RESULT:      -5.2      3.078      5.091
REMARK  Name = 
REMARK  16 active torsions:
REMARK  status: ('A' for Active; 'I' for Inactive)
REMARK    1  A    between atoms: C_1  and  C_2
REMARK    2  A    between atoms: C_2  and  C_3
REMARK    3  A    between atoms: C_3  and  C_4
REMARK    4  A    between atoms: C_4  and  C_5
REMARK    5  A    between atoms: C_5  and  C_6
REMARK    6  A    between atoms: C_6  and  C_7
REMARK    7  A    between atoms: C_7  and  C_8
REMARK    8  A    between atoms: C_8  and  C_9
REMARK    9  A    between atoms: C_9  and  C_10
REMARK   10  A    between atoms: C_10  and  C_11
REMARK   11  A    between atoms: C_11  and  C_12
REMARK   12  A    between atoms: C_12  and  C_13
REMARK   13  A    between atoms: C_13  and  C_14
REMARK   14  A    between atoms: N_16  and  C_17
REMARK   15  A    between atoms: C_17  and  C_18
REMARK   16  A    between atoms: C_18  and  O_20
REMARK                            x       y       z     vdW  Elec       q    Type
REMARK                         _______ _______ _______ _____ _____    ______ ____
ROOT
ATOM      1  C   UNL     1       4.870   3.440  15.392  0.00  0.00    +0.000 C 
ENDROOT
BRANCH   1   2
ATOM      2  C   UNL     1       4.452   3.855  16.803  0.00  0.00    +0.000 C 
BRANCH   2   3
ATOM      3  C   UNL     1       3.889   2.665  17.569  0.00  0.00    +0.000 C 
BRANCH   3   4
ATOM      4  C   UNL     1       2.368   2.720  17.598  0.00  0.00    +0.000 C 
BRANCH   4   5
ATOM      5  C   UNL     1       1.901   4.127  17.936  0.00  0.00    +0.000 C 
BRANCH   5   6
ATOM      6  C   UNL     1       1.313   4.161  19.337  0.00  0.00    +0.000 C 
BRANCH   6   7
ATOM      7  C   UNL     1       2.288   4.824  20.297  0.00  0.00    +0.000 C 
BRANCH   7   8
ATOM      8  C   UNL     1       2.997   5.980  19.608  0.00  0.00    +0.000 C 
BRANCH   8   9
ATOM      9  C   UNL     1       2.217   7.270  19.810  0.00  0.00    +0.000 C 
BRANCH   9  11
ATOM     10  C   UNL     1       3.265   7.635  17.572  0.00  0.00    +0.000 C 
ATOM     11  C   UNL     1       2.159   8.070  18.516  0.00  0.00    +0.000 C 
ENDBRANCH   9  11
ENDBRANCH   8   9
ENDBRANCH   7   8
ENDBRANCH   6   7
ENDBRANCH   5   6
ENDBRANCH   4   5
ENDBRANCH   3   4
ENDBRANCH   2   3
ENDBRANCH   1   2
BRANCH   1  12
ATOM     12  C   UNL     1       5.581   4.587  14.681  0.00  0.00    +0.000 C 
BRANCH  12  13
ATOM     13  C   UNL     1       5.706   5.842  15.552  0.00  0.00    +0.000 C 
BRANCH  13  14
ATOM     14  C   UNL     1       6.858   5.698  16.532  0.00  0.00    +0.000 C 
ATOM     15  O   UNL     1       7.798   4.928  16.353  0.00  0.00    +0.000 OA
ATOM     16  N   UNL     1       6.797   6.487  17.655  0.00  0.00    +0.000 N 
ATOM     17  H   UNL     1       6.029   7.130  17.825  0.00  0.00    +0.000 HD
BRANCH  16  18
ATOM     18  C   UNL     1       7.867   6.404  18.642  0.00  0.00    +0.000 C 
BRANCH  18  19
ATOM     19  C   UNL     1       7.388   5.517  19.758  0.00  0.00    +0.000 C 
ATOM     20  O   UNL     1       6.303   4.946  19.694  0.00  0.00    +0.000 OA
BRANCH  19  21
ATOM     21  O   UNL     1       8.231   5.406  20.807  0.00  0.00    +0.000 OA
ATOM     22  H   UNL     1       8.860   4.660  20.756  0.00  0.00    +0.000 HD
ENDBRANCH  19  21
ENDBRANCH  18  19
ENDBRANCH  16  18
ENDBRANCH  13  14
ENDBRANCH  12  13
ENDBRANCH   1  12
TORSDOF 15
ENDMDL
MODEL 6
REMARK VINA RESULT:      -5.2      1.645      2.845
REMARK  Name = 
REMARK  16 active torsions:
REMARK  status: ('A' for Active; 'I' for Inactive)
REMARK    1  A    between atoms: C_1  and  C_2
REMARK    2  A    between atoms: C_2  and  C_3
REMARK    3  A    between atoms: C_3  and  C_4
REMARK    4  A    between atoms: C_4  and  C_5
REMARK    5  A    between atoms: C_5  and  C_6
REMARK    6  A    between atoms: C_6  and  C_7
REMARK    7  A    between atoms: C_7  and  C_8
REMARK    8  A    between atoms: C_8  and  C_9
REMARK    9  A    between atoms: C_9  and  C_10
REMARK   10  A    between atoms: C_10  and  C_11
REMARK   11  A    between atoms: C_11  and  C_12
REMARK   12  A    between atoms: C_12  and  C_13
REMARK   13  A    between atoms: C_13  and  C_14
REMARK   14  A    between atoms: N_16  and  C_17
REMARK   15  A    between atoms: C_17  and  C_18
REMARK   16  A    between atoms: C_18  and  O_20
REMARK                            x       y       z     vdW  Elec       q    Type
REMARK                         _______ _______ _______ _____ _____    ______ ____
ROOT
ATOM      1  C   UNL     1       6.895   5.175  18.830  0.00  0.00    +0.000 C 
ENDROOT
BRANCH   1   2
ATOM      2  C   UNL     1       5.561   4.445  18.985  0.00  0.00    +0.000 C 
BRANCH   2   3
ATOM      3  C   UNL     1       4.418   5.440  19.138  0.00  0.00    +0.000 C 
BRANCH   3   4
ATOM      4  C   UNL     1       3.409   5.272  18.011  0.00  0.00    +0.000 C 
BRANCH   4   5
ATOM      5  C   UNL     1       3.753   4.047  17.178  0.00  0.00    +0.000 C 
BRANCH   5   6
ATOM      6  C   UNL     1       2.726   2.950  17.412  0.00  0.00    +0.000 C 
BRANCH   6   7
ATOM      7  C   UNL     1       1.404   3.558  17.852  0.00  0.00    +0.000 C 
BRANCH   7   8
ATOM      8  C   UNL     1       0.651   2.582  18.743  0.00  0.00    +0.000 C 
BRANCH   8   9
ATOM      9  C   UNL     1       1.485   2.237  19.967  0.00  0.00    +0.000 C 
BRANCH   9  11
ATOM     10  C   UNL     1       2.449   3.911  21.551  0.00  0.00    +0.000 C 
ATOM     11  C   UNL     1       1.185   3.199  21.110  0.00  0.00    +0.000 C 
ENDBRANCH   9  11
ENDBRANCH   8   9
ENDBRANCH   7   8
ENDBRANCH   6   7
ENDBRANCH   5   6
ENDBRANCH   4   5
ENDBRANCH   3   4
ENDBRANCH   2   3
ENDBRANCH   1   2
BRANCH   1  12
ATOM     12  C   UNL     1       6.680   6.580  18.276  0.00  0.00    +0.000 C 
BRANCH  12  13
ATOM     13  C   UNL     1       7.354   6.794  16.916  0.00  0.00    +0.000 C 
BRANCH  13  14
ATOM     14  C   UNL     1       6.594   6.062  15.824  0.00  0.00    +0.000 C 
ATOM     15  O   UNL     1       5.535   6.471  15.354  0.00  0.00    +0.000 OA
ATOM     16  N   UNL     1       7.160   4.893  15.376  0.00  0.00    +0.000 N 
ATOM     17  H   UNL     1       8.034   4.534  15.751  0.00  0.00    +0.000 HD
BRANCH  16  18
ATOM     18  C   UNL     1       6.488   4.133  14.327  0.00  0.00    +0.000 C 
BRANCH  18  19
ATOM     19  C   UNL     1       7.153   4.476  13.022  0.00  0.00    +0.000 C 
ATOM     20  O   UNL     1       6.935   3.823  12.007  0.00  0.00    +0.000 OA
BRANCH  19  21
ATOM     21  O   UNL     1       7.988   5.537  13.064  0.00  0.00    +0.000 OA
ATOM     22  H   UNL     1       7.551   6.411  13.012  0.00  0.00    +0.000 HD
ENDBRANCH  19  21
ENDBRANCH  18  19
ENDBRANCH  16  18
ENDBRANCH  13  14
ENDBRANCH  12  13
ENDBRANCH   1  12
TORSDOF 15
ENDMDL
MODEL 7
REMARK VINA RESULT:      -5.1      1.488      2.444
REMARK  Name = 
REMARK  16 active torsions:
REMARK  status: ('A' for Active; 'I' for Inactive)
REMARK    1  A    between atoms: C_1  and  C_2
REMARK    2  A    between atoms: C_2  and  C_3
REMARK    3  A    between atoms: C_3  and  C_4
REMARK    4  A    between atoms: C_4  and  C_5
REMARK    5  A    between atoms: C_5  and  C_6
REMARK    6  A    between atoms: C_6  and  C_7
REMARK    7  A    between atoms: C_7  and  C_8
REMARK    8  A    between atoms: C_8  and  C_9
REMARK    9  A    between atoms: C_9  and  C_10
REMARK   10  A    between atoms: C_10  and  C_11
REMARK   11  A    between atoms: C_11  and  C_12
REMARK   12  A    between atoms: C_12  and  C_13
REMARK   13  A    between atoms: C_13  and  C_14
REMARK   14  A    between atoms: N_16  and  C_17
REMARK   15  A    between atoms: C_17  and  C_18
REMARK   16  A    between atoms: C_18  and  O_20
REMARK                            x       y       z     vdW  Elec       q    Type
REMARK                         _______ _______ _______ _____ _____    ______ ____
ROOT
ATOM      1  C   UNL     1       7.461   4.597  17.382  0.00  0.00    +0.000 C 
ENDROOT
BRANCH   1   2
ATOM      2  C   UNL     1       6.276   5.227  18.115  0.00  0.00    +0.000 C 
BRANCH   2   3
ATOM      3  C   UNL     1       5.305   4.155  18.590  0.00  0.00    +0.000 C 
BRANCH   3   4
ATOM      4  C   UNL     1       3.917   4.399  18.013  0.00  0.00    +0.000 C 
BRANCH   4   5
ATOM      5  C   UNL     1       3.720   5.880  17.732  0.00  0.00    +0.000 C 
BRANCH   5   6
ATOM      6  C   UNL     1       2.364   6.335  18.248  0.00  0.00    +0.000 C 
BRANCH   6   7
ATOM      7  C   UNL     1       2.450   6.652  19.732  0.00  0.00    +0.000 C 
BRANCH   7   8
ATOM      8  C   UNL     1       1.536   5.724  20.519  0.00  0.00    +0.000 C 
BRANCH   8   9
ATOM      9  C   UNL     1       2.344   4.597  21.144  0.00  0.00    +0.000 C 
BRANCH   9  11
ATOM     10  C   UNL     1       0.866   3.103  19.793  0.00  0.00    +0.000 C 
ATOM     11  C   UNL     1       1.549   3.298  21.133  0.00  0.00    +0.000 C 
ENDBRANCH   9  11
ENDBRANCH   8   9
ENDBRANCH   7   8
ENDBRANCH   6   7
ENDBRANCH   5   6
ENDBRANCH   4   5
ENDBRANCH   3   4
ENDBRANCH   2   3
ENDBRANCH   1   2
BRANCH   1  12
ATOM     12  C   UNL     1       7.349   4.827  15.879  0.00  0.00    +0.000 C 
BRANCH  12  13
ATOM     13  C   UNL     1       6.257   3.974  15.224  0.00  0.00    +0.000 C 
BRANCH  13  14
ATOM     14  C   UNL     1       6.426   3.960  13.714  0.00  0.00    +0.000 C 
ATOM     15  O   UNL     1       7.172   4.730  13.116  0.00  0.00    +0.000 OA
ATOM     16  N   UNL     1       5.687   3.023  13.034  0.00  0.00    +0.000 N 
ATOM     17  H   UNL     1       5.061   2.376  13.507  0.00  0.00    +0.000 HD
BRANCH  16  18
ATOM     18  C   UNL     1       5.795   2.948  11.581  0.00  0.00    +0.000 C 
BRANCH  18  19
ATOM     19  C   UNL     1       6.608   1.727  11.249  0.00  0.00    +0.000 C 
ATOM     20  O   UNL     1       7.765   1.822  10.851  0.00  0.00    +0.000 OA
BRANCH  19  21
ATOM     21  O   UNL     1       5.971   0.549  11.422  0.00  0.00    +0.000 OA
ATOM     22  H   UNL     1       4.998   0.612  11.500  0.00  0.00    +0.000 HD
ENDBRANCH  19  21
ENDBRANCH  18  19
ENDBRANCH  16  18
ENDBRANCH  13  14
ENDBRANCH  12  13
ENDBRANCH   1  12
TORSDOF 15
ENDMDL
MODEL 8
REMARK VINA RESULT:      -5.1      5.495      7.608
REMARK  Name = 
REMARK  16 active torsions:
REMARK  status: ('A' for Active; 'I' for Inactive)
REMARK    1  A    between atoms: C_1  and  C_2
REMARK    2  A    between atoms: C_2  and  C_3
REMARK    3  A    between atoms: C_3  and  C_4
REMARK    4  A    between atoms: C_4  and  C_5
REMARK    5  A    between atoms: C_5  and  C_6
REMARK    6  A    between atoms: C_6  and  C_7
REMARK    7  A    between atoms: C_7  and  C_8
REMARK    8  A    between atoms: C_8  and  C_9
REMARK    9  A    between atoms: C_9  and  C_10
REMARK   10  A    between atoms: C_10  and  C_11
REMARK   11  A    between atoms: C_11  and  C_12
REMARK   12  A    between atoms: C_12  and  C_13
REMARK   13  A    between atoms: C_13  and  C_14
REMARK   14  A    between atoms: N_16  and  C_17
REMARK   15  A    between atoms: C_17  and  C_18
REMARK   16  A    between atoms: C_18  and  O_20
REMARK                            x       y       z     vdW  Elec       q    Type
REMARK                         _______ _______ _______ _____ _____    ______ ____
ROOT
ATOM      1  C   UNL     1       3.846   6.410  18.944  0.00  0.00    +0.000 C 
ENDROOT
BRANCH   1   2
ATOM      2  C   UNL     1       4.745   5.404  18.225  0.00  0.00    +0.000 C 
BRANCH   2   3
ATOM      3  C   UNL     1       5.074   4.229  19.136  0.00  0.00    +0.000 C 
BRANCH   3   4
ATOM      4  C   UNL     1       4.654   2.917  18.488  0.00  0.00    +0.000 C 
BRANCH   4   5
ATOM      5  C   UNL     1       3.662   3.181  17.366  0.00  0.00    +0.000 C 
BRANCH   5   6
ATOM      6  C   UNL     1       2.328   2.523  17.681  0.00  0.00    +0.000 C 
BRANCH   6   7
ATOM      7  C   UNL     1       1.322   3.570  18.129  0.00  0.00    +0.000 C 
BRANCH   7   8
ATOM      8  C   UNL     1       0.876   3.291  19.556  0.00  0.00    +0.000 C 
BRANCH   8   9
ATOM      9  C   UNL     1       1.162   4.494  20.441  0.00  0.00    +0.000 C 
BRANCH   9  11
ATOM     10  C   UNL     1       2.415   2.652  21.572  0.00  0.00    +0.000 C 
ATOM     11  C   UNL     1       2.222   4.154  21.481  0.00  0.00    +0.000 C 
ENDBRANCH   9  11
ENDBRANCH   8   9
ENDBRANCH   7   8
ENDBRANCH   6   7
ENDBRANCH   5   6
ENDBRANCH   4   5
ENDBRANCH   3   4
ENDBRANCH   2   3
ENDBRANCH   1   2
BRANCH   1  12
ATOM     12  C   UNL     1       3.274   7.423  17.958  0.00  0.00    +0.000 C 
BRANCH  12  13
ATOM     13  C   UNL     1       1.776   7.677  18.165  0.00  0.00    +0.000 C 
BRANCH  13  14
ATOM     14  C   UNL     1       1.559   8.906  19.031  0.00  0.00    +0.000 C 
ATOM     15  O   UNL     1       1.674  10.054  18.607  0.00  0.00    +0.000 OA
ATOM     16  N   UNL     1       1.221   8.669  20.341  0.00  0.00    +0.000 N 
ATOM     17  H   UNL     1       1.122   7.729  20.714  0.00  0.00    +0.000 HD
BRANCH  16  18
ATOM     18  C   UNL     1       0.996   9.800  21.234  0.00  0.00    +0.000 C 
BRANCH  18  19
ATOM     19  C   UNL     1       0.214   9.296  22.416  0.00  0.00    +0.000 C 
ATOM     20  O   UNL     1       0.487   9.653  23.558  0.00  0.00    +0.000 OA
BRANCH  19  21
ATOM     21  O   UNL     1      -0.787   8.439  22.119  0.00  0.00    +0.000 OA
ATOM     22  H   UNL     1      -0.625   7.864  21.345  0.00  0.00    +0.000 HD
ENDBRANCH  19  21
ENDBRANCH  18  19
ENDBRANCH  16  18
ENDBRANCH  13  14
ENDBRANCH  12  13
ENDBRANCH   1  12
TORSDOF 15
ENDMDL
MODEL 9
REMARK VINA RESULT:      -5.1      1.876      2.576
REMARK  Name = 
REMARK  16 active torsions:
REMARK  status: ('A' for Active; 'I' for Inactive)
REMARK    1  A    between atoms: C_1  and  C_2
REMARK    2  A    between atoms: C_2  and  C_3
REMARK    3  A    between atoms: C_3  and  C_4
REMARK    4  A    between atoms: C_4  and  C_5
REMARK    5  A    between atoms: C_5  and  C_6
REMARK    6  A    between atoms: C_6  and  C_7
REMARK    7  A    between atoms: C_7  and  C_8
REMARK    8  A    between atoms: C_8  and  C_9
REMARK    9  A    between atoms: C_9  and  C_10
REMARK   10  A    between atoms: C_10  and  C_11
REMARK   11  A    between atoms: C_11  and  C_12
REMARK   12  A    between atoms: C_12  and  C_13
REMARK   13  A    between atoms: C_13  and  C_14
REMARK   14  A    between atoms: N_16  and  C_17
REMARK   15  A    between atoms: C_17  and  C_18
REMARK   16  A    between atoms: C_18  and  O_20
REMARK                            x       y       z     vdW  Elec       q    Type
REMARK                         _______ _______ _______ _____ _____    ______ ____
ROOT
ATOM      1  C   UNL     1       4.838   6.355  17.997  0.00  0.00    +0.000 C 
ENDROOT
BRANCH   1   2
ATOM      2  C   UNL     1       3.708   7.252  17.494  0.00  0.00    +0.000 C 
BRANCH   2   3
ATOM      3  C   UNL     1       2.512   7.190  18.436  0.00  0.00    +0.000 C 
BRANCH   3   4
ATOM      4  C   UNL     1       2.829   6.320  19.644  0.00  0.00    +0.000 C 
BRANCH   4   5
ATOM      5  C   UNL     1       1.601   6.190  20.532  0.00  0.00    +0.000 C 
BRANCH   5   6
ATOM      6  C   UNL     1       1.136   4.744  20.574  0.00  0.00    +0.000 C 
BRANCH   6   7
ATOM      7  C   UNL     1       2.331   3.815  20.714  0.00  0.00    +0.000 C 
BRANCH   7   8
ATOM      8  C   UNL     1       1.904   2.374  20.475  0.00  0.00    +0.000 C 
BRANCH   8   9
ATOM      9  C   UNL     1       2.066   2.015  19.006  0.00  0.00    +0.000 C 
BRANCH   9  11
ATOM     10  C   UNL     1       2.795   3.491  17.127  0.00  0.00    +0.000 C 
ATOM     11  C   UNL     1       3.233   2.778  18.392  0.00  0.00    +0.000 C 
ENDBRANCH   9  11
ENDBRANCH   8   9
ENDBRANCH   7   8
ENDBRANCH   6   7
ENDBRANCH   5   6
ENDBRANCH   4   5
ENDBRANCH   3   4
ENDBRANCH   2   3
ENDBRANCH   1   2
BRANCH   1  12
ATOM     12  C   UNL     1       6.197   6.954  17.652  0.00  0.00    +0.000 C 
BRANCH  12  13
ATOM     13  C   UNL     1       7.301   5.898  17.525  0.00  0.00    +0.000 C 
BRANCH  13  14
ATOM     14  C   UNL     1       6.992   4.939  16.388  0.00  0.00    +0.000 C 
ATOM     15  O   UNL     1       6.543   3.810  16.566  0.00  0.00    +0.000 OA
ATOM     16  N   UNL     1       7.243   5.406  15.120  0.00  0.00    +0.000 N 
ATOM     17  H   UNL     1       7.615   6.335  14.949  0.00  0.00    +0.000 HD
BRANCH  16  18
ATOM     18  C   UNL     1       6.970   4.542  13.977  0.00  0.00    +0.000 C 
BRANCH  18  19
ATOM     19  C   UNL     1       7.743   5.084  12.805  0.00  0.00    +0.000 C 
ATOM     20  O   UNL     1       7.486   4.733  11.658  0.00  0.00    +0.000 OA
BRANCH  19  21
ATOM     21  O   UNL     1       8.717   5.966  13.118  0.00  0.00    +0.000 OA
ATOM     22  H   UNL     1       8.404   6.859  13.366  0.00  0.00    +0.000 HD
ENDBRANCH  19  21
ENDBRANCH  18  19
ENDBRANCH  16  18
ENDBRANCH  13  14
ENDBRANCH  12  13
ENDBRANCH   1  12
TORSDOF 15
ENDMDL
