MODEL 1
REMARK VINA RESULT:      -7.5      0.000      0.000
REMARK  Name = 
REMARK  5 active torsions:
REMARK  status: ('A' for Active; 'I' for Inactive)
REMARK    1  A    between atoms: C_1  and  C_2
REMARK    2  A    between atoms: N_6  and  C_7
REMARK    3  A    between atoms: C_11  and  C_13
REMARK    4  A    between atoms: C_13  and  O_14
REMARK    5  A    between atoms: O_14  and  C_15
REMARK                            x       y       z     vdW  Elec       q    Type
REMARK                         _______ _______ _______ _____ _____    ______ ____
ROOT
ATOM      1  C   UNL     1       0.528  10.797  21.767  0.00  0.00    +0.000 C 
ATOM      2  C   UNL     1       0.677  11.372  20.353  0.00  0.00    +0.000 C 
ATOM      3  C   UNL     1       0.541  10.349  19.237  0.00  0.00    +0.000 C 
ATOM      4  N   UNL     1       1.365   9.176  19.485  0.00  0.00    +0.000 N 
ATOM      5  C   UNL     1       1.991   8.568  18.399  0.00  0.00    +0.000 C 
ATOM      6  O   UNL     1       1.929   9.026  17.257  0.00  0.00    +0.000 OA
ATOM      7  C   UNL     1       1.114   8.503  20.754  0.00  0.00    +0.000 C 
ATOM      8  C   UNL     1       1.222   9.444  21.946  0.00  0.00    +0.000 C 
ENDROOT
BRANCH   1  14
ATOM      9  C   UNL     1      -2.673  15.381  24.910  0.00  0.00    +0.000 C 
ATOM     10  C   UNL     1      -2.258  14.156  24.159  0.00  0.00    +0.000 A 
ATOM     11  C   UNL     1      -3.153  13.147  23.847  0.00  0.00    +0.000 A 
ATOM     12  C   UNL     1      -2.685  12.007  23.187  0.00  0.00    +0.000 A 
ATOM     13  C   UNL     1      -1.340  11.902  22.862  0.00  0.00    +0.000 A 
ATOM     14  N   UNL     1      -0.891  10.758  22.163  0.00  0.00    +0.000 N 
ATOM     15  N   UNL     1      -0.508  12.916  23.180  0.00  0.00    +0.000 NA
ATOM     16  N   UNL     1      -0.956  14.039  23.841  0.00  0.00    +0.000 NA
ATOM     17  H   UNL     1      -1.164   9.918  22.664  0.00  0.00    +0.000 HD
ENDBRANCH   1  14
BRANCH   5  18
ATOM     18  C   UNL     1       2.826   7.302  18.665  0.00  0.00    +0.000 C 
BRANCH  18  19
ATOM     19  O   UNL     1       2.140   6.087  18.919  0.00  0.00    +0.000 OA
BRANCH  19  20
ATOM     20  C   UNL     1       2.866   5.129  19.697  0.00  0.00    +0.000 C 
ATOM     21  C   UNL     1       1.991   4.474  20.770  0.00  0.00    +0.000 C 
ATOM     22  C   UNL     1       0.843   3.677  20.153  0.00  0.00    +0.000 C 
ATOM     23  C   UNL     1       1.358   2.634  19.165  0.00  0.00    +0.000 C 
ATOM     24  C   UNL     1       2.249   3.257  18.094  0.00  0.00    +0.000 C 
ATOM     25  C   UNL     1       3.388   4.069  18.718  0.00  0.00    +0.000 C 
ENDBRANCH  19  20
ENDBRANCH  18  19
ENDBRANCH   5  18
TORSDOF 4
ENDMDL
MODEL 2
REMARK VINA RESULT:      -7.2      0.819      1.374
REMARK  Name = 
REMARK  5 active torsions:
REMARK  status: ('A' for Active; 'I' for Inactive)
REMARK    1  A    between atoms: C_1  and  C_2
REMARK    2  A    between atoms: N_6  and  C_7
REMARK    3  A    between atoms: C_11  and  C_13
REMARK    4  A    between atoms: C_13  and  O_14
REMARK    5  A    between atoms: O_14  and  C_15
REMARK                            x       y       z     vdW  Elec       q    Type
REMARK                         _______ _______ _______ _____ _____    ______ ____
ROOT
ATOM      1  C   UNL     1       0.502  10.661  21.880  0.00  0.00    +0.000 C 
ATOM      2  C   UNL     1       0.730  11.048  20.414  0.00  0.00    +0.000 C 
ATOM      3  C   UNL     1       0.609   9.896  19.429  0.00  0.00    +0.000 C 
ATOM      4  N   UNL     1       1.385   8.743  19.860  0.00  0.00    +0.000 N 
ATOM      5  C   UNL     1       2.037   7.986  18.888  0.00  0.00    +0.000 C 
ATOM      6  O   UNL     1       2.038   8.298  17.697  0.00  0.00    +0.000 OA
ATOM      7  C   UNL     1       1.058   8.243  21.190  0.00  0.00    +0.000 C 
ATOM      8  C   UNL     1       1.145   9.323  22.258  0.00  0.00    +0.000 C 
ENDROOT
BRANCH   1  14
ATOM      9  C   UNL     1      -2.583  15.504  24.736  0.00  0.00    +0.000 C 
ATOM     10  C   UNL     1      -2.202  14.236  24.041  0.00  0.00    +0.000 A 
ATOM     11  C   UNL     1      -3.135  13.266  23.719  0.00  0.00    +0.000 A 
ATOM     12  C   UNL     1      -2.701  12.083  23.115  0.00  0.00    +0.000 A 
ATOM     13  C   UNL     1      -1.350  11.896  22.855  0.00  0.00    +0.000 A 
ATOM     14  N   UNL     1      -0.934  10.709  22.211  0.00  0.00    +0.000 N 
ATOM     15  N   UNL     1      -0.480  12.875  23.180  0.00  0.00    +0.000 NA
ATOM     16  N   UNL     1      -0.895  14.040  23.787  0.00  0.00    +0.000 NA
ATOM     17  H   UNL     1      -1.273   9.901  22.724  0.00  0.00    +0.000 HD
ENDBRANCH   1  14
BRANCH   5  18
ATOM     18  C   UNL     1       2.819   6.743  19.349  0.00  0.00    +0.000 C 
BRANCH  18  19
ATOM     19  O   UNL     1       3.014   5.690  18.419  0.00  0.00    +0.000 OA
BRANCH  19  20
ATOM     20  C   UNL     1       1.943   4.744  18.338  0.00  0.00    +0.000 C 
ATOM     21  C   UNL     1       2.266   3.586  17.388  0.00  0.00    +0.000 C 
ATOM     22  C   UNL     1       3.463   2.772  17.877  0.00  0.00    +0.000 C 
ATOM     23  C   UNL     1       3.244   2.260  19.297  0.00  0.00    +0.000 C 
ATOM     24  C   UNL     1       2.901   3.391  20.262  0.00  0.00    +0.000 C 
ATOM     25  C   UNL     1       1.712   4.213  19.759  0.00  0.00    +0.000 C 
ENDBRANCH  19  20
ENDBRANCH  18  19
ENDBRANCH   5  18
TORSDOF 4
ENDMDL
MODEL 3
REMARK VINA RESULT:      -7.1      1.754      2.594
REMARK  Name = 
REMARK  5 active torsions:
REMARK  status: ('A' for Active; 'I' for Inactive)
REMARK    1  A    between atoms: C_1  and  C_2
REMARK    2  A    between atoms: N_6  and  C_7
REMARK    3  A    between atoms: C_11  and  C_13
REMARK    4  A    between atoms: C_13  and  O_14
REMARK    5  A    between atoms: O_14  and  C_15
REMARK                            x       y       z     vdW  Elec       q    Type
REMARK                         _______ _______ _______ _____ _____    ______ ____
ROOT
ATOM      1  C   UNL     1       0.575  10.698  21.731  0.00  0.00    +0.000 C 
ATOM      2  C   UNL     1       0.802  11.247  20.317  0.00  0.00    +0.000 C 
ATOM      3  C   UNL     1       0.662  10.217  19.208  0.00  0.00    +0.000 C 
ATOM      4  N   UNL     1       1.425   9.012  19.500  0.00  0.00    +0.000 N 
ATOM      5  C   UNL     1       2.064   8.364  18.445  0.00  0.00    +0.000 C 
ATOM      6  O   UNL     1       2.064   8.810  17.296  0.00  0.00    +0.000 OA
ATOM      7  C   UNL     1       1.098   8.368  20.766  0.00  0.00    +0.000 C 
ATOM      8  C   UNL     1       1.203   9.318  21.950  0.00  0.00    +0.000 C 
ENDROOT
BRANCH   1  14
ATOM      9  C   UNL     1      -2.524  15.425  24.760  0.00  0.00    +0.000 C 
ATOM     10  C   UNL     1      -2.139  14.182  24.023  0.00  0.00    +0.000 A 
ATOM     11  C   UNL     1      -3.067  13.216  23.677  0.00  0.00    +0.000 A 
ATOM     12  C   UNL     1      -2.629  12.056  23.033  0.00  0.00    +0.000 A 
ATOM     13  C   UNL     1      -1.279  11.888  22.757  0.00  0.00    +0.000 A 
ATOM     14  N   UNL     1      -0.858  10.725  22.073  0.00  0.00    +0.000 N 
ATOM     15  N   UNL     1      -0.414  12.862  23.107  0.00  0.00    +0.000 NA
ATOM     16  N   UNL     1      -0.833  14.004  23.754  0.00  0.00    +0.000 NA
ATOM     17  H   UNL     1      -1.188   9.898  22.563  0.00  0.00    +0.000 HD
ENDBRANCH   1  14
BRANCH   5  18
ATOM     18  C   UNL     1       2.832   7.067  18.756  0.00  0.00    +0.000 C 
BRANCH  18  19
ATOM     19  O   UNL     1       3.969   6.755  17.967  0.00  0.00    +0.000 OA
BRANCH  19  20
ATOM     20  C   UNL     1       4.436   5.407  18.081  0.00  0.00    +0.000 C 
ATOM     21  C   UNL     1       4.547   4.717  16.717  0.00  0.00    +0.000 C 
ATOM     22  C   UNL     1       5.573   5.406  15.818  0.00  0.00    +0.000 C 
ATOM     23  C   UNL     1       6.938   5.488  16.493  0.00  0.00    +0.000 C 
ATOM     24  C   UNL     1       6.855   6.154  17.864  0.00  0.00    +0.000 C 
ATOM     25  C   UNL     1       5.813   5.471  18.754  0.00  0.00    +0.000 C 
ENDBRANCH  19  20
ENDBRANCH  18  19
ENDBRANCH   5  18
TORSDOF 4
ENDMDL
MODEL 4
REMARK VINA RESULT:      -7.1      4.000      9.844
REMARK  Name = 
REMARK  5 active torsions:
REMARK  status: ('A' for Active; 'I' for Inactive)
REMARK    1  A    between atoms: C_1  and  C_2
REMARK    2  A    between atoms: N_6  and  C_7
REMARK    3  A    between atoms: C_11  and  C_13
REMARK    4  A    between atoms: C_13  and  O_14
REMARK    5  A    between atoms: O_14  and  C_15
REMARK                            x       y       z     vdW  Elec       q    Type
REMARK                         _______ _______ _______ _____ _____    ______ ____
ROOT
ATOM      1  C   UNL     1       4.503   6.172  18.040  0.00  0.00    +0.000 C 
ATOM      2  C   UNL     1       4.025   5.702  19.419  0.00  0.00    +0.000 C 
ATOM      3  C   UNL     1       2.569   6.015  19.725  0.00  0.00    +0.000 C 
ATOM      4  N   UNL     1       2.251   7.405  19.434  0.00  0.00    +0.000 N 
ATOM      5  C   UNL     1       1.371   8.072  20.286  0.00  0.00    +0.000 C 
ATOM      6  O   UNL     1       0.914   7.552  21.305  0.00  0.00    +0.000 OA
ATOM      7  C   UNL     1       2.532   7.830  18.068  0.00  0.00    +0.000 C 
ATOM      8  C   UNL     1       3.971   7.557  17.656  0.00  0.00    +0.000 C 
ENDROOT
BRANCH   1  14
ATOM      9  C   UNL     1       8.055   4.855  12.865  0.00  0.00    +0.000 C 
ATOM     10  C   UNL     1       7.033   4.873  13.956  0.00  0.00    +0.000 A 
ATOM     11  C   UNL     1       5.975   3.980  13.988  0.00  0.00    +0.000 A 
ATOM     12  C   UNL     1       5.029   4.087  15.010  0.00  0.00    +0.000 A 
ATOM     13  C   UNL     1       5.158   5.083  15.968  0.00  0.00    +0.000 A 
ATOM     14  N   UNL     1       4.211   5.154  17.015  0.00  0.00    +0.000 N 
ATOM     15  N   UNL     1       6.211   5.924  15.900  0.00  0.00    +0.000 NA
ATOM     16  N   UNL     1       7.143   5.836  14.889  0.00  0.00    +0.000 NA
ATOM     17  H   UNL     1       3.273   5.203  16.630  0.00  0.00    +0.000 HD
ENDBRANCH   1  14
BRANCH   5  18
ATOM     18  C   UNL     1       1.006   9.528  19.946  0.00  0.00    +0.000 C 
BRANCH  18  19
ATOM     19  O   UNL     1      -0.314   9.804  19.507  0.00  0.00    +0.000 OA
BRANCH  19  20
ATOM     20  C   UNL     1      -0.406  10.524  18.273  0.00  0.00    +0.000 C 
ATOM     21  C   UNL     1      -1.424   9.898  17.314  0.00  0.00    +0.000 C 
ATOM     22  C   UNL     1      -2.839   9.937  17.888  0.00  0.00    +0.000 C 
ATOM     23  C   UNL     1      -3.250  11.358  18.259  0.00  0.00    +0.000 C 
ATOM     24  C   UNL     1      -2.243  12.014  19.200  0.00  0.00    +0.000 C 
ATOM     25  C   UNL     1      -0.824  11.957  18.627  0.00  0.00    +0.000 C 
ENDBRANCH  19  20
ENDBRANCH  18  19
ENDBRANCH   5  18
TORSDOF 4
ENDMDL
MODEL 5
REMARK VINA RESULT:      -7.1      1.475      2.028
REMARK  Name = 
REMARK  5 active torsions:
REMARK  status: ('A' for Active; 'I' for Inactive)
REMARK    1  A    between atoms: C_1  and  C_2
REMARK    2  A    between atoms: N_6  and  C_7
REMARK    3  A    between atoms: C_11  and  C_13
REMARK    4  A    between atoms: C_13  and  O_14
REMARK    5  A    between atoms: O_14  and  C_15
REMARK                            x       y       z     vdW  Elec       q    Type
REMARK                         _______ _______ _______ _____ _____    ______ ____
ROOT
ATOM      1  C   UNL     1       0.344  10.996  21.819  0.00  0.00    +0.000 C 
ATOM      2  C   UNL     1       0.592  11.598  20.430  0.00  0.00    +0.000 C 
ATOM      3  C   UNL     1       0.433  10.618  19.278  0.00  0.00    +0.000 C 
ATOM      4  N   UNL     1       1.163   9.384  19.523  0.00  0.00    +0.000 N 
ATOM      5  C   UNL     1       1.791   8.764  18.444  0.00  0.00    +0.000 C 
ATOM      6  O   UNL     1       1.808   9.257  17.316  0.00  0.00    +0.000 OA
ATOM      7  C   UNL     1       0.814   8.695  20.760  0.00  0.00    +0.000 C 
ATOM      8  C   UNL     1       0.936   9.593  21.983  0.00  0.00    +0.000 C 
ENDROOT
BRANCH   1  14
ATOM      9  C   UNL     1      -2.648  15.663  25.043  0.00  0.00    +0.000 C 
ATOM     10  C   UNL     1      -2.291  14.445  24.253  0.00  0.00    +0.000 A 
ATOM     11  C   UNL     1      -3.242  13.519  23.860  0.00  0.00    +0.000 A 
ATOM     12  C   UNL     1      -2.830  12.378  23.166  0.00  0.00    +0.000 A 
ATOM     13  C   UNL     1      -1.484  12.187  22.889  0.00  0.00    +0.000 A 
ATOM     14  N   UNL     1      -1.090  11.045  22.156  0.00  0.00    +0.000 N 
ATOM     15  N   UNL     1      -0.595  13.122  23.287  0.00  0.00    +0.000 NA
ATOM     16  N   UNL     1      -0.989  14.245  23.981  0.00  0.00    +0.000 NA
ATOM     17  H   UNL     1      -1.444  10.206  22.607  0.00  0.00    +0.000 HD
ENDBRANCH   1  14
BRANCH   5  18
ATOM     18  C   UNL     1       2.525   7.436  18.704  0.00  0.00    +0.000 C 
BRANCH  18  19
ATOM     19  O   UNL     1       3.462   6.987  17.739  0.00  0.00    +0.000 OA
BRANCH  19  20
ATOM     20  C   UNL     1       4.535   6.193  18.255  0.00  0.00    +0.000 C 
ATOM     21  C   UNL     1       4.143   4.719  18.405  0.00  0.00    +0.000 C 
ATOM     22  C   UNL     1       3.810   4.084  17.055  0.00  0.00    +0.000 C 
ATOM     23  C   UNL     1       4.963   4.239  16.068  0.00  0.00    +0.000 C 
ATOM     24  C   UNL     1       5.387   5.697  15.915  0.00  0.00    +0.000 C 
ATOM     25  C   UNL     1       5.703   6.333  17.271  0.00  0.00    +0.000 C 
ENDBRANCH  19  20
ENDBRANCH  18  19
ENDBRANCH   5  18
TORSDOF 4
ENDMDL
MODEL 6
REMARK VINA RESULT:      -6.9      4.189     10.169
REMARK  Name = 
REMARK  5 active torsions:
REMARK  status: ('A' for Active; 'I' for Inactive)
REMARK    1  A    between atoms: C_1  and  C_2
REMARK    2  A    between atoms: N_6  and  C_7
REMARK    3  A    between atoms: C_11  and  C_13
REMARK    4  A    between atoms: C_13  and  O_14
REMARK    5  A    between atoms: O_14  and  C_15
REMARK                            x       y       z     vdW  Elec       q    Type
REMARK                         _______ _______ _______ _____ _____    ______ ____
ROOT
ATOM      1  C   UNL     1       5.250   4.368  18.106  0.00  0.00    +0.000 C 
ATOM      2  C   UNL     1       4.446   3.690  19.222  0.00  0.00    +0.000 C 
ATOM      3  C   UNL     1       3.009   4.168  19.347  0.00  0.00    +0.000 C 
ATOM      4  N   UNL     1       2.930   5.621  19.364  0.00  0.00    +0.000 N 
ATOM      5  C   UNL     1       1.985   6.220  20.195  0.00  0.00    +0.000 C 
ATOM      6  O   UNL     1       1.268   5.572  20.958  0.00  0.00    +0.000 OA
ATOM      7  C   UNL     1       3.535   6.286  18.216  0.00  0.00    +0.000 C 
ATOM      8  C   UNL     1       4.983   5.872  17.998  0.00  0.00    +0.000 C 
ENDROOT
BRANCH   1  14
ATOM      9  C   UNL     1       8.294   5.579  12.592  0.00  0.00    +0.000 C 
ATOM     10  C   UNL     1       7.442   5.018  13.686  0.00  0.00    +0.000 A 
ATOM     11  C   UNL     1       6.613   3.928  13.486  0.00  0.00    +0.000 A 
ATOM     12  C   UNL     1       5.807   3.488  14.540  0.00  0.00    +0.000 A 
ATOM     13  C   UNL     1       5.846   4.148  15.760  0.00  0.00    +0.000 A 
ATOM     14  N   UNL     1       5.051   3.667  16.825  0.00  0.00    +0.000 N 
ATOM     15  N   UNL     1       6.677   5.201  15.908  0.00  0.00    +0.000 NA
ATOM     16  N   UNL     1       7.466   5.651  14.873  0.00  0.00    +0.000 NA
ATOM     17  H   UNL     1       4.081   3.600  16.530  0.00  0.00    +0.000 HD
ENDBRANCH   1  14
BRANCH   5  18
ATOM     18  C   UNL     1       1.879   7.756  20.174  0.00  0.00    +0.000 C 
BRANCH  18  19
ATOM     19  O   UNL     1       0.923   8.374  21.020  0.00  0.00    +0.000 OA
BRANCH  19  20
ATOM     20  C   UNL     1       1.392   9.524  21.730  0.00  0.00    +0.000 C 
ATOM     21  C   UNL     1       0.926  10.833  21.084  0.00  0.00    +0.000 C 
ATOM     22  C   UNL     1      -0.596  10.962  21.106  0.00  0.00    +0.000 C 
ATOM     23  C   UNL     1      -1.144  10.835  22.524  0.00  0.00    +0.000 C 
ATOM     24  C   UNL     1      -0.679   9.549  23.200  0.00  0.00    +0.000 C 
ATOM     25  C   UNL     1       0.846   9.417  23.160  0.00  0.00    +0.000 C 
ENDBRANCH  19  20
ENDBRANCH  18  19
ENDBRANCH   5  18
TORSDOF 4
ENDMDL
MODEL 7
REMARK VINA RESULT:      -6.9      2.828      4.177
REMARK  Name = 
REMARK  5 active torsions:
REMARK  status: ('A' for Active; 'I' for Inactive)
REMARK    1  A    between atoms: C_1  and  C_2
REMARK    2  A    between atoms: N_6  and  C_7
REMARK    3  A    between atoms: C_11  and  C_13
REMARK    4  A    between atoms: C_13  and  O_14
REMARK    5  A    between atoms: O_14  and  C_15
REMARK                            x       y       z     vdW  Elec       q    Type
REMARK                         _______ _______ _______ _____ _____    ______ ____
ROOT
ATOM      1  C   UNL     1       0.741  10.004  18.942  0.00  0.00    +0.000 C 
ATOM      2  C   UNL     1       0.560   9.085  20.157  0.00  0.00    +0.000 C 
ATOM      3  C   UNL     1       1.734   8.160  20.431  0.00  0.00    +0.000 C 
ATOM      4  N   UNL     1       2.156   7.463  19.226  0.00  0.00    +0.000 N 
ATOM      5  C   UNL     1       2.575   6.139  19.342  0.00  0.00    +0.000 C 
ATOM      6  O   UNL     1       2.533   5.522  20.407  0.00  0.00    +0.000 OA
ATOM      7  C   UNL     1       2.508   8.327  18.106  0.00  0.00    +0.000 C 
ATOM      8  C   UNL     1       1.396   9.303  17.748  0.00  0.00    +0.000 C 
ENDROOT
BRANCH   1  14
ATOM      9  C   UNL     1      -1.965  15.535  20.734  0.00  0.00    +0.000 C 
ATOM     10  C   UNL     1      -1.025  14.421  20.405  0.00  0.00    +0.000 A 
ATOM     11  C   UNL     1       0.349  14.561  20.513  0.00  0.00    +0.000 A 
ATOM     12  C   UNL     1       1.170  13.494  20.141  0.00  0.00    +0.000 A 
ATOM     13  C   UNL     1       0.603  12.320  19.666  0.00  0.00    +0.000 A 
ATOM     14  N   UNL     1       1.448  11.238  19.327  0.00  0.00    +0.000 N 
ATOM     15  N   UNL     1      -0.741  12.228  19.586  0.00  0.00    +0.000 NA
ATOM     16  N   UNL     1      -1.560  13.278  19.939  0.00  0.00    +0.000 NA
ATOM     17  H   UNL     1       2.151  11.545  18.661  0.00  0.00    +0.000 HD
ENDBRANCH   1  14
BRANCH   5  18
ATOM     18  C   UNL     1       3.061   5.423  18.068  0.00  0.00    +0.000 C 
BRANCH  18  19
ATOM     19  O   UNL     1       4.431   5.068  17.980  0.00  0.00    +0.000 OA
BRANCH  19  20
ATOM     20  C   UNL     1       5.311   6.127  17.589  0.00  0.00    +0.000 C 
ATOM     21  C   UNL     1       6.778   5.797  17.882  0.00  0.00    +0.000 C 
ATOM     22  C   UNL     1       7.255   4.586  17.083  0.00  0.00    +0.000 C 
ATOM     23  C   UNL     1       7.035   4.785  15.586  0.00  0.00    +0.000 C 
ATOM     24  C   UNL     1       5.585   5.134  15.267  0.00  0.00    +0.000 C 
ATOM     25  C   UNL     1       5.107   6.338  16.083  0.00  0.00    +0.000 C 
ENDBRANCH  19  20
ENDBRANCH  18  19
ENDBRANCH   5  18
TORSDOF 4
ENDMDL
MODEL 8
REMARK VINA RESULT:      -6.9      2.975      5.323
REMARK  Name = 
REMARK  5 active torsions:
REMARK  status: ('A' for Active; 'I' for Inactive)
REMARK    1  A    between atoms: C_1  and  C_2
REMARK    2  A    between atoms: N_6  and  C_7
REMARK    3  A    between atoms: C_11  and  C_13
REMARK    4  A    between atoms: C_13  and  O_14
REMARK    5  A    between atoms: O_14  and  C_15
REMARK                            x       y       z     vdW  Elec       q    Type
REMARK                         _______ _______ _______ _____ _____    ______ ____
ROOT
ATOM      1  C   UNL     1       1.548   6.541  20.157  0.00  0.00    +0.000 C 
ATOM      2  C   UNL     1       1.297   5.090  20.585  0.00  0.00    +0.000 C 
ATOM      3  C   UNL     1       2.557   4.286  20.866  0.00  0.00    +0.000 C 
ATOM      4  N   UNL     1       3.527   4.422  19.790  0.00  0.00    +0.000 N 
ATOM      5  C   UNL     1       4.281   3.305  19.437  0.00  0.00    +0.000 C 
ATOM      6  O   UNL     1       4.108   2.199  19.951  0.00  0.00    +0.000 OA
ATOM      7  C   UNL     1       3.918   5.793  19.482  0.00  0.00    +0.000 C 
ATOM      8  C   UNL     1       2.725   6.689  19.188  0.00  0.00    +0.000 C 
ENDROOT
BRANCH   1  14
ATOM      9  C   UNL     1      -1.406  12.159  21.073  0.00  0.00    +0.000 C 
ATOM     10  C   UNL     1      -0.602  10.905  21.203  0.00  0.00    +0.000 A 
ATOM     11  C   UNL     1       0.127  10.614  22.344  0.00  0.00    +0.000 A 
ATOM     12  C   UNL     1       0.895   9.447  22.377  0.00  0.00    +0.000 A 
ATOM     13  C   UNL     1       0.923   8.608  21.272  0.00  0.00    +0.000 A 
ATOM     14  N   UNL     1       1.677   7.414  21.337  0.00  0.00    +0.000 N 
ATOM     15  N   UNL     1       0.190   8.931  20.186  0.00  0.00    +0.000 NA
ATOM     16  N   UNL     1      -0.562  10.084  20.138  0.00  0.00    +0.000 NA
ATOM     17  H   UNL     1       2.635   7.625  21.600  0.00  0.00    +0.000 HD
ENDBRANCH   1  14
BRANCH   5  18
ATOM     18  C   UNL     1       5.336   3.469  18.327  0.00  0.00    +0.000 C 
BRANCH  18  19
ATOM     19  O   UNL     1       6.394   4.389  18.539  0.00  0.00    +0.000 OA
BRANCH  19  20
ATOM     20  C   UNL     1       7.169   4.703  17.377  0.00  0.00    +0.000 C 
ATOM     21  C   UNL     1       6.467   4.279  16.083  0.00  0.00    +0.000 C 
ATOM     22  C   UNL     1       5.151   5.031  15.882  0.00  0.00    +0.000 C 
ATOM     23  C   UNL     1       5.364   6.541  15.912  0.00  0.00    +0.000 C 
ATOM     24  C   UNL     1       6.080   6.989  17.182  0.00  0.00    +0.000 C 
ATOM     25  C   UNL     1       7.389   6.221  17.387  0.00  0.00    +0.000 C 
ENDBRANCH  19  20
ENDBRANCH  18  19
ENDBRANCH   5  18
TORSDOF 4
ENDMDL
MODEL 9
REMARK VINA RESULT:      -6.9      0.905      1.344
REMARK  Name = 
REMARK  5 active torsions:
REMARK  status: ('A' for Active; 'I' for Inactive)
REMARK    1  A    between atoms: C_1  and  C_2
REMARK    2  A    between atoms: N_6  and  C_7
REMARK    3  A    between atoms: C_11  and  C_13
REMARK    4  A    between atoms: C_13  and  O_14
REMARK    5  A    between atoms: O_14  and  C_15
REMARK                            x       y       z     vdW  Elec       q    Type
REMARK                         _______ _______ _______ _____ _____    ______ ____
ROOT
ATOM      1  C   UNL     1       0.338  11.591  21.106  0.00  0.00    +0.000 C 
ATOM      2  C   UNL     1       0.717  11.884  19.649  0.00  0.00    +0.000 C 
ATOM      3  C   UNL     1       0.596  10.694  18.712  0.00  0.00    +0.000 C 
ATOM      4  N   UNL     1       1.246   9.514  19.263  0.00  0.00    +0.000 N 
ATOM      5  C   UNL     1       1.921   8.664  18.388  0.00  0.00    +0.000 C 
ATOM      6  O   UNL     1       2.045   8.912  17.188  0.00  0.00    +0.000 OA
ATOM      7  C   UNL     1       0.773   9.108  20.581  0.00  0.00    +0.000 C 
ATOM      8  C   UNL     1       0.848  10.234  21.601  0.00  0.00    +0.000 C 
ENDROOT
BRANCH   1  14
ATOM      9  C   UNL     1      -2.498  15.465  25.358  0.00  0.00    +0.000 C 
ATOM     10  C   UNL     1      -2.182  14.503  24.257  0.00  0.00    +0.000 A 
ATOM     11  C   UNL     1      -3.172  13.897  23.503  0.00  0.00    +0.000 A 
ATOM     12  C   UNL     1      -2.806  12.970  22.524  0.00  0.00    +0.000 A 
ATOM     13  C   UNL     1      -1.466  12.668  22.327  0.00  0.00    +0.000 A 
ATOM     14  N   UNL     1      -1.112  11.755  21.307  0.00  0.00    +0.000 N 
ATOM     15  N   UNL     1      -0.537  13.291  23.081  0.00  0.00    +0.000 NA
ATOM     16  N   UNL     1      -0.887  14.198  24.058  0.00  0.00    +0.000 NA
ATOM     17  H   UNL     1      -1.620  10.884  21.432  0.00  0.00    +0.000 HD
ENDBRANCH   1  14
BRANCH   5  18
ATOM     18  C   UNL     1       2.568   7.396  18.972  0.00  0.00    +0.000 C 
BRANCH  18  19
ATOM     19  O   UNL     1       2.324   6.158  18.324  0.00  0.00    +0.000 OA
BRANCH  19  20
ATOM     20  C   UNL     1       2.335   5.011  19.179  0.00  0.00    +0.000 C 
ATOM     21  C   UNL     1       1.662   3.798  18.527  0.00  0.00    +0.000 C 
ATOM     22  C   UNL     1       2.406   3.348  17.271  0.00  0.00    +0.000 C 
ATOM     23  C   UNL     1       3.874   3.056  17.568  0.00  0.00    +0.000 C 
ATOM     24  C   UNL     1       4.564   4.242  18.237  0.00  0.00    +0.000 C 
ATOM     25  C   UNL     1       3.806   4.699  19.485  0.00  0.00    +0.000 C 
ENDBRANCH  19  20
ENDBRANCH  18  19
ENDBRANCH   5  18
TORSDOF 4
ENDMDL
