MODEL 1
REMARK VINA RESULT:      -8.3      0.000      0.000
REMARK  Name = 
REMARK  7 active torsions:
REMARK  status: ('A' for Active; 'I' for Inactive)
REMARK    1  A    between atoms: C_1  and  N_2
REMARK    2  A    between atoms: C_3  and  O_4
REMARK    3  A    between atoms: C_5  and  N_6
REMARK    4  A    between atoms: N_7  and  C_8
REMARK    5  A    between atoms: C_8  and  C_10
REMARK    6  A    between atoms: C_10  and  N_11
REMARK    7  A    between atoms: C_14  and  C_15
REMARK                            x       y       z     vdW  Elec       q    Type
REMARK                         _______ _______ _______ _____ _____    ______ ____
ROOT
ATOM      1  N   UNL     1       5.778   3.816  18.466  0.00  0.00    +0.000 NA
ATOM      2  N   UNL     1       6.583   4.727  18.741  0.00  0.00    +0.000 NA
ENDROOT
BRANCH   1   6
ATOM      3  C   UNL     1       2.322   2.317  21.712  0.00  0.00    +0.000 C 
ATOM      4  N   UNL     1       3.120   3.072  20.769  0.00  0.00    +0.000 N 
ATOM      5  C   UNL     1       4.280   2.667  20.131  0.00  0.00    +0.000 A 
ATOM      6  C   UNL     1       4.677   3.726  19.335  0.00  0.00    +0.000 A 
ATOM      7  C   UNL     1       3.746   4.787  19.468  0.00  0.00    +0.000 A 
ATOM      8  C   UNL     1       3.633   6.076  18.905  0.00  0.00    +0.000 A 
ATOM      9  C   UNL     1       2.563   6.899  19.269  0.00  0.00    +0.000 A 
ATOM     10  C   UNL     1       1.609   6.454  20.178  0.00  0.00    +0.000 A 
ATOM     11  C   UNL     1       1.696   5.180  20.747  0.00  0.00    +0.000 A 
ATOM     12  C   UNL     1       2.777   4.360  20.378  0.00  0.00    +0.000 A 
BRANCH   5  13
ATOM     13  O   UNL     1       4.850   1.473  20.289  0.00  0.00    +0.000 OA
ATOM     14  H   UNL     1       4.484   1.001  21.051  0.00  0.00    +0.000 HD
ENDBRANCH   5  13
ENDBRANCH   1   6
BRANCH   2  15
ATOM     15  C   UNL     1       7.619   4.770  17.827  0.00  0.00    +0.000 C 
ATOM     16  O   UNL     1       8.658   4.107  17.876  0.00  0.00    +0.000 OA
BRANCH  15  17
ATOM     17  C   UNL     1       7.376   5.725  16.692  0.00  0.00    +0.000 C 
BRANCH  17  18
ATOM     18  N   UNL     1       6.667   5.125  15.575  0.00  0.00    +0.000 N 
ATOM     19  C   UNL     1       5.338   4.835  15.468  0.00  0.00    +0.000 A 
ATOM     20  C   UNL     1       5.155   4.334  14.200  0.00  0.00    +0.000 A 
ATOM     21  C   UNL     1       6.432   4.384  13.582  0.00  0.00    +0.000 A 
ATOM     22  N   UNL     1       7.349   4.891  14.433  0.00  0.00    +0.000 NA
BRANCH  21  23
ATOM     23  C   UNL     1       6.770   3.958  12.176  0.00  0.00    +0.000 C 
ATOM     24  F   UNL     1       5.652   3.722  11.433  0.00  0.00    +0.000 F 
ATOM     25  F   UNL     1       7.482   4.901  11.501  0.00  0.00    +0.000 F 
ATOM     26  F   UNL     1       7.500   2.811  12.139  0.00  0.00    +0.000 F 
ENDBRANCH  21  23
ENDBRANCH  17  18
ENDBRANCH  15  17
ENDBRANCH   2  15
TORSDOF 6
ENDMDL
MODEL 2
REMARK VINA RESULT:      -8.2      3.561      4.730
REMARK  Name = 
REMARK  7 active torsions:
REMARK  status: ('A' for Active; 'I' for Inactive)
REMARK    1  A    between atoms: C_1  and  N_2
REMARK    2  A    between atoms: C_3  and  O_4
REMARK    3  A    between atoms: C_5  and  N_6
REMARK    4  A    between atoms: N_7  and  C_8
REMARK    5  A    between atoms: C_8  and  C_10
REMARK    6  A    between atoms: C_10  and  N_11
REMARK    7  A    between atoms: C_14  and  C_15
REMARK                            x       y       z     vdW  Elec       q    Type
REMARK                         _______ _______ _______ _____ _____    ______ ____
ROOT
ATOM      1  N   UNL     1       4.456   4.306  16.756  0.00  0.00    +0.000 NA
ATOM      2  N   UNL     1       4.777   5.088  15.839  0.00  0.00    +0.000 NA
ENDROOT
BRANCH   1   6
ATOM      3  C   UNL     1       2.064   7.339  19.886  0.00  0.00    +0.000 C 
ATOM      4  N   UNL     1       2.539   6.194  19.140  0.00  0.00    +0.000 N 
ATOM      5  C   UNL     1       3.496   6.176  18.139  0.00  0.00    +0.000 A 
ATOM      6  C   UNL     1       3.606   4.860  17.727  0.00  0.00    +0.000 A 
ATOM      7  C   UNL     1       2.724   4.055  18.491  0.00  0.00    +0.000 A 
ATOM      8  C   UNL     1       2.421   2.678  18.520  0.00  0.00    +0.000 A 
ATOM      9  C   UNL     1       1.463   2.197  19.418  0.00  0.00    +0.000 A 
ATOM     10  C   UNL     1       0.810   3.068  20.285  0.00  0.00    +0.000 A 
ATOM     11  C   UNL     1       1.095   4.437  20.279  0.00  0.00    +0.000 A 
ATOM     12  C   UNL     1       2.057   4.912  19.370  0.00  0.00    +0.000 A 
BRANCH   5  13
ATOM     13  O   UNL     1       4.154   7.251  17.706  0.00  0.00    +0.000 OA
ATOM     14  H   UNL     1       4.287   7.225  16.747  0.00  0.00    +0.000 HD
ENDBRANCH   5  13
ENDBRANCH   1   6
BRANCH   2  15
ATOM     15  C   UNL     1       5.586   4.463  14.910  0.00  0.00    +0.000 C 
ATOM     16  O   UNL     1       5.223   4.005  13.823  0.00  0.00    +0.000 OA
BRANCH  15  17
ATOM     17  C   UNL     1       7.028   4.386  15.328  0.00  0.00    +0.000 C 
BRANCH  17  18
ATOM     18  N   UNL     1       7.329   5.176  16.509  0.00  0.00    +0.000 N 
ATOM     19  C   UNL     1       7.569   4.746  17.781  0.00  0.00    +0.000 A 
ATOM     20  C   UNL     1       7.860   5.870  18.519  0.00  0.00    +0.000 A 
ATOM     21  C   UNL     1       7.807   6.952  17.601  0.00  0.00    +0.000 A 
ATOM     22  N   UNL     1       7.498   6.508  16.364  0.00  0.00    +0.000 NA
BRANCH  21  23
ATOM     23  C   UNL     1       8.063   8.407  17.906  0.00  0.00    +0.000 C 
ATOM     24  F   UNL     1       8.724   8.570  19.087  0.00  0.00    +0.000 F 
ATOM     25  F   UNL     1       8.825   9.014  16.957  0.00  0.00    +0.000 F 
ATOM     26  F   UNL     1       6.913   9.128  18.012  0.00  0.00    +0.000 F 
ENDBRANCH  21  23
ENDBRANCH  17  18
ENDBRANCH  15  17
ENDBRANCH   2  15
TORSDOF 6
ENDMDL
MODEL 3
REMARK VINA RESULT:      -8.1      1.175      1.630
REMARK  Name = 
REMARK  7 active torsions:
REMARK  status: ('A' for Active; 'I' for Inactive)
REMARK    1  A    between atoms: C_1  and  N_2
REMARK    2  A    between atoms: C_3  and  O_4
REMARK    3  A    between atoms: C_5  and  N_6
REMARK    4  A    between atoms: N_7  and  C_8
REMARK    5  A    between atoms: C_8  and  C_10
REMARK    6  A    between atoms: C_10  and  N_11
REMARK    7  A    between atoms: C_14  and  C_15
REMARK                            x       y       z     vdW  Elec       q    Type
REMARK                         _______ _______ _______ _____ _____    ______ ____
ROOT
ATOM      1  N   UNL     1       5.099   4.214  17.682  0.00  0.00    +0.000 NA
ATOM      2  N   UNL     1       6.261   4.544  17.991  0.00  0.00    +0.000 NA
ENDROOT
BRANCH   1   6
ATOM      3  C   UNL     1       2.402   2.553  21.516  0.00  0.00    +0.000 C 
ATOM      4  N   UNL     1       2.998   3.359  20.472  0.00  0.00    +0.000 N 
ATOM      5  C   UNL     1       3.966   2.976  19.559  0.00  0.00    +0.000 A 
ATOM      6  C   UNL     1       4.219   4.085  18.770  0.00  0.00    +0.000 A 
ATOM      7  C   UNL     1       3.389   5.156  19.188  0.00  0.00    +0.000 A 
ATOM      8  C   UNL     1       3.209   6.488  18.760  0.00  0.00    +0.000 A 
ATOM      9  C   UNL     1       2.285   7.307  19.416  0.00  0.00    +0.000 A 
ATOM     10  C   UNL     1       1.542   6.816  20.485  0.00  0.00    +0.000 A 
ATOM     11  C   UNL     1       1.699   5.499  20.926  0.00  0.00    +0.000 A 
ATOM     12  C   UNL     1       2.633   4.683  20.262  0.00  0.00    +0.000 A 
BRANCH   5  13
ATOM     13  O   UNL     1       4.505   1.759  19.496  0.00  0.00    +0.000 OA
ATOM     14  H   UNL     1       4.595   1.363  20.375  0.00  0.00    +0.000 HD
ENDBRANCH   5  13
ENDBRANCH   1   6
BRANCH   2  15
ATOM     15  C   UNL     1       7.055   4.680  16.869  0.00  0.00    +0.000 C 
ATOM     16  O   UNL     1       8.149   4.140  16.684  0.00  0.00    +0.000 OA
BRANCH  15  17
ATOM     17  C   UNL     1       6.457   5.572  15.817  0.00  0.00    +0.000 C 
BRANCH  17  18
ATOM     18  N   UNL     1       6.522   5.010  14.479  0.00  0.00    +0.000 N 
ATOM     19  C   UNL     1       7.586   4.964  13.626  0.00  0.00    +0.000 A 
ATOM     20  C   UNL     1       7.157   4.280  12.512  0.00  0.00    +0.000 A 
ATOM     21  C   UNL     1       5.814   3.912  12.786  0.00  0.00    +0.000 A 
ATOM     22  N   UNL     1       5.443   4.350  14.007  0.00  0.00    +0.000 NA
BRANCH  21  23
ATOM     23  C   UNL     1       4.892   3.130  11.883  0.00  0.00    +0.000 C 
ATOM     24  F   UNL     1       4.714   3.747  10.681  0.00  0.00    +0.000 F 
ATOM     25  F   UNL     1       5.364   1.885  11.605  0.00  0.00    +0.000 F 
ATOM     26  F   UNL     1       3.650   2.973  12.417  0.00  0.00    +0.000 F 
ENDBRANCH  21  23
ENDBRANCH  17  18
ENDBRANCH  15  17
ENDBRANCH   2  15
TORSDOF 6
ENDMDL
MODEL 4
REMARK VINA RESULT:      -8.0      6.240      8.095
REMARK  Name = 
REMARK  7 active torsions:
REMARK  status: ('A' for Active; 'I' for Inactive)
REMARK    1  A    between atoms: C_1  and  N_2
REMARK    2  A    between atoms: C_3  and  O_4
REMARK    3  A    between atoms: C_5  and  N_6
REMARK    4  A    between atoms: N_7  and  C_8
REMARK    5  A    between atoms: C_8  and  C_10
REMARK    6  A    between atoms: C_10  and  N_11
REMARK    7  A    between atoms: C_14  and  C_15
REMARK                            x       y       z     vdW  Elec       q    Type
REMARK                         _______ _______ _______ _____ _____    ______ ____
ROOT
ATOM      1  N   UNL     1       2.223   7.741  18.781  0.00  0.00    +0.000 NA
ATOM      2  N   UNL     1       2.563   8.620  17.965  0.00  0.00    +0.000 NA
ENDROOT
BRANCH   1   6
ATOM      3  C   UNL     1       5.000   3.949  17.156  0.00  0.00    +0.000 C 
ATOM      4  N   UNL     1       4.066   4.790  17.874  0.00  0.00    +0.000 N 
ATOM      5  C   UNL     1       3.804   6.133  17.662  0.00  0.00    +0.000 A 
ATOM      6  C   UNL     1       2.847   6.496  18.592  0.00  0.00    +0.000 A 
ATOM      7  C   UNL     1       2.501   5.364  19.374  0.00  0.00    +0.000 A 
ATOM      8  C   UNL     1       1.601   5.138  20.436  0.00  0.00    +0.000 A 
ATOM      9  C   UNL     1       1.509   3.864  21.007  0.00  0.00    +0.000 A 
ATOM     10  C   UNL     1       2.296   2.821  20.531  0.00  0.00    +0.000 A 
ATOM     11  C   UNL     1       3.193   3.018  19.477  0.00  0.00    +0.000 A 
ATOM     12  C   UNL     1       3.282   4.303  18.911  0.00  0.00    +0.000 A 
BRANCH   5  13
ATOM     13  O   UNL     1       4.389   6.877  16.723  0.00  0.00    +0.000 OA
ATOM     14  H   UNL     1       5.348   6.918  16.847  0.00  0.00    +0.000 HD
ENDBRANCH   5  13
ENDBRANCH   1   6
BRANCH   2  15
ATOM     15  C   UNL     1       1.932   9.820  18.232  0.00  0.00    +0.000 C 
ATOM     16  O   UNL     1       2.280  10.930  17.822  0.00  0.00    +0.000 OA
BRANCH  15  17
ATOM     17  C   UNL     1       0.712   9.674  19.097  0.00  0.00    +0.000 C 
BRANCH  17  18
ATOM     18  N   UNL     1      -0.454  10.363  18.571  0.00  0.00    +0.000 N 
ATOM     19  C   UNL     1      -0.953  11.582  18.925  0.00  0.00    +0.000 A 
ATOM     20  C   UNL     1      -2.028  11.812  18.099  0.00  0.00    +0.000 A 
ATOM     21  C   UNL     1      -2.096  10.685  17.238  0.00  0.00    +0.000 A 
ATOM     22  N   UNL     1      -1.109   9.811  17.528  0.00  0.00    +0.000 NA
BRANCH  21  23
ATOM     23  C   UNL     1      -3.096  10.453  16.134  0.00  0.00    +0.000 C 
ATOM     24  F   UNL     1      -2.872  11.268  15.065  0.00  0.00    +0.000 F 
ATOM     25  F   UNL     1      -3.060   9.180  15.655  0.00  0.00    +0.000 F 
ATOM     26  F   UNL     1      -4.376  10.690  16.531  0.00  0.00    +0.000 F 
ENDBRANCH  21  23
ENDBRANCH  17  18
ENDBRANCH  15  17
ENDBRANCH   2  15
TORSDOF 6
ENDMDL
MODEL 5
REMARK VINA RESULT:      -8.0      6.262      8.209
REMARK  Name = 
REMARK  7 active torsions:
REMARK  status: ('A' for Active; 'I' for Inactive)
REMARK    1  A    between atoms: C_1  and  N_2
REMARK    2  A    between atoms: C_3  and  O_4
REMARK    3  A    between atoms: C_5  and  N_6
REMARK    4  A    between atoms: N_7  and  C_8
REMARK    5  A    between atoms: C_8  and  C_10
REMARK    6  A    between atoms: C_10  and  N_11
REMARK    7  A    between atoms: C_14  and  C_15
REMARK                            x       y       z     vdW  Elec       q    Type
REMARK                         _______ _______ _______ _____ _____    ______ ____
ROOT
ATOM      1  N   UNL     1       2.386   7.083  19.269  0.00  0.00    +0.000 NA
ATOM      2  N   UNL     1       2.006   8.029  18.551  0.00  0.00    +0.000 NA
ENDROOT
BRANCH   1   6
ATOM      3  C   UNL     1       4.975   4.090  16.257  0.00  0.00    +0.000 C 
ATOM      4  N   UNL     1       4.039   4.637  17.217  0.00  0.00    +0.000 N 
ATOM      5  C   UNL     1       3.939   5.951  17.644  0.00  0.00    +0.000 A 
ATOM      6  C   UNL     1       2.906   5.985  18.562  0.00  0.00    +0.000 A 
ATOM      7  C   UNL     1       2.350   4.687  18.691  0.00  0.00    +0.000 A 
ATOM      8  C   UNL     1       1.298   4.136  19.452  0.00  0.00    +0.000 A 
ATOM      9  C   UNL     1       1.007   2.772  19.347  0.00  0.00    +0.000 A 
ATOM     10  C   UNL     1       1.746   1.957  18.495  0.00  0.00    +0.000 A 
ATOM     11  C   UNL     1       2.791   2.480  17.727  0.00  0.00    +0.000 A 
ATOM     12  C   UNL     1       3.079   3.852  17.842  0.00  0.00    +0.000 A 
BRANCH   5  13
ATOM     13  O   UNL     1       4.713   6.945  17.211  0.00  0.00    +0.000 OA
ATOM     14  H   UNL     1       5.390   6.628  16.595  0.00  0.00    +0.000 HD
ENDBRANCH   5  13
ENDBRANCH   1   6
BRANCH   2  15
ATOM     15  C   UNL     1       1.538   9.080  19.316  0.00  0.00    +0.000 C 
ATOM     16  O   UNL     1       1.280   9.040  20.522  0.00  0.00    +0.000 OA
BRANCH  15  17
ATOM     17  C   UNL     1       1.367  10.356  18.540  0.00  0.00    +0.000 C 
BRANCH  17  18
ATOM     18  N   UNL     1      -0.021  10.750  18.378  0.00  0.00    +0.000 N 
ATOM     19  C   UNL     1      -0.612  11.938  18.699  0.00  0.00    +0.000 A 
ATOM     20  C   UNL     1      -1.924  11.836  18.299  0.00  0.00    +0.000 A 
ATOM     21  C   UNL     1      -2.042  10.551  17.706  0.00  0.00    +0.000 A 
ATOM     22  N   UNL     1      -0.859   9.902  17.744  0.00  0.00    +0.000 NA
BRANCH  21  23
ATOM     23  C   UNL     1      -3.284   9.953  17.093  0.00  0.00    +0.000 C 
ATOM     24  F   UNL     1      -3.806   8.961  17.868  0.00  0.00    +0.000 F 
ATOM     25  F   UNL     1      -4.277  10.867  16.925  0.00  0.00    +0.000 F 
ATOM     26  F   UNL     1      -3.047   9.397  15.873  0.00  0.00    +0.000 F 
ENDBRANCH  21  23
ENDBRANCH  17  18
ENDBRANCH  15  17
ENDBRANCH   2  15
TORSDOF 6
ENDMDL
MODEL 6
REMARK VINA RESULT:      -7.9      3.351      4.210
REMARK  Name = 
REMARK  7 active torsions:
REMARK  status: ('A' for Active; 'I' for Inactive)
REMARK    1  A    between atoms: C_1  and  N_2
REMARK    2  A    between atoms: C_3  and  O_4
REMARK    3  A    between atoms: C_5  and  N_6
REMARK    4  A    between atoms: N_7  and  C_8
REMARK    5  A    between atoms: C_8  and  C_10
REMARK    6  A    between atoms: C_10  and  N_11
REMARK    7  A    between atoms: C_14  and  C_15
REMARK                            x       y       z     vdW  Elec       q    Type
REMARK                         _______ _______ _______ _____ _____    ______ ____
ROOT
ATOM      1  N   UNL     1       3.765   3.943  16.830  0.00  0.00    +0.000 NA
ATOM      2  N   UNL     1       4.986   4.179  16.930  0.00  0.00    +0.000 NA
ENDROOT
BRANCH   1   6
ATOM      3  C   UNL     1       1.320   2.632  20.956  0.00  0.00    +0.000 C 
ATOM      4  N   UNL     1       1.966   3.365  19.888  0.00  0.00    +0.000 N 
ATOM      5  C   UNL     1       2.612   2.845  18.779  0.00  0.00    +0.000 A 
ATOM      6  C   UNL     1       3.070   3.928  18.051  0.00  0.00    +0.000 A 
ATOM      7  C   UNL     1       2.689   5.127  18.706  0.00  0.00    +0.000 A 
ATOM      8  C   UNL     1       2.866   6.499  18.431  0.00  0.00    +0.000 A 
ATOM      9  C   UNL     1       2.356   7.455  19.315  0.00  0.00    +0.000 A 
ATOM     10  C   UNL     1       1.674   7.060  20.462  0.00  0.00    +0.000 A 
ATOM     11  C   UNL     1       1.482   5.707  20.755  0.00  0.00    +0.000 A 
ATOM     12  C   UNL     1       2.001   4.753  19.861  0.00  0.00    +0.000 A 
BRANCH   5  13
ATOM     13  O   UNL     1       2.730   1.544  18.515  0.00  0.00    +0.000 OA
ATOM     14  H   UNL     1       2.468   1.340  17.606  0.00  0.00    +0.000 HD
ENDBRANCH   5  13
ENDBRANCH   1   6
BRANCH   2  15
ATOM     15  C   UNL     1       5.592   4.207  15.689  0.00  0.00    +0.000 C 
ATOM     16  O   UNL     1       5.051   3.950  14.611  0.00  0.00    +0.000 OA
BRANCH  15  17
ATOM     17  C   UNL     1       7.039   4.611  15.739  0.00  0.00    +0.000 C 
BRANCH  17  18
ATOM     18  N   UNL     1       7.355   5.486  16.855  0.00  0.00    +0.000 N 
ATOM     19  C   UNL     1       7.549   5.159  18.165  0.00  0.00    +0.000 A 
ATOM     20  C   UNL     1       7.879   6.328  18.809  0.00  0.00    +0.000 A 
ATOM     21  C   UNL     1       7.897   7.327  17.800  0.00  0.00    +0.000 A 
ATOM     22  N   UNL     1       7.591   6.791  16.600  0.00  0.00    +0.000 NA
BRANCH  21  23
ATOM     23  C   UNL     1       8.217   8.789  17.985  0.00  0.00    +0.000 C 
ATOM     24  F   UNL     1       9.004   9.268  16.980  0.00  0.00    +0.000 F 
ATOM     25  F   UNL     1       7.104   9.571  18.001  0.00  0.00    +0.000 F 
ATOM     26  F   UNL     1       8.889   9.034  19.143  0.00  0.00    +0.000 F 
ENDBRANCH  21  23
ENDBRANCH  17  18
ENDBRANCH  15  17
ENDBRANCH   2  15
TORSDOF 6
ENDMDL
MODEL 7
REMARK VINA RESULT:      -7.9      3.715      5.658
REMARK  Name = 
REMARK  7 active torsions:
REMARK  status: ('A' for Active; 'I' for Inactive)
REMARK    1  A    between atoms: C_1  and  N_2
REMARK    2  A    between atoms: C_3  and  O_4
REMARK    3  A    between atoms: C_5  and  N_6
REMARK    4  A    between atoms: N_7  and  C_8
REMARK    5  A    between atoms: C_8  and  C_10
REMARK    6  A    between atoms: C_10  and  N_11
REMARK    7  A    between atoms: C_14  and  C_15
REMARK                            x       y       z     vdW  Elec       q    Type
REMARK                         _______ _______ _______ _____ _____    ______ ____
ROOT
ATOM      1  N   UNL     1       2.302   5.923  20.812  0.00  0.00    +0.000 NA
ATOM      2  N   UNL     1       2.094   4.907  20.120  0.00  0.00    +0.000 NA
ENDROOT
BRANCH   1   6
ATOM      3  C   UNL     1       1.870   9.766  17.686  0.00  0.00    +0.000 C 
ATOM      4  N   UNL     1       1.771   8.865  18.814  0.00  0.00    +0.000 N 
ATOM      5  C   UNL     1       2.344   7.611  18.945  0.00  0.00    +0.000 A 
ATOM      6  C   UNL     1       1.965   7.136  20.188  0.00  0.00    +0.000 A 
ATOM      7  C   UNL     1       1.166   8.111  20.838  0.00  0.00    +0.000 A 
ATOM      8  C   UNL     1       0.524   8.183  22.092  0.00  0.00    +0.000 A 
ATOM      9  C   UNL     1      -0.215   9.322  22.427  0.00  0.00    +0.000 A 
ATOM     10  C   UNL     1      -0.318  10.384  21.534  0.00  0.00    +0.000 A 
ATOM     11  C   UNL     1       0.312  10.339  20.287  0.00  0.00    +0.000 A 
ATOM     12  C   UNL     1       1.051   9.188  19.957  0.00  0.00    +0.000 A 
BRANCH   5  13
ATOM     13  O   UNL     1       3.109   7.030  18.021  0.00  0.00    +0.000 OA
ATOM     14  H   UNL     1       2.592   6.446  17.446  0.00  0.00    +0.000 HD
ENDBRANCH   5  13
ENDBRANCH   1   6
BRANCH   2  15
ATOM     15  C   UNL     1       2.421   3.757  20.811  0.00  0.00    +0.000 C 
ATOM     16  O   UNL     1       2.187   3.535  22.002  0.00  0.00    +0.000 OA
BRANCH  15  17
ATOM     17  C   UNL     1       3.108   2.724  19.962  0.00  0.00    +0.000 C 
BRANCH  17  18
ATOM     18  N   UNL     1       4.007   3.295  18.974  0.00  0.00    +0.000 N 
ATOM     19  C   UNL     1       3.832   3.400  17.625  0.00  0.00    +0.000 A 
ATOM     20  C   UNL     1       4.936   4.065  17.145  0.00  0.00    +0.000 A 
ATOM     21  C   UNL     1       5.728   4.362  18.285  0.00  0.00    +0.000 A 
ATOM     22  N   UNL     1       5.135   3.899  19.406  0.00  0.00    +0.000 NA
BRANCH  21  23
ATOM     23  C   UNL     1       7.044   5.098  18.302  0.00  0.00    +0.000 C 
ATOM     24  F   UNL     1       8.051   4.353  17.765  0.00  0.00    +0.000 F 
ATOM     25  F   UNL     1       7.005   6.255  17.587  0.00  0.00    +0.000 F 
ATOM     26  F   UNL     1       7.443   5.425  19.561  0.00  0.00    +0.000 F 
ENDBRANCH  21  23
ENDBRANCH  17  18
ENDBRANCH  15  17
ENDBRANCH   2  15
TORSDOF 6
ENDMDL
MODEL 8
REMARK VINA RESULT:      -7.9      6.187      8.164
REMARK  Name = 
REMARK  7 active torsions:
REMARK  status: ('A' for Active; 'I' for Inactive)
REMARK    1  A    between atoms: C_1  and  N_2
REMARK    2  A    between atoms: C_3  and  O_4
REMARK    3  A    between atoms: C_5  and  N_6
REMARK    4  A    between atoms: N_7  and  C_8
REMARK    5  A    between atoms: C_8  and  C_10
REMARK    6  A    between atoms: C_10  and  N_11
REMARK    7  A    between atoms: C_14  and  C_15
REMARK                            x       y       z     vdW  Elec       q    Type
REMARK                         _______ _______ _______ _____ _____    ______ ____
ROOT
ATOM      1  N   UNL     1       3.117   7.750  17.860  0.00  0.00    +0.000 NA
ATOM      2  N   UNL     1       2.038   8.007  18.429  0.00  0.00    +0.000 NA
ENDROOT
BRANCH   1   6
ATOM      3  C   UNL     1       3.778   2.982  19.108  0.00  0.00    +0.000 C 
ATOM      4  N   UNL     1       3.817   4.275  18.457  0.00  0.00    +0.000 N 
ATOM      5  C   UNL     1       3.159   5.432  18.839  0.00  0.00    +0.000 A 
ATOM      6  C   UNL     1       3.499   6.399  17.910  0.00  0.00    +0.000 A 
ATOM      7  C   UNL     1       4.387   5.840  16.956  0.00  0.00    +0.000 A 
ATOM      8  C   UNL     1       5.052   6.340  15.817  0.00  0.00    +0.000 A 
ATOM      9  C   UNL     1       5.876   5.494  15.068  0.00  0.00    +0.000 A 
ATOM     10  C   UNL     1       6.045   4.164  15.442  0.00  0.00    +0.000 A 
ATOM     11  C   UNL     1       5.400   3.645  16.568  0.00  0.00    +0.000 A 
ATOM     12  C   UNL     1       4.571   4.503  17.314  0.00  0.00    +0.000 A 
BRANCH   5  13
ATOM     13  O   UNL     1       2.371   5.534  19.909  0.00  0.00    +0.000 OA
ATOM     14  H   UNL     1       1.806   4.754  20.011  0.00  0.00    +0.000 HD
ENDBRANCH   5  13
ENDBRANCH   1   6
BRANCH   2  15
ATOM     15  C   UNL     1       1.717   9.345  18.311  0.00  0.00    +0.000 C 
ATOM     16  O   UNL     1       2.175  10.130  17.477  0.00  0.00    +0.000 OA
BRANCH  15  17
ATOM     17  C   UNL     1       0.700   9.807  19.317  0.00  0.00    +0.000 C 
BRANCH  17  18
ATOM     18  N   UNL     1      -0.431  10.496  18.719  0.00  0.00    +0.000 N 
ATOM     19  C   UNL     1      -0.906  11.746  18.990  0.00  0.00    +0.000 A 
ATOM     20  C   UNL     1      -1.951  11.957  18.120  0.00  0.00    +0.000 A 
ATOM     21  C   UNL     1      -2.024  10.786  17.321  0.00  0.00    +0.000 A 
ATOM     22  N   UNL     1      -1.071   9.904  17.688  0.00  0.00    +0.000 NA
BRANCH  21  23
ATOM     23  C   UNL     1      -2.999  10.518  16.201  0.00  0.00    +0.000 C 
ATOM     24  F   UNL     1      -3.239   9.186  16.044  0.00  0.00    +0.000 F 
ATOM     25  F   UNL     1      -4.210  11.100  16.412  0.00  0.00    +0.000 F 
ATOM     26  F   UNL     1      -2.547  10.968  14.999  0.00  0.00    +0.000 F 
ENDBRANCH  21  23
ENDBRANCH  17  18
ENDBRANCH  15  17
ENDBRANCH   2  15
TORSDOF 6
ENDMDL
MODEL 9
REMARK VINA RESULT:      -7.8      5.755      7.622
REMARK  Name = 
REMARK  7 active torsions:
REMARK  status: ('A' for Active; 'I' for Inactive)
REMARK    1  A    between atoms: C_1  and  N_2
REMARK    2  A    between atoms: C_3  and  O_4
REMARK    3  A    between atoms: C_5  and  N_6
REMARK    4  A    between atoms: N_7  and  C_8
REMARK    5  A    between atoms: C_8  and  C_10
REMARK    6  A    between atoms: C_10  and  N_11
REMARK    7  A    between atoms: C_14  and  C_15
REMARK                            x       y       z     vdW  Elec       q    Type
REMARK                         _______ _______ _______ _____ _____    ______ ____
ROOT
ATOM      1  N   UNL     1       2.010   7.866  19.245  0.00  0.00    +0.000 NA
ATOM      2  N   UNL     1       2.726   7.792  18.227  0.00  0.00    +0.000 NA
ENDROOT
BRANCH   1   6
ATOM      3  C   UNL     1       0.354  12.534  18.800  0.00  0.00    +0.000 C 
ATOM      4  N   UNL     1       0.669  11.202  19.271  0.00  0.00    +0.000 N 
ATOM      5  C   UNL     1       1.356  10.208  18.595  0.00  0.00    +0.000 A 
ATOM      6  C   UNL     1       1.403   9.118  19.444  0.00  0.00    +0.000 A 
ATOM      7  C   UNL     1       0.756   9.446  20.663  0.00  0.00    +0.000 A 
ATOM      8  C   UNL     1       0.511   8.752  21.866  0.00  0.00    +0.000 A 
ATOM      9  C   UNL     1      -0.188   9.384  22.900  0.00  0.00    +0.000 A 
ATOM     10  C   UNL     1      -0.638  10.692  22.750  0.00  0.00    +0.000 A 
ATOM     11  C   UNL     1      -0.405  11.402  21.569  0.00  0.00    +0.000 A 
ATOM     12  C   UNL     1       0.296  10.757  20.533  0.00  0.00    +0.000 A 
BRANCH   5  13
ATOM     13  O   UNL     1       1.858  10.340  17.367  0.00  0.00    +0.000 OA
ATOM     14  H   UNL     1       2.826  10.335  17.375  0.00  0.00    +0.000 HD
ENDBRANCH   5  13
ENDBRANCH   1   6
BRANCH   2  15
ATOM     15  C   UNL     1       3.261   6.527  18.083  0.00  0.00    +0.000 C 
ATOM     16  O   UNL     1       4.413   6.190  18.365  0.00  0.00    +0.000 OA
BRANCH  15  17
ATOM     17  C   UNL     1       2.282   5.521  17.543  0.00  0.00    +0.000 C 
BRANCH  17  18
ATOM     18  N   UNL     1       2.179   4.323  18.357  0.00  0.00    +0.000 N 
ATOM     19  C   UNL     1       2.157   3.019  17.954  0.00  0.00    +0.000 A 
ATOM     20  C   UNL     1       2.107   2.262  19.101  0.00  0.00    +0.000 A 
ATOM     21  C   UNL     1       2.135   3.193  20.173  0.00  0.00    +0.000 A 
ATOM     22  N   UNL     1       2.199   4.456  19.701  0.00  0.00    +0.000 NA
BRANCH  21  23
ATOM     23  C   UNL     1       2.113   2.872  21.646  0.00  0.00    +0.000 C 
ATOM     24  F   UNL     1       0.891   2.425  22.051  0.00  0.00    +0.000 F 
ATOM     25  F   UNL     1       3.003   1.900  21.983  0.00  0.00    +0.000 F 
ATOM     26  F   UNL     1       2.397   3.954  22.421  0.00  0.00    +0.000 F 
ENDBRANCH  21  23
ENDBRANCH  17  18
ENDBRANCH  15  17
ENDBRANCH   2  15
TORSDOF 6
ENDMDL
