MODEL 1
REMARK VINA RESULT:      -7.7      0.000      0.000
REMARK  Name = 
REMARK  9 active torsions:
REMARK  status: ('A' for Active; 'I' for Inactive)
REMARK    1  A    between atoms: C_1  and  C_2
REMARK    2  A    between atoms: C_2  and  N_3
REMARK    3  A    between atoms: N_6  and  C_7
REMARK    4  A    between atoms: C_7  and  C_8
REMARK    5  A    between atoms: C_9  and  C_10
REMARK    6  A    between atoms: C_11  and  C_12
REMARK    7  A    between atoms: N_13  and  C_14
REMARK    8  A    between atoms: C_14  and  C_15
REMARK    9  A    between atoms: C_21  and  N_22
REMARK                            x       y       z     vdW  Elec       q    Type
REMARK                         _______ _______ _______ _____ _____    ______ ____
ROOT
ATOM      1  C   UNL     1       5.340   5.435  17.547  0.00  0.00    +0.000 A 
ATOM      2  C   UNL     1       5.070   6.833  17.373  0.00  0.00    +0.000 A 
ATOM      3  C   UNL     1       6.029   7.884  16.932  0.00  0.00    +0.000 C 
ATOM      4  C   UNL     1       3.740   7.052  17.714  0.00  0.00    +0.000 A 
ATOM      5  C   UNL     1       2.972   8.333  17.757  0.00  0.00    +0.000 C 
ATOM      6  N   UNL     1       3.160   5.836  18.047  0.00  0.00    +0.000 N 
ATOM      7  C   UNL     1       4.133   4.856  17.924  0.00  0.00    +0.000 A 
ENDROOT
BRANCH   7   8
ATOM      8  N   UNL     1       3.950   3.497  18.166  0.00  0.00    +0.000 N 
ATOM      9  C   UNL     1       3.241   2.608  17.392  0.00  0.00    +0.000 A 
ATOM     10  C   UNL     1       3.355   1.348  17.922  0.00  0.00    +0.000 A 
ATOM     11  C   UNL     1       4.125   1.459  19.095  0.00  0.00    +0.000 A 
ATOM     12  C   UNL     1       4.464   2.778  19.222  0.00  0.00    +0.000 A 
ENDBRANCH   7   8
BRANCH   1  13
ATOM     13  C   UNL     1       6.645   4.727  17.295  0.00  0.00    +0.000 C 
BRANCH  13  17
ATOM     14  N   UNL     1       6.356   3.298  13.968  0.00  0.00    +0.000 N 
ATOM     15  C   UNL     1       6.555   4.274  14.919  0.00  0.00    +0.000 C 
ATOM     16  O   UNL     1       6.752   5.436  14.650  0.00  0.00    +0.000 OA
ATOM     17  N   UNL     1       6.491   3.787  16.200  0.00  0.00    +0.000 N 
ATOM     18  H   UNL     1       6.052   2.382  14.260  0.00  0.00    +0.000 HD
ATOM     19  H   UNL     1       6.771   2.837  16.360  0.00  0.00    +0.000 HD
BRANCH  14  21
ATOM     20  C   UNL     1       5.089   3.242  11.837  0.00  0.00    +0.000 C 
ATOM     21  C   UNL     1       6.366   3.643  12.559  0.00  0.00    +0.000 C 
ENDBRANCH  14  21
ENDBRANCH  13  17
ENDBRANCH   1  13
BRANCH   6  22
ATOM     22  C   UNL     1       1.800   5.741  18.623  0.00  0.00    +0.000 C 
BRANCH  22  23
ATOM     23  C   UNL     1       1.625   4.744  19.751  0.00  0.00    +0.000 A 
ATOM     24  C   UNL     1       0.854   3.587  19.595  0.00  0.00    +0.000 A 
ATOM     25  C   UNL     1       0.873   2.575  20.547  0.00  0.00    +0.000 A 
ATOM     26  C   UNL     1       1.661   2.713  21.692  0.00  0.00    +0.000 A 
ATOM     27  C   UNL     1       2.376   3.888  21.906  0.00  0.00    +0.000 A 
ATOM     28  C   UNL     1       2.350   4.908  20.949  0.00  0.00    +0.000 A 
ENDBRANCH  22  23
ENDBRANCH   6  22
TORSDOF 6
ENDMDL
MODEL 2
REMARK VINA RESULT:      -6.9      2.582      7.127
REMARK  Name = 
REMARK  9 active torsions:
REMARK  status: ('A' for Active; 'I' for Inactive)
REMARK    1  A    between atoms: C_1  and  C_2
REMARK    2  A    between atoms: C_2  and  N_3
REMARK    3  A    between atoms: N_6  and  C_7
REMARK    4  A    between atoms: C_7  and  C_8
REMARK    5  A    between atoms: C_9  and  C_10
REMARK    6  A    between atoms: C_11  and  C_12
REMARK    7  A    between atoms: N_13  and  C_14
REMARK    8  A    between atoms: C_14  and  C_15
REMARK    9  A    between atoms: C_21  and  N_22
REMARK                            x       y       z     vdW  Elec       q    Type
REMARK                         _______ _______ _______ _____ _____    ______ ____
ROOT
ATOM      1  C   UNL     1       3.589   5.585  18.409  0.00  0.00    +0.000 A 
ATOM      2  C   UNL     1       2.710   4.519  18.025  0.00  0.00    +0.000 A 
ATOM      3  C   UNL     1       1.293   4.328  18.445  0.00  0.00    +0.000 C 
ATOM      4  C   UNL     1       3.423   3.662  17.194  0.00  0.00    +0.000 A 
ATOM      5  C   UNL     1       2.991   2.378  16.564  0.00  0.00    +0.000 C 
ATOM      6  N   UNL     1       4.698   4.180  17.009  0.00  0.00    +0.000 N 
ATOM      7  C   UNL     1       4.784   5.358  17.734  0.00  0.00    +0.000 A 
ENDROOT
BRANCH   7   8
ATOM      8  N   UNL     1       5.902   6.185  17.807  0.00  0.00    +0.000 N 
ATOM      9  C   UNL     1       7.007   6.011  18.606  0.00  0.00    +0.000 A 
ATOM     10  C   UNL     1       7.925   6.996  18.337  0.00  0.00    +0.000 A 
ATOM     11  C   UNL     1       7.355   7.841  17.368  0.00  0.00    +0.000 A 
ATOM     12  C   UNL     1       6.122   7.329  17.072  0.00  0.00    +0.000 A 
ENDBRANCH   7   8
BRANCH   1  13
ATOM     13  C   UNL     1       3.259   6.754  19.299  0.00  0.00    +0.000 C 
BRANCH  13  17
ATOM     14  N   UNL     1       1.261   9.591  18.224  0.00  0.00    +0.000 N 
ATOM     15  C   UNL     1       1.744   8.629  19.083  0.00  0.00    +0.000 C 
ATOM     16  O   UNL     1       1.353   8.494  20.220  0.00  0.00    +0.000 OA
ATOM     17  N   UNL     1       2.701   7.834  18.506  0.00  0.00    +0.000 N 
ATOM     18  H   UNL     1       1.521   9.555  17.250  0.00  0.00    +0.000 HD
ATOM     19  H   UNL     1       3.280   8.234  17.791  0.00  0.00    +0.000 HD
BRANCH  14  21
ATOM     20  C   UNL     1      -1.131  10.217  18.035  0.00  0.00    +0.000 C 
ATOM     21  C   UNL     1       0.223  10.504  18.663  0.00  0.00    +0.000 C 
ENDBRANCH  14  21
ENDBRANCH  13  17
ENDBRANCH   1  13
BRANCH   6  22
ATOM     22  C   UNL     1       5.764   3.424  16.317  0.00  0.00    +0.000 C 
BRANCH  22  23
ATOM     23  C   UNL     1       6.132   3.912  14.930  0.00  0.00    +0.000 A 
ATOM     24  C   UNL     1       7.188   4.806  14.722  0.00  0.00    +0.000 A 
ATOM     25  C   UNL     1       7.659   5.079  13.443  0.00  0.00    +0.000 A 
ATOM     26  C   UNL     1       7.063   4.466  12.339  0.00  0.00    +0.000 A 
ATOM     27  C   UNL     1       5.962   3.634  12.514  0.00  0.00    +0.000 A 
ATOM     28  C   UNL     1       5.486   3.366  13.801  0.00  0.00    +0.000 A 
ENDBRANCH  22  23
ENDBRANCH   6  22
TORSDOF 6
ENDMDL
MODEL 3
REMARK VINA RESULT:      -6.9      0.766      1.225
REMARK  Name = 
REMARK  9 active torsions:
REMARK  status: ('A' for Active; 'I' for Inactive)
REMARK    1  A    between atoms: C_1  and  C_2
REMARK    2  A    between atoms: C_2  and  N_3
REMARK    3  A    between atoms: N_6  and  C_7
REMARK    4  A    between atoms: C_7  and  C_8
REMARK    5  A    between atoms: C_9  and  C_10
REMARK    6  A    between atoms: C_11  and  C_12
REMARK    7  A    between atoms: N_13  and  C_14
REMARK    8  A    between atoms: C_14  and  C_15
REMARK    9  A    between atoms: C_21  and  N_22
REMARK                            x       y       z     vdW  Elec       q    Type
REMARK                         _______ _______ _______ _____ _____    ______ ____
ROOT
ATOM      1  C   UNL     1       5.485   5.324  17.365  0.00  0.00    +0.000 A 
ATOM      2  C   UNL     1       5.086   6.649  16.989  0.00  0.00    +0.000 A 
ATOM      3  C   UNL     1       5.786   7.563  16.044  0.00  0.00    +0.000 C 
ATOM      4  C   UNL     1       3.920   6.952  17.685  0.00  0.00    +0.000 A 
ATOM      5  C   UNL     1       3.126   8.218  17.694  0.00  0.00    +0.000 C 
ATOM      6  N   UNL     1       3.555   5.849  18.444  0.00  0.00    +0.000 N 
ATOM      7  C   UNL     1       4.499   4.858  18.229  0.00  0.00    +0.000 A 
ENDROOT
BRANCH   7   8
ATOM      8  N   UNL     1       4.488   3.590  18.806  0.00  0.00    +0.000 N 
ATOM      9  C   UNL     1       4.898   3.257  20.076  0.00  0.00    +0.000 A 
ATOM     10  C   UNL     1       4.663   1.923  20.297  0.00  0.00    +0.000 A 
ATOM     11  C   UNL     1       4.130   1.393  19.107  0.00  0.00    +0.000 A 
ATOM     12  C   UNL     1       4.044   2.427  18.216  0.00  0.00    +0.000 A 
ENDBRANCH   7   8
BRANCH   1  13
ATOM     13  C   UNL     1       6.684   4.564  16.866  0.00  0.00    +0.000 C 
BRANCH  13  17
ATOM     14  N   UNL     1       5.995   3.117  13.607  0.00  0.00    +0.000 N 
ATOM     15  C   UNL     1       6.446   4.050  14.513  0.00  0.00    +0.000 C 
ATOM     16  O   UNL     1       6.920   5.115  14.192  0.00  0.00    +0.000 OA
ATOM     17  N   UNL     1       6.284   3.647  15.814  0.00  0.00    +0.000 N 
ATOM     18  H   UNL     1       5.477   2.318  13.940  0.00  0.00    +0.000 HD
ATOM     19  H   UNL     1       6.321   2.665  16.013  0.00  0.00    +0.000 HD
BRANCH  14  21
ATOM     20  C   UNL     1       4.740   3.187  11.468  0.00  0.00    +0.000 C 
ATOM     21  C   UNL     1       6.066   3.390  12.183  0.00  0.00    +0.000 C 
ENDBRANCH  14  21
ENDBRANCH  13  17
ENDBRANCH   1  13
BRANCH   6  22
ATOM     22  C   UNL     1       2.456   5.901  19.433  0.00  0.00    +0.000 C 
BRANCH  22  23
ATOM     23  C   UNL     1       1.682   4.614  19.633  0.00  0.00    +0.000 A 
ATOM     24  C   UNL     1       1.112   3.925  18.557  0.00  0.00    +0.000 A 
ATOM     25  C   UNL     1       0.596   2.644  18.714  0.00  0.00    +0.000 A 
ATOM     26  C   UNL     1       0.629   2.031  19.968  0.00  0.00    +0.000 A 
ATOM     27  C   UNL     1       1.119   2.726  21.069  0.00  0.00    +0.000 A 
ATOM     28  C   UNL     1       1.632   4.017  20.911  0.00  0.00    +0.000 A 
ENDBRANCH  22  23
ENDBRANCH   6  22
TORSDOF 6
ENDMDL
MODEL 4
REMARK VINA RESULT:      -6.8      1.799      4.339
REMARK  Name = 
REMARK  9 active torsions:
REMARK  status: ('A' for Active; 'I' for Inactive)
REMARK    1  A    between atoms: C_1  and  C_2
REMARK    2  A    between atoms: C_2  and  N_3
REMARK    3  A    between atoms: N_6  and  C_7
REMARK    4  A    between atoms: C_7  and  C_8
REMARK    5  A    between atoms: C_9  and  C_10
REMARK    6  A    between atoms: C_11  and  C_12
REMARK    7  A    between atoms: N_13  and  C_14
REMARK    8  A    between atoms: C_14  and  C_15
REMARK    9  A    between atoms: C_21  and  N_22
REMARK                            x       y       z     vdW  Elec       q    Type
REMARK                         _______ _______ _______ _____ _____    ______ ____
ROOT
ATOM      1  C   UNL     1       3.876   3.753  18.100  0.00  0.00    +0.000 A 
ATOM      2  C   UNL     1       2.599   3.392  18.643  0.00  0.00    +0.000 A 
ATOM      3  C   UNL     1       1.802   2.174  18.331  0.00  0.00    +0.000 C 
ATOM      4  C   UNL     1       2.210   4.405  19.515  0.00  0.00    +0.000 A 
ATOM      5  C   UNL     1       0.945   4.545  20.298  0.00  0.00    +0.000 C 
ATOM      6  N   UNL     1       3.218   5.357  19.569  0.00  0.00    +0.000 N 
ATOM      7  C   UNL     1       4.235   4.944  18.722  0.00  0.00    +0.000 A 
ENDROOT
BRANCH   7   8
ATOM      8  N   UNL     1       5.430   5.625  18.499  0.00  0.00    +0.000 N 
ATOM      9  C   UNL     1       6.628   5.422  19.140  0.00  0.00    +0.000 A 
ATOM     10  C   UNL     1       7.585   6.236  18.589  0.00  0.00    +0.000 A 
ATOM     11  C   UNL     1       6.952   7.009  17.598  0.00  0.00    +0.000 A 
ATOM     12  C   UNL     1       5.640   6.622  17.572  0.00  0.00    +0.000 A 
ENDBRANCH   7   8
BRANCH   1  13
ATOM     13  C   UNL     1       4.696   2.963  17.116  0.00  0.00    +0.000 C 
BRANCH  13  17
ATOM     14  N   UNL     1       5.921   4.673  14.155  0.00  0.00    +0.000 N 
ATOM     15  C   UNL     1       5.992   3.973  15.338  0.00  0.00    +0.000 C 
ATOM     16  O   UNL     1       7.034   3.674  15.875  0.00  0.00    +0.000 OA
ATOM     17  N   UNL     1       4.756   3.666  15.847  0.00  0.00    +0.000 N 
ATOM     18  H   UNL     1       5.027   5.017  13.839  0.00  0.00    +0.000 HD
ATOM     19  H   UNL     1       3.999   3.529  15.203  0.00  0.00    +0.000 HD
BRANCH  14  21
ATOM     20  C   UNL     1       7.312   4.489  12.109  0.00  0.00    +0.000 C 
ATOM     21  C   UNL     1       7.137   5.102  13.489  0.00  0.00    +0.000 C 
ENDBRANCH  14  21
ENDBRANCH  13  17
ENDBRANCH   1  13
BRANCH   6  22
ATOM     22  C   UNL     1       3.047   6.648  20.271  0.00  0.00    +0.000 C 
BRANCH  22  23
ATOM     23  C   UNL     1       2.163   7.667  19.579  0.00  0.00    +0.000 A 
ATOM     24  C   UNL     1       1.307   8.506  20.301  0.00  0.00    +0.000 A 
ATOM     25  C   UNL     1       0.667   9.579  19.691  0.00  0.00    +0.000 A 
ATOM     26  C   UNL     1       0.864   9.822  18.330  0.00  0.00    +0.000 A 
ATOM     27  C   UNL     1       1.649   8.956  17.575  0.00  0.00    +0.000 A 
ATOM     28  C   UNL     1       2.287   7.874  18.189  0.00  0.00    +0.000 A 
ENDBRANCH  22  23
ENDBRANCH   6  22
TORSDOF 6
ENDMDL
MODEL 5
REMARK VINA RESULT:      -6.5      0.730      1.050
REMARK  Name = 
REMARK  9 active torsions:
REMARK  status: ('A' for Active; 'I' for Inactive)
REMARK    1  A    between atoms: C_1  and  C_2
REMARK    2  A    between atoms: C_2  and  N_3
REMARK    3  A    between atoms: N_6  and  C_7
REMARK    4  A    between atoms: C_7  and  C_8
REMARK    5  A    between atoms: C_9  and  C_10
REMARK    6  A    between atoms: C_11  and  C_12
REMARK    7  A    between atoms: N_13  and  C_14
REMARK    8  A    between atoms: C_14  and  C_15
REMARK    9  A    between atoms: C_21  and  N_22
REMARK                            x       y       z     vdW  Elec       q    Type
REMARK                         _______ _______ _______ _____ _____    ______ ____
ROOT
ATOM      1  C   UNL     1       5.451   5.530  17.702  0.00  0.00    +0.000 A 
ATOM      2  C   UNL     1       5.113   6.910  17.509  0.00  0.00    +0.000 A 
ATOM      3  C   UNL     1       6.038   8.019  17.143  0.00  0.00    +0.000 C 
ATOM      4  C   UNL     1       3.749   7.047  17.746  0.00  0.00    +0.000 A 
ATOM      5  C   UNL     1       2.906   8.281  17.731  0.00  0.00    +0.000 C 
ATOM      6  N   UNL     1       3.219   5.797  18.034  0.00  0.00    +0.000 N 
ATOM      7  C   UNL     1       4.255   4.878  17.985  0.00  0.00    +0.000 A 
ENDROOT
BRANCH   7   8
ATOM      8  N   UNL     1       4.135   3.509  18.212  0.00  0.00    +0.000 N 
ATOM      9  C   UNL     1       4.584   2.811  19.308  0.00  0.00    +0.000 A 
ATOM     10  C   UNL     1       4.211   1.495  19.195  0.00  0.00    +0.000 A 
ATOM     11  C   UNL     1       3.546   1.356  17.963  0.00  0.00    +0.000 A 
ATOM     12  C   UNL     1       3.523   2.594  17.383  0.00  0.00    +0.000 A 
ENDBRANCH   7   8
BRANCH   1  13
ATOM     13  C   UNL     1       6.811   4.902  17.551  0.00  0.00    +0.000 C 
BRANCH  13  17
ATOM     14  N   UNL     1       7.609   4.967  14.008  0.00  0.00    +0.000 N 
ATOM     15  C   UNL     1       6.973   4.562  15.160  0.00  0.00    +0.000 C 
ATOM     16  O   UNL     1       6.155   3.672  15.192  0.00  0.00    +0.000 OA
ATOM     17  N   UNL     1       7.380   5.264  16.265  0.00  0.00    +0.000 N 
ATOM     18  H   UNL     1       8.385   5.609  14.074  0.00  0.00    +0.000 HD
ATOM     19  H   UNL     1       7.678   6.214  16.139  0.00  0.00    +0.000 HD
BRANCH  14  21
ATOM     20  C   UNL     1       5.927   3.700  12.697  0.00  0.00    +0.000 C 
ATOM     21  C   UNL     1       7.318   4.312  12.746  0.00  0.00    +0.000 C 
ENDBRANCH  14  21
ENDBRANCH  13  17
ENDBRANCH   1  13
BRANCH   6  22
ATOM     22  C   UNL     1       1.827   5.619  18.503  0.00  0.00    +0.000 C 
BRANCH  22  23
ATOM     23  C   UNL     1       1.636   4.665  19.666  0.00  0.00    +0.000 A 
ATOM     24  C   UNL     1       0.908   3.479  19.530  0.00  0.00    +0.000 A 
ATOM     25  C   UNL     1       0.919   2.509  20.526  0.00  0.00    +0.000 A 
ATOM     26  C   UNL     1       1.654   2.722  21.693  0.00  0.00    +0.000 A 
ATOM     27  C   UNL     1       2.323   3.927  21.884  0.00  0.00    +0.000 A 
ATOM     28  C   UNL     1       2.306   4.903  20.884  0.00  0.00    +0.000 A 
ENDBRANCH  22  23
ENDBRANCH   6  22
TORSDOF 6
ENDMDL
MODEL 6
REMARK VINA RESULT:      -6.5      8.243     11.415
REMARK  Name = 
REMARK  9 active torsions:
REMARK  status: ('A' for Active; 'I' for Inactive)
REMARK    1  A    between atoms: C_1  and  C_2
REMARK    2  A    between atoms: C_2  and  N_3
REMARK    3  A    between atoms: N_6  and  C_7
REMARK    4  A    between atoms: C_7  and  C_8
REMARK    5  A    between atoms: C_9  and  C_10
REMARK    6  A    between atoms: C_11  and  C_12
REMARK    7  A    between atoms: N_13  and  C_14
REMARK    8  A    between atoms: C_14  and  C_15
REMARK    9  A    between atoms: C_21  and  N_22
REMARK                            x       y       z     vdW  Elec       q    Type
REMARK                         _______ _______ _______ _____ _____    ______ ____
ROOT
ATOM      1  C   UNL     1      -3.551  12.166  19.605  0.00  0.00    +0.000 A 
ATOM      2  C   UNL     1      -2.947  12.690  20.797  0.00  0.00    +0.000 A 
ATOM      3  C   UNL     1      -3.643  13.322  21.952  0.00  0.00    +0.000 C 
ATOM      4  C   UNL     1      -1.571  12.523  20.680  0.00  0.00    +0.000 A 
ATOM      5  C   UNL     1      -0.485  12.943  21.617  0.00  0.00    +0.000 C 
ATOM      6  N   UNL     1      -1.300  11.874  19.484  0.00  0.00    +0.000 N 
ATOM      7  C   UNL     1      -2.509  11.643  18.846  0.00  0.00    +0.000 A 
ENDROOT
BRANCH   7   8
ATOM      8  N   UNL     1      -2.668  11.008  17.616  0.00  0.00    +0.000 N 
ATOM      9  C   UNL     1      -2.673  11.600  16.376  0.00  0.00    +0.000 A 
ATOM     10  C   UNL     1      -2.781  10.633  15.408  0.00  0.00    +0.000 A 
ATOM     11  C   UNL     1      -2.894   9.395  16.069  0.00  0.00    +0.000 A 
ATOM     12  C   UNL     1      -2.831   9.656  17.410  0.00  0.00    +0.000 A 
ENDBRANCH   7   8
BRANCH   1  13
ATOM     13  C   UNL     1      -5.019  12.121  19.280  0.00  0.00    +0.000 C 
BRANCH  13  17
ATOM     14  N   UNL     1      -6.608  14.807  17.420  0.00  0.00    +0.000 N 
ATOM     15  C   UNL     1      -6.279  13.511  17.750  0.00  0.00    +0.000 C 
ATOM     16  O   UNL     1      -6.655  12.548  17.123  0.00  0.00    +0.000 OA
ATOM     17  N   UNL     1      -5.470  13.434  18.855  0.00  0.00    +0.000 N 
ATOM     18  H   UNL     1      -6.144  15.568  17.893  0.00  0.00    +0.000 HD
ATOM     19  H   UNL     1      -5.557  14.146  19.556  0.00  0.00    +0.000 HD
BRANCH  14  21
ATOM     20  C   UNL     1      -7.408  16.532  15.827  0.00  0.00    +0.000 C 
ATOM     21  C   UNL     1      -7.439  15.075  16.261  0.00  0.00    +0.000 C 
ENDBRANCH  14  21
ENDBRANCH  13  17
ENDBRANCH   1  13
BRANCH   6  22
ATOM     22  C   UNL     1       0.078  11.699  18.975  0.00  0.00    +0.000 C 
BRANCH  22  23
ATOM     23  C   UNL     1       0.638  10.292  19.046  0.00  0.00    +0.000 A 
ATOM     24  C   UNL     1       1.224   9.678  17.934  0.00  0.00    +0.000 A 
ATOM     25  C   UNL     1       1.926   8.485  18.057  0.00  0.00    +0.000 A 
ATOM     26  C   UNL     1       2.041   7.873  19.306  0.00  0.00    +0.000 A 
ATOM     27  C   UNL     1       1.401   8.423  20.412  0.00  0.00    +0.000 A 
ATOM     28  C   UNL     1       0.690   9.620  20.286  0.00  0.00    +0.000 A 
ENDBRANCH  22  23
ENDBRANCH   6  22
TORSDOF 6
ENDMDL
MODEL 7
REMARK VINA RESULT:      -6.4      8.517     11.134
REMARK  Name = 
REMARK  9 active torsions:
REMARK  status: ('A' for Active; 'I' for Inactive)
REMARK    1  A    between atoms: C_1  and  C_2
REMARK    2  A    between atoms: C_2  and  N_3
REMARK    3  A    between atoms: N_6  and  C_7
REMARK    4  A    between atoms: C_7  and  C_8
REMARK    5  A    between atoms: C_9  and  C_10
REMARK    6  A    between atoms: C_11  and  C_12
REMARK    7  A    between atoms: N_13  and  C_14
REMARK    8  A    between atoms: C_14  and  C_15
REMARK    9  A    between atoms: C_21  and  N_22
REMARK                            x       y       z     vdW  Elec       q    Type
REMARK                         _______ _______ _______ _____ _____    ______ ____
ROOT
ATOM      1  C   UNL     1      -1.764  11.180  18.935  0.00  0.00    +0.000 A 
ATOM      2  C   UNL     1      -2.694  10.785  17.917  0.00  0.00    +0.000 A 
ATOM      3  C   UNL     1      -2.440   9.858  16.779  0.00  0.00    +0.000 C 
ATOM      4  C   UNL     1      -3.894  11.445  18.163  0.00  0.00    +0.000 A 
ATOM      5  C   UNL     1      -5.163  11.425  17.376  0.00  0.00    +0.000 C 
ATOM      6  N   UNL     1      -3.759  12.198  19.321  0.00  0.00    +0.000 N 
ATOM      7  C   UNL     1      -2.469  12.016  19.795  0.00  0.00    +0.000 A 
ENDROOT
BRANCH   7   8
ATOM      8  N   UNL     1      -1.937  12.598  20.943  0.00  0.00    +0.000 N 
ATOM      9  C   UNL     1      -1.901  12.054  22.205  0.00  0.00    +0.000 A 
ATOM     10  C   UNL     1      -1.231  12.902  23.050  0.00  0.00    +0.000 A 
ATOM     11  C   UNL     1      -0.875  14.039  22.301  0.00  0.00    +0.000 A 
ATOM     12  C   UNL     1      -1.326  13.830  21.026  0.00  0.00    +0.000 A 
ENDBRANCH   7   8
BRANCH   1  13
ATOM     13  C   UNL     1      -0.338  10.720  19.085  0.00  0.00    +0.000 C 
BRANCH  13  17
ATOM     14  N   UNL     1       2.213  12.949  17.775  0.00  0.00    +0.000 N 
ATOM     15  C   UNL     1       1.494  12.261  18.726  0.00  0.00    +0.000 C 
ATOM     16  O   UNL     1       1.694  12.360  19.915  0.00  0.00    +0.000 OA
ATOM     17  N   UNL     1       0.518  11.467  18.181  0.00  0.00    +0.000 N 
ATOM     18  H   UNL     1       1.900  12.936  16.816  0.00  0.00    +0.000 HD
ATOM     19  H   UNL     1       0.675  11.085  17.267  0.00  0.00    +0.000 HD
BRANCH  14  21
ATOM     20  C   UNL     1       2.838  15.315  18.182  0.00  0.00    +0.000 C 
ATOM     21  C   UNL     1       3.271  13.858  18.179  0.00  0.00    +0.000 C 
ENDBRANCH  14  21
ENDBRANCH  13  17
ENDBRANCH   1  13
BRANCH   6  22
ATOM     22  C   UNL     1      -4.796  13.154  19.767  0.00  0.00    +0.000 C 
BRANCH  22  23
ATOM     23  C   UNL     1      -5.664  12.700  20.923  0.00  0.00    +0.000 A 
ATOM     24  C   UNL     1      -5.401  13.097  22.239  0.00  0.00    +0.000 A 
ATOM     25  C   UNL     1      -6.316  12.863  23.258  0.00  0.00    +0.000 A 
ATOM     26  C   UNL     1      -7.516  12.206  22.977  0.00  0.00    +0.000 A 
ATOM     27  C   UNL     1      -7.765  11.734  21.692  0.00  0.00    +0.000 A 
ATOM     28  C   UNL     1      -6.841  11.965  20.669  0.00  0.00    +0.000 A 
ENDBRANCH  22  23
ENDBRANCH   6  22
TORSDOF 6
ENDMDL
MODEL 8
REMARK VINA RESULT:      -6.3      1.504      2.510
REMARK  Name = 
REMARK  9 active torsions:
REMARK  status: ('A' for Active; 'I' for Inactive)
REMARK    1  A    between atoms: C_1  and  C_2
REMARK    2  A    between atoms: C_2  and  N_3
REMARK    3  A    between atoms: N_6  and  C_7
REMARK    4  A    between atoms: C_7  and  C_8
REMARK    5  A    between atoms: C_9  and  C_10
REMARK    6  A    between atoms: C_11  and  C_12
REMARK    7  A    between atoms: N_13  and  C_14
REMARK    8  A    between atoms: C_14  and  C_15
REMARK    9  A    between atoms: C_21  and  N_22
REMARK                            x       y       z     vdW  Elec       q    Type
REMARK                         _______ _______ _______ _____ _____    ______ ____
ROOT
ATOM      1  C   UNL     1       3.434   7.662  17.949  0.00  0.00    +0.000 A 
ATOM      2  C   UNL     1       2.471   8.665  18.303  0.00  0.00    +0.000 A 
ATOM      3  C   UNL     1       2.269   9.987  17.647  0.00  0.00    +0.000 C 
ATOM      4  C   UNL     1       1.758   8.196  19.401  0.00  0.00    +0.000 A 
ATOM      5  C   UNL     1       0.682   8.871  20.188  0.00  0.00    +0.000 C 
ATOM      6  N   UNL     1       2.207   6.920  19.713  0.00  0.00    +0.000 N 
ATOM      7  C   UNL     1       3.211   6.596  18.814  0.00  0.00    +0.000 A 
ENDROOT
BRANCH   7   8
ATOM      8  N   UNL     1       3.918   5.396  18.787  0.00  0.00    +0.000 N 
ATOM      9  C   UNL     1       5.080   5.106  19.464  0.00  0.00    +0.000 A 
ATOM     10  C   UNL     1       5.426   3.797  19.239  0.00  0.00    +0.000 A 
ATOM     11  C   UNL     1       4.472   3.262  18.353  0.00  0.00    +0.000 A 
ATOM     12  C   UNL     1       3.574   4.259  18.089  0.00  0.00    +0.000 A 
ENDBRANCH   7   8
BRANCH   1  13
ATOM     13  C   UNL     1       4.427   7.721  16.820  0.00  0.00    +0.000 C 
BRANCH  13  17
ATOM     14  N   UNL     1       5.290   4.792  14.852  0.00  0.00    +0.000 N 
ATOM     15  C   UNL     1       5.502   5.902  15.639  0.00  0.00    +0.000 C 
ATOM     16  O   UNL     1       6.602   6.299  15.948  0.00  0.00    +0.000 OA
ATOM     17  N   UNL     1       4.335   6.513  16.019  0.00  0.00    +0.000 N 
ATOM     18  H   UNL     1       4.360   4.602  14.511  0.00  0.00    +0.000 HD
ATOM     19  H   UNL     1       3.516   5.944  16.129  0.00  0.00    +0.000 HD
BRANCH  14  21
ATOM     20  C   UNL     1       6.270   3.665  12.871  0.00  0.00    +0.000 C 
ATOM     21  C   UNL     1       6.417   4.037  14.338  0.00  0.00    +0.000 C 
ENDBRANCH  14  21
ENDBRANCH  13  17
ENDBRANCH   1  13
BRANCH   6  22
ATOM     22  C   UNL     1       1.775   6.208  20.935  0.00  0.00    +0.000 C 
BRANCH  22  23
ATOM     23  C   UNL     1       1.577   4.711  20.796  0.00  0.00    +0.000 A 
ATOM     24  C   UNL     1       0.730   4.171  19.822  0.00  0.00    +0.000 A 
ATOM     25  C   UNL     1       0.719   2.807  19.555  0.00  0.00    +0.000 A 
ATOM     26  C   UNL     1       1.554   1.951  20.277  0.00  0.00    +0.000 A 
ATOM     27  C   UNL     1       2.348   2.455  21.302  0.00  0.00    +0.000 A 
ATOM     28  C   UNL     1       2.353   3.827  21.574  0.00  0.00    +0.000 A 
ENDBRANCH  22  23
ENDBRANCH   6  22
TORSDOF 6
ENDMDL
MODEL 9
REMARK VINA RESULT:      -6.3      3.996      7.390
REMARK  Name = 
REMARK  9 active torsions:
REMARK  status: ('A' for Active; 'I' for Inactive)
REMARK    1  A    between atoms: C_1  and  C_2
REMARK    2  A    between atoms: C_2  and  N_3
REMARK    3  A    between atoms: N_6  and  C_7
REMARK    4  A    between atoms: C_7  and  C_8
REMARK    5  A    between atoms: C_9  and  C_10
REMARK    6  A    between atoms: C_11  and  C_12
REMARK    7  A    between atoms: N_13  and  C_14
REMARK    8  A    between atoms: C_14  and  C_15
REMARK    9  A    between atoms: C_21  and  N_22
REMARK                            x       y       z     vdW  Elec       q    Type
REMARK                         _______ _______ _______ _____ _____    ______ ____
ROOT
ATOM      1  C   UNL     1       1.520   7.308  20.357  0.00  0.00    +0.000 A 
ATOM      2  C   UNL     1       1.946   8.300  19.412  0.00  0.00    +0.000 A 
ATOM      3  C   UNL     1       1.704   9.768  19.482  0.00  0.00    +0.000 C 
ATOM      4  C   UNL     1       2.618   7.644  18.386  0.00  0.00    +0.000 A 
ATOM      5  C   UNL     1       3.213   8.205  17.135  0.00  0.00    +0.000 C 
ATOM      6  N   UNL     1       2.668   6.289  18.681  0.00  0.00    +0.000 N 
ATOM      7  C   UNL     1       2.016   6.096  19.889  0.00  0.00    +0.000 A 
ENDROOT
BRANCH   7   8
ATOM      8  N   UNL     1       1.852   4.872  20.535  0.00  0.00    +0.000 N 
ATOM      9  C   UNL     1       0.858   3.949  20.314  0.00  0.00    +0.000 A 
ATOM     10  C   UNL     1       1.081   2.842  21.093  0.00  0.00    +0.000 A 
ATOM     11  C   UNL     1       2.230   3.101  21.863  0.00  0.00    +0.000 A 
ATOM     12  C   UNL     1       2.671   4.346  21.509  0.00  0.00    +0.000 A 
ENDBRANCH   7   8
BRANCH   1  13
ATOM     13  C   UNL     1       0.761   7.544  21.635  0.00  0.00    +0.000 C 
BRANCH  13  17
ATOM     14  N   UNL     1      -1.127  10.609  22.122  0.00  0.00    +0.000 N 
ATOM     15  C   UNL     1      -0.168   9.654  22.374  0.00  0.00    +0.000 C 
ATOM     16  O   UNL     1       0.593   9.704  23.313  0.00  0.00    +0.000 OA
ATOM     17  N   UNL     1      -0.179   8.635  21.455  0.00  0.00    +0.000 N 
ATOM     18  H   UNL     1      -1.822  10.433  21.413  0.00  0.00    +0.000 HD
ATOM     19  H   UNL     1      -0.475   8.845  20.520  0.00  0.00    +0.000 HD
BRANCH  14  21
ATOM     20  C   UNL     1      -0.659  13.021  22.456  0.00  0.00    +0.000 C 
ATOM     21  C   UNL     1      -1.273  11.746  23.011  0.00  0.00    +0.000 C 
ENDBRANCH  14  21
ENDBRANCH  13  17
ENDBRANCH   1  13
BRANCH   6  22
ATOM     22  C   UNL     1       3.162   5.287  17.711  0.00  0.00    +0.000 C 
BRANCH  22  23
ATOM     23  C   UNL     1       4.649   4.998  17.756  0.00  0.00    +0.000 A 
ATOM     24  C   UNL     1       5.340   4.528  16.633  0.00  0.00    +0.000 A 
ATOM     25  C   UNL     1       6.728   4.473  16.613  0.00  0.00    +0.000 A 
ATOM     26  C   UNL     1       7.455   4.877  17.735  0.00  0.00    +0.000 A 
ATOM     27  C   UNL     1       6.789   5.275  18.890  0.00  0.00    +0.000 A 
ATOM     28  C   UNL     1       5.392   5.323  18.910  0.00  0.00    +0.000 A 
ENDBRANCH  22  23
ENDBRANCH   6  22
TORSDOF 6
ENDMDL
