MODEL 1
REMARK VINA RESULT:      -8.5      0.000      0.000
REMARK  Name = 
REMARK  5 active torsions:
REMARK  status: ('A' for Active; 'I' for Inactive)
REMARK    1  A    between atoms: C_2  and  C_11
REMARK    2  A    between atoms: N_3  and  C_4
REMARK    3  A    between atoms: C_4  and  C_5
REMARK    4  A    between atoms: C_5  and  N_6
REMARK    5  A    between atoms: C_14  and  C_15
REMARK                            x       y       z     vdW  Elec       q    Type
REMARK                         _______ _______ _______ _____ _____    ______ ____
ROOT
ATOM      1  C   UNL     1       2.284   7.627  18.989  0.00  0.00    +0.000 A 
ATOM      2  C   UNL     1       1.637   8.013  20.161  0.00  0.00    +0.000 A 
ATOM      3  C   UNL     1       0.894   9.208  20.193  0.00  0.00    +0.000 A 
ATOM      4  C   UNL     1       0.806  10.014  19.046  0.00  0.00    +0.000 A 
ATOM      5  C   UNL     1       1.458   9.623  17.881  0.00  0.00    +0.000 A 
ATOM      6  C   UNL     1       2.187   8.435  17.845  0.00  0.00    +0.000 A 
ENDROOT
BRANCH   4   7
ATOM      7  C   UNL     1      -0.008  11.287  19.004  0.00  0.00    +0.000 C 
ATOM      8  C   UNL     1       0.457  12.304  19.759  0.00  0.00    +0.000 C 
ATOM      9  C   UNL     1       0.431  12.202  21.261  0.00  0.00    +0.000 C 
ATOM     10  C   UNL     1      -0.005  13.501  21.899  0.00  0.00    +0.000 C 
ATOM     11  C   UNL     1       0.920  14.582  21.417  0.00  0.00    +0.000 C 
ATOM     12  N   UNL     1       0.952  14.673  19.977  0.00  0.00    +0.000 N 
ATOM     13  C   UNL     1       1.207  13.511  19.235  0.00  0.00    +0.000 A 
ATOM     14  N   UNL     1       2.067  13.494  18.262  0.00  0.00    +0.000 NA
ATOM     15  C   UNL     1       2.983  14.587  18.240  0.00  0.00    +0.000 A 
ATOM     16  C   UNL     1       4.288  14.363  17.802  0.00  0.00    +0.000 A 
ATOM     17  C   UNL     1       5.317  15.233  18.185  0.00  0.00    +0.000 A 
ATOM     18 CL   UNL     1       6.948  14.844  17.791  0.00  0.00    +0.000 Cl
ATOM     19  C   UNL     1       5.059  16.361  18.967  0.00  0.00    +0.000 A 
ATOM     20  C   UNL     1       3.749  16.665  19.304  0.00  0.00    +0.000 A 
ATOM     21  C   UNL     1       2.736  15.779  18.920  0.00  0.00    +0.000 A 
ATOM     22  C   UNL     1       1.430  15.895  19.555  0.00  0.00    +0.000 A 
ATOM     23  O   UNL     1       0.951  16.992  19.829  0.00  0.00    +0.000 OA
ENDBRANCH   4   7
BRANCH   1  25
ATOM     24  O   UNL     1       3.753   6.009  19.858  0.00  0.00    +0.000 OA
ATOM     25  C   UNL     1       3.002   6.328  18.945  0.00  0.00    +0.000 C 
ATOM     26  N   UNL     1       2.773   5.550  17.827  0.00  0.00    +0.000 N 
ATOM     27  H   UNL     1       2.310   5.966  17.030  0.00  0.00    +0.000 HD
BRANCH  26  28
ATOM     28  C   UNL     1       3.462   4.284  17.629  0.00  0.00    +0.000 C 
BRANCH  28  29
ATOM     29  C   UNL     1       2.515   3.115  17.265  0.00  0.00    +0.000 C 
BRANCH  29  30
ATOM     30  N   UNL     1       2.368   2.133  18.361  0.00  0.00    +0.000 NA
ATOM     31  C   UNL     1       0.984   2.066  18.862  0.00  0.00    +0.000 C 
ATOM     32  C   UNL     1       0.884   3.152  19.915  0.00  0.00    +0.000 C 
ATOM     33  C   UNL     1       2.250   3.127  20.572  0.00  0.00    +0.000 C 
ATOM     34  C   UNL     1       3.176   2.487  19.544  0.00  0.00    +0.000 C 
ENDBRANCH  29  30
ENDBRANCH  28  29
ENDBRANCH  26  28
ENDBRANCH   1  25
TORSDOF 5
ENDMDL
MODEL 2
REMARK VINA RESULT:      -8.4      1.849      2.778
REMARK  Name = 
REMARK  5 active torsions:
REMARK  status: ('A' for Active; 'I' for Inactive)
REMARK    1  A    between atoms: C_2  and  C_11
REMARK    2  A    between atoms: N_3  and  C_4
REMARK    3  A    between atoms: C_4  and  C_5
REMARK    4  A    between atoms: C_5  and  N_6
REMARK    5  A    between atoms: C_14  and  C_15
REMARK                            x       y       z     vdW  Elec       q    Type
REMARK                         _______ _______ _______ _____ _____    ______ ____
ROOT
ATOM      1  C   UNL     1       2.083   7.681  19.386  0.00  0.00    +0.000 A 
ATOM      2  C   UNL     1       1.386   8.120  20.510  0.00  0.00    +0.000 A 
ATOM      3  C   UNL     1       0.666   9.328  20.463  0.00  0.00    +0.000 A 
ATOM      4  C   UNL     1       0.652  10.095  19.286  0.00  0.00    +0.000 A 
ATOM      5  C   UNL     1       1.353   9.651  18.170  0.00  0.00    +0.000 A 
ATOM      6  C   UNL     1       2.060   8.450  18.212  0.00  0.00    +0.000 A 
ENDROOT
BRANCH   4   7
ATOM      7  C   UNL     1      -0.133  11.380  19.159  0.00  0.00    +0.000 C 
ATOM      8  C   UNL     1       0.346  12.430  19.858  0.00  0.00    +0.000 C 
ATOM      9  C   UNL     1       0.303  12.419  21.363  0.00  0.00    +0.000 C 
ATOM     10  C   UNL     1      -0.111  13.762  21.918  0.00  0.00    +0.000 C 
ATOM     11  C   UNL     1       0.842  14.792  21.383  0.00  0.00    +0.000 C 
ATOM     12  N   UNL     1       0.891  14.797  19.941  0.00  0.00    +0.000 N 
ATOM     13  C   UNL     1       1.128  13.588  19.272  0.00  0.00    +0.000 A 
ATOM     14  N   UNL     1       1.998  13.494  18.312  0.00  0.00    +0.000 NA
ATOM     15  C   UNL     1       2.937  14.564  18.236  0.00  0.00    +0.000 A 
ATOM     16  C   UNL     1       4.241  14.286  17.827  0.00  0.00    +0.000 A 
ATOM     17  C   UNL     1       5.286  15.156  18.171  0.00  0.00    +0.000 A 
ATOM     18 CL   UNL     1       6.911  14.709  17.819  0.00  0.00    +0.000 Cl
ATOM     19  C   UNL     1       5.045  16.333  18.880  0.00  0.00    +0.000 A 
ATOM     20  C   UNL     1       3.738  16.685  19.184  0.00  0.00    +0.000 A 
ATOM     21  C   UNL     1       2.710  15.799  18.841  0.00  0.00    +0.000 A 
ATOM     22  C   UNL     1       1.401  15.981  19.452  0.00  0.00    +0.000 A 
ATOM     23  O   UNL     1       0.942  17.103  19.656  0.00  0.00    +0.000 OA
ENDBRANCH   4   7
BRANCH   1  25
ATOM     24  O   UNL     1       2.509   5.555  20.299  0.00  0.00    +0.000 OA
ATOM     25  C   UNL     1       2.777   6.368  19.423  0.00  0.00    +0.000 C 
ATOM     26  N   UNL     1       3.720   6.156  18.436  0.00  0.00    +0.000 N 
ATOM     27  H   UNL     1       4.030   6.943  17.882  0.00  0.00    +0.000 HD
BRANCH  26  28
ATOM     28  C   UNL     1       4.515   4.939  18.396  0.00  0.00    +0.000 C 
BRANCH  28  29
ATOM     29  C   UNL     1       5.718   4.955  19.370  0.00  0.00    +0.000 C 
BRANCH  29  30
ATOM     30  N   UNL     1       7.018   4.809  18.679  0.00  0.00    +0.000 NA
ATOM     31  C   UNL     1       7.922   5.938  18.956  0.00  0.00    +0.000 C 
ATOM     32  C   UNL     1       7.572   6.995  17.927  0.00  0.00    +0.000 C 
ATOM     33  C   UNL     1       7.242   6.182  16.691  0.00  0.00    +0.000 C 
ATOM     34  C   UNL     1       6.874   4.797  17.210  0.00  0.00    +0.000 C 
ENDBRANCH  29  30
ENDBRANCH  28  29
ENDBRANCH  26  28
ENDBRANCH   1  25
TORSDOF 5
ENDMDL
MODEL 3
REMARK VINA RESULT:      -8.4      1.133      1.293
REMARK  Name = 
REMARK  5 active torsions:
REMARK  status: ('A' for Active; 'I' for Inactive)
REMARK    1  A    between atoms: C_2  and  C_11
REMARK    2  A    between atoms: N_3  and  C_4
REMARK    3  A    between atoms: C_4  and  C_5
REMARK    4  A    between atoms: C_5  and  N_6
REMARK    5  A    between atoms: C_14  and  C_15
REMARK                            x       y       z     vdW  Elec       q    Type
REMARK                         _______ _______ _______ _____ _____    ______ ____
ROOT
ATOM      1  C   UNL     1       2.432   7.701  18.807  0.00  0.00    +0.000 A 
ATOM      2  C   UNL     1       1.820   7.863  20.048  0.00  0.00    +0.000 A 
ATOM      3  C   UNL     1       0.879   8.892  20.239  0.00  0.00    +0.000 A 
ATOM      4  C   UNL     1       0.559   9.759  19.181  0.00  0.00    +0.000 A 
ATOM      5  C   UNL     1       1.178   9.592  17.947  0.00  0.00    +0.000 A 
ATOM      6  C   UNL     1       2.103   8.568  17.754  0.00  0.00    +0.000 A 
ENDROOT
BRANCH   4   7
ATOM      7  C   UNL     1      -0.471  10.858  19.309  0.00  0.00    +0.000 C 
ATOM      8  C   UNL     1      -0.157  11.858  20.159  0.00  0.00    +0.000 C 
ATOM      9  C   UNL     1      -0.085  11.595  21.640  0.00  0.00    +0.000 C 
ATOM     10  C   UNL     1      -0.712  12.717  22.435  0.00  0.00    +0.000 C 
ATOM     11  C   UNL     1      -0.023  13.994  22.048  0.00  0.00    +0.000 C 
ATOM     12  N   UNL     1      -0.083  14.241  20.628  0.00  0.00    +0.000 N 
ATOM     13  C   UNL     1       0.336  13.230  19.751  0.00  0.00    +0.000 A 
ATOM     14  N   UNL     1       1.133  13.474  18.756  0.00  0.00    +0.000 NA
ATOM     15  C   UNL     1       1.836  14.713  18.827  0.00  0.00    +0.000 A 
ATOM     16  C   UNL     1       3.135  14.780  18.325  0.00  0.00    +0.000 A 
ATOM     17  C   UNL     1       4.011  15.779  18.771  0.00  0.00    +0.000 A 
ATOM     18 CL   UNL     1       5.661  15.741  18.282  0.00  0.00    +0.000 Cl
ATOM     19  C   UNL     1       3.596  16.752  19.682  0.00  0.00    +0.000 A 
ATOM     20  C   UNL     1       2.272  16.773  20.095  0.00  0.00    +0.000 A 
ATOM     21  C   UNL     1       1.416  15.761  19.646  0.00  0.00    +0.000 A 
ATOM     22  C   UNL     1       0.146  15.567  20.331  0.00  0.00    +0.000 A 
ATOM     23  O   UNL     1      -0.508  16.523  20.743  0.00  0.00    +0.000 OA
ENDBRANCH   4   7
BRANCH   1  25
ATOM     24  O   UNL     1       3.941   6.433  17.523  0.00  0.00    +0.000 OA
ATOM     25  C   UNL     1       3.366   6.566  18.596  0.00  0.00    +0.000 C 
ATOM     26  N   UNL     1       3.514   5.701  19.664  0.00  0.00    +0.000 N 
ATOM     27  H   UNL     1       2.859   5.757  20.431  0.00  0.00    +0.000 HD
BRANCH  26  28
ATOM     28  C   UNL     1       4.350   4.514  19.567  0.00  0.00    +0.000 C 
BRANCH  28  29
ATOM     29  C   UNL     1       3.718   3.381  18.724  0.00  0.00    +0.000 C 
BRANCH  29  30
ATOM     30  N   UNL     1       3.081   2.335  19.554  0.00  0.00    +0.000 NA
ATOM     31  C   UNL     1       1.706   2.040  19.113  0.00  0.00    +0.000 C 
ATOM     32  C   UNL     1       0.829   3.046  19.832  0.00  0.00    +0.000 C 
ATOM     33  C   UNL     1       1.500   3.190  21.183  0.00  0.00    +0.000 C 
ATOM     34  C   UNL     1       2.941   2.745  20.964  0.00  0.00    +0.000 C 
ENDBRANCH  29  30
ENDBRANCH  28  29
ENDBRANCH  26  28
ENDBRANCH   1  25
TORSDOF 5
ENDMDL
MODEL 4
REMARK VINA RESULT:      -8.4      4.478      6.135
REMARK  Name = 
REMARK  5 active torsions:
REMARK  status: ('A' for Active; 'I' for Inactive)
REMARK    1  A    between atoms: C_2  and  C_11
REMARK    2  A    between atoms: N_3  and  C_4
REMARK    3  A    between atoms: C_4  and  C_5
REMARK    4  A    between atoms: C_5  and  N_6
REMARK    5  A    between atoms: C_14  and  C_15
REMARK                            x       y       z     vdW  Elec       q    Type
REMARK                         _______ _______ _______ _____ _____    ______ ____
ROOT
ATOM      1  C   UNL     1       0.843   9.269  20.130  0.00  0.00    +0.000 A 
ATOM      2  C   UNL     1      -0.003  10.325  19.794  0.00  0.00    +0.000 A 
ATOM      3  C   UNL     1      -0.771  10.954  20.791  0.00  0.00    +0.000 A 
ATOM      4  C   UNL     1      -0.689  10.519  22.124  0.00  0.00    +0.000 A 
ATOM      5  C   UNL     1       0.155   9.462  22.449  0.00  0.00    +0.000 A 
ATOM      6  C   UNL     1       0.923   8.843  21.464  0.00  0.00    +0.000 A 
ENDROOT
BRANCH   4   7
ATOM      7  C   UNL     1      -1.457  11.178  23.247  0.00  0.00    +0.000 C 
ATOM      8  C   UNL     1      -1.834  12.454  23.027  0.00  0.00    +0.000 C 
ATOM      9  C   UNL     1      -0.798  13.544  22.944  0.00  0.00    +0.000 C 
ATOM     10  C   UNL     1      -1.242  14.791  23.672  0.00  0.00    +0.000 C 
ATOM     11  C   UNL     1      -2.561  15.214  23.094  0.00  0.00    +0.000 C 
ATOM     12  N   UNL     1      -3.552  14.168  23.166  0.00  0.00    +0.000 N 
ATOM     13  C   UNL     1      -3.232  12.902  22.653  0.00  0.00    +0.000 A 
ATOM     14  N   UNL     1      -4.042  12.254  21.873  0.00  0.00    +0.000 NA
ATOM     15  C   UNL     1      -5.077  13.038  21.282  0.00  0.00    +0.000 A 
ATOM     16  C   UNL     1      -5.500  12.728  19.990  0.00  0.00    +0.000 A 
ATOM     17  C   UNL     1      -6.140  13.700  19.208  0.00  0.00    +0.000 A 
ATOM     18 CL   UNL     1      -6.493  13.363  17.557  0.00  0.00    +0.000 Cl
ATOM     19  C   UNL     1      -6.410  14.973  19.713  0.00  0.00    +0.000 A 
ATOM     20  C   UNL     1      -6.107  15.255  21.037  0.00  0.00    +0.000 A 
ATOM     21  C   UNL     1      -5.460  14.275  21.798  0.00  0.00    +0.000 A 
ATOM     22  C   UNL     1      -4.831  14.668  23.052  0.00  0.00    +0.000 A 
ATOM     23  O   UNL     1      -5.348  15.503  23.789  0.00  0.00    +0.000 OA
ENDBRANCH   4   7
BRANCH   1  25
ATOM     24  O   UNL     1       1.867   9.234  18.012  0.00  0.00    +0.000 OA
ATOM     25  C   UNL     1       1.704   8.662  19.083  0.00  0.00    +0.000 C 
ATOM     26  N   UNL     1       2.271   7.443  19.401  0.00  0.00    +0.000 N 
ATOM     27  H   UNL     1       1.928   6.942  20.210  0.00  0.00    +0.000 HD
BRANCH  26  28
ATOM     28  C   UNL     1       3.084   6.712  18.441  0.00  0.00    +0.000 C 
BRANCH  28  29
ATOM     29  C   UNL     1       2.471   5.355  18.020  0.00  0.00    +0.000 C 
BRANCH  29  30
ATOM     30  N   UNL     1       2.562   4.329  19.083  0.00  0.00    +0.000 NA
ATOM     31  C   UNL     1       3.292   3.131  18.634  0.00  0.00    +0.000 C 
ATOM     32  C   UNL     1       2.251   2.250  17.971  0.00  0.00    +0.000 C 
ATOM     33  C   UNL     1       1.012   2.482  18.812  0.00  0.00    +0.000 C 
ATOM     34  C   UNL     1       1.236   3.827  19.493  0.00  0.00    +0.000 C 
ENDBRANCH  29  30
ENDBRANCH  28  29
ENDBRANCH  26  28
ENDBRANCH   1  25
TORSDOF 5
ENDMDL
MODEL 5
REMARK VINA RESULT:      -8.3      1.927      2.841
REMARK  Name = 
REMARK  5 active torsions:
REMARK  status: ('A' for Active; 'I' for Inactive)
REMARK    1  A    between atoms: C_2  and  C_11
REMARK    2  A    between atoms: N_3  and  C_4
REMARK    3  A    between atoms: C_4  and  C_5
REMARK    4  A    between atoms: C_5  and  N_6
REMARK    5  A    between atoms: C_14  and  C_15
REMARK                            x       y       z     vdW  Elec       q    Type
REMARK                         _______ _______ _______ _____ _____    ______ ____
ROOT
ATOM      1  C   UNL     1       2.024   8.332  19.193  0.00  0.00    +0.000 A 
ATOM      2  C   UNL     1       1.207   8.835  20.204  0.00  0.00    +0.000 A 
ATOM      3  C   UNL     1       0.697  10.143  20.110  0.00  0.00    +0.000 A 
ATOM      4  C   UNL     1       1.012  10.944  19.000  0.00  0.00    +0.000 A 
ATOM      5  C   UNL     1       1.831  10.436  17.997  0.00  0.00    +0.000 A 
ATOM      6  C   UNL     1       2.330   9.137  18.085  0.00  0.00    +0.000 A 
ENDROOT
BRANCH   4   7
ATOM      7  C   UNL     1       0.464  12.342  18.820  0.00  0.00    +0.000 C 
ATOM      8  C   UNL     1       1.065  13.304  19.551  0.00  0.00    +0.000 C 
ATOM      9  C   UNL     1       0.919  13.316  21.050  0.00  0.00    +0.000 C 
ATOM     10  C   UNL     1       0.700  14.716  21.576  0.00  0.00    +0.000 C 
ATOM     11  C   UNL     1       1.846  15.566  21.108  0.00  0.00    +0.000 C 
ATOM     12  N   UNL     1       1.993  15.547  19.673  0.00  0.00    +0.000 N 
ATOM     13  C   UNL     1       2.068  14.308  19.021  0.00  0.00    +0.000 A 
ATOM     14  N   UNL     1       2.972  14.060  18.123  0.00  0.00    +0.000 NA
ATOM     15  C   UNL     1       4.081  14.956  18.111  0.00  0.00    +0.000 A 
ATOM     16  C   UNL     1       5.345  14.459  17.793  0.00  0.00    +0.000 A 
ATOM     17  C   UNL     1       6.495  15.145  18.207  0.00  0.00    +0.000 A 
ATOM     18 CL   UNL     1       8.042  14.428  17.967  0.00  0.00    +0.000 Cl
ATOM     19  C   UNL     1       6.408  16.354  18.900  0.00  0.00    +0.000 A 
ATOM     20  C   UNL     1       5.160  16.923  19.113  0.00  0.00    +0.000 A 
ATOM     21  C   UNL     1       4.024  16.218  18.701  0.00  0.00    +0.000 A 
ATOM     22  C   UNL     1       2.726  16.623  19.221  0.00  0.00    +0.000 A 
ATOM     23  O   UNL     1       2.449  17.808  19.393  0.00  0.00    +0.000 OA
ENDBRANCH   4   7
BRANCH   1  25
ATOM     24  O   UNL     1       2.029   6.164  20.105  0.00  0.00    +0.000 OA
ATOM     25  C   UNL     1       2.495   6.926  19.267  0.00  0.00    +0.000 C 
ATOM     26  N   UNL     1       3.471   6.569  18.357  0.00  0.00    +0.000 N 
ATOM     27  H   UNL     1       3.947   7.296  17.841  0.00  0.00    +0.000 HD
BRANCH  26  28
ATOM     28  C   UNL     1       4.064   5.240  18.363  0.00  0.00    +0.000 C 
BRANCH  28  29
ATOM     29  C   UNL     1       5.249   5.097  19.347  0.00  0.00    +0.000 C 
BRANCH  29  30
ATOM     30  N   UNL     1       6.505   4.691  18.678  0.00  0.00    +0.000 NA
ATOM     31  C   UNL     1       7.633   5.566  19.042  0.00  0.00    +0.000 C 
ATOM     32  C   UNL     1       7.572   6.727  18.068  0.00  0.00    +0.000 C 
ATOM     33  C   UNL     1       7.108   6.077  16.780  0.00  0.00    +0.000 C 
ATOM     34  C   UNL     1       6.414   4.789  17.208  0.00  0.00    +0.000 C 
ENDBRANCH  29  30
ENDBRANCH  28  29
ENDBRANCH  26  28
ENDBRANCH   1  25
TORSDOF 5
ENDMDL
MODEL 6
REMARK VINA RESULT:      -8.2      1.055      1.213
REMARK  Name = 
REMARK  5 active torsions:
REMARK  status: ('A' for Active; 'I' for Inactive)
REMARK    1  A    between atoms: C_2  and  C_11
REMARK    2  A    between atoms: N_3  and  C_4
REMARK    3  A    between atoms: C_4  and  C_5
REMARK    4  A    between atoms: C_5  and  N_6
REMARK    5  A    between atoms: C_14  and  C_15
REMARK                            x       y       z     vdW  Elec       q    Type
REMARK                         _______ _______ _______ _____ _____    ______ ____
ROOT
ATOM      1  C   UNL     1       1.848   8.258  19.510  0.00  0.00    +0.000 A 
ATOM      2  C   UNL     1       1.127   8.911  20.509  0.00  0.00    +0.000 A 
ATOM      3  C   UNL     1       0.632  10.209  20.285  0.00  0.00    +0.000 A 
ATOM      4  C   UNL     1       0.867  10.850  19.057  0.00  0.00    +0.000 A 
ATOM      5  C   UNL     1       1.590  10.194  18.067  0.00  0.00    +0.000 A 
ATOM      6  C   UNL     1       2.073   8.904  18.285  0.00  0.00    +0.000 A 
ENDROOT
BRANCH   4   7
ATOM      7  C   UNL     1       0.330  12.227  18.740  0.00  0.00    +0.000 C 
ATOM      8  C   UNL     1       0.885  13.245  19.429  0.00  0.00    +0.000 C 
ATOM      9  C   UNL     1       0.649  13.370  20.912  0.00  0.00    +0.000 C 
ATOM     10  C   UNL     1       0.398  14.804  21.316  0.00  0.00    +0.000 C 
ATOM     11  C   UNL     1       1.570  15.622  20.854  0.00  0.00    +0.000 C 
ATOM     12  N   UNL     1       1.801  15.496  19.436  0.00  0.00    +0.000 N 
ATOM     13  C   UNL     1       1.916  14.211  18.885  0.00  0.00    +0.000 A 
ATOM     14  N   UNL     1       2.873  13.901  18.064  0.00  0.00    +0.000 NA
ATOM     15  C   UNL     1       3.980  14.800  18.050  0.00  0.00    +0.000 A 
ATOM     16  C   UNL     1       5.260  14.287  17.845  0.00  0.00    +0.000 A 
ATOM     17  C   UNL     1       6.383  15.008  18.274  0.00  0.00    +0.000 A 
ATOM     18 CL   UNL     1       7.943  14.284  18.181  0.00  0.00    +0.000 Cl
ATOM     19  C   UNL     1       6.254  16.266  18.866  0.00  0.00    +0.000 A 
ATOM     20  C   UNL     1       4.995  16.843  18.962  0.00  0.00    +0.000 A 
ATOM     21  C   UNL     1       3.887  16.103  18.538  0.00  0.00    +0.000 A 
ATOM     22  C   UNL     1       2.559  16.539  18.948  0.00  0.00    +0.000 A 
ATOM     23  O   UNL     1       2.272  17.732  19.012  0.00  0.00    +0.000 OA
ENDBRANCH   4   7
BRANCH   1  25
ATOM     24  O   UNL     1       1.720   6.147  20.540  0.00  0.00    +0.000 OA
ATOM     25  C   UNL     1       2.299   6.861  19.730  0.00  0.00    +0.000 C 
ATOM     26  N   UNL     1       3.391   6.456  18.986  0.00  0.00    +0.000 N 
ATOM     27  H   UNL     1       3.936   7.155  18.500  0.00  0.00    +0.000 HD
BRANCH  26  28
ATOM     28  C   UNL     1       3.973   5.133  19.152  0.00  0.00    +0.000 C 
BRANCH  28  29
ATOM     29  C   UNL     1       3.361   4.067  18.212  0.00  0.00    +0.000 C 
BRANCH  29  30
ATOM     30  N   UNL     1       3.147   2.766  18.884  0.00  0.00    +0.000 NA
ATOM     31  C   UNL     1       1.835   2.182  18.553  0.00  0.00    +0.000 C 
ATOM     32  C   UNL     1       0.865   2.779  19.554  0.00  0.00    +0.000 C 
ATOM     33  C   UNL     1       1.690   2.879  20.821  0.00  0.00    +0.000 C 
ATOM     34  C   UNL     1       3.141   2.887  20.355  0.00  0.00    +0.000 C 
ENDBRANCH  29  30
ENDBRANCH  28  29
ENDBRANCH  26  28
ENDBRANCH   1  25
TORSDOF 5
ENDMDL
MODEL 7
REMARK VINA RESULT:      -8.2      4.547      6.162
REMARK  Name = 
REMARK  5 active torsions:
REMARK  status: ('A' for Active; 'I' for Inactive)
REMARK    1  A    between atoms: C_2  and  C_11
REMARK    2  A    between atoms: N_3  and  C_4
REMARK    3  A    between atoms: C_4  and  C_5
REMARK    4  A    between atoms: C_5  and  N_6
REMARK    5  A    between atoms: C_14  and  C_15
REMARK                            x       y       z     vdW  Elec       q    Type
REMARK                         _______ _______ _______ _____ _____    ______ ____
ROOT
ATOM      1  C   UNL     1       0.837   9.012  20.698  0.00  0.00    +0.000 A 
ATOM      2  C   UNL     1       0.023  10.005  20.154  0.00  0.00    +0.000 A 
ATOM      3  C   UNL     1      -0.760  10.813  21.000  0.00  0.00    +0.000 A 
ATOM      4  C   UNL     1      -0.724  10.620  22.391  0.00  0.00    +0.000 A 
ATOM      5  C   UNL     1       0.088   9.625  22.924  0.00  0.00    +0.000 A 
ATOM      6  C   UNL     1       0.870   8.829  22.089  0.00  0.00    +0.000 A 
ENDROOT
BRANCH   4   7
ATOM      7  C   UNL     1      -1.509  11.481  23.354  0.00  0.00    +0.000 C 
ATOM      8  C   UNL     1      -1.878  12.692  22.890  0.00  0.00    +0.000 C 
ATOM      9  C   UNL     1      -0.836  13.746  22.620  0.00  0.00    +0.000 C 
ATOM     10  C   UNL     1      -1.288  15.109  23.092  0.00  0.00    +0.000 C 
ATOM     11  C   UNL     1      -2.597  15.415  22.420  0.00  0.00    +0.000 C 
ATOM     12  N   UNL     1      -3.592  14.401  22.671  0.00  0.00    +0.000 N 
ATOM     13  C   UNL     1      -3.267  13.061  22.414  0.00  0.00    +0.000 A 
ATOM     14  N   UNL     1      -4.066  12.277  21.756  0.00  0.00    +0.000 NA
ATOM     15  C   UNL     1      -5.088  12.935  21.009  0.00  0.00    +0.000 A 
ATOM     16  C   UNL     1      -5.490  12.386  19.792  0.00  0.00    +0.000 A 
ATOM     17  C   UNL     1      -6.113  13.192  18.829  0.00  0.00    +0.000 A 
ATOM     18 CL   UNL     1      -6.438  12.548  17.266  0.00  0.00    +0.000 Cl
ATOM     19  C   UNL     1      -6.387  14.538  19.079  0.00  0.00    +0.000 A 
ATOM     20  C   UNL     1      -6.106  15.065  20.331  0.00  0.00    +0.000 A 
ATOM     21  C   UNL     1      -5.476  14.247  21.275  0.00  0.00    +0.000 A 
ATOM     22  C   UNL     1      -4.867  14.871  22.442  0.00  0.00    +0.000 A 
ATOM     23  O   UNL     1      -5.394  15.831  22.999  0.00  0.00    +0.000 OA
ENDBRANCH   4   7
BRANCH   1  25
ATOM     24  O   UNL     1       1.915   8.583  18.652  0.00  0.00    +0.000 OA
ATOM     25  C   UNL     1       1.714   8.216  19.803  0.00  0.00    +0.000 C 
ATOM     26  N   UNL     1       2.249   7.066  20.351  0.00  0.00    +0.000 N 
ATOM     27  H   UNL     1       1.877   6.724  21.226  0.00  0.00    +0.000 HD
BRANCH  26  28
ATOM     28  C   UNL     1       3.074   6.163  19.562  0.00  0.00    +0.000 C 
BRANCH  28  29
ATOM     29  C   UNL     1       2.880   4.672  19.927  0.00  0.00    +0.000 C 
BRANCH  29  30
ATOM     30  N   UNL     1       4.045   3.836  19.562  0.00  0.00    +0.000 NA
ATOM     31  C   UNL     1       4.474   4.062  18.171  0.00  0.00    +0.000 C 
ATOM     32  C   UNL     1       3.627   3.126  17.332  0.00  0.00    +0.000 C 
ATOM     33  C   UNL     1       3.489   1.899  18.211  0.00  0.00    +0.000 C 
ATOM     34  C   UNL     1       3.743   2.393  19.630  0.00  0.00    +0.000 C 
ENDBRANCH  29  30
ENDBRANCH  28  29
ENDBRANCH  26  28
ENDBRANCH   1  25
TORSDOF 5
ENDMDL
MODEL 8
REMARK VINA RESULT:      -8.2      4.486      6.128
REMARK  Name = 
REMARK  5 active torsions:
REMARK  status: ('A' for Active; 'I' for Inactive)
REMARK    1  A    between atoms: C_2  and  C_11
REMARK    2  A    between atoms: N_3  and  C_4
REMARK    3  A    between atoms: C_4  and  C_5
REMARK    4  A    between atoms: C_5  and  N_6
REMARK    5  A    between atoms: C_14  and  C_15
REMARK                            x       y       z     vdW  Elec       q    Type
REMARK                         _______ _______ _______ _____ _____    ______ ____
ROOT
ATOM      1  C   UNL     1       0.828   9.471  20.098  0.00  0.00    +0.000 A 
ATOM      2  C   UNL     1       1.034   9.037  21.406  0.00  0.00    +0.000 A 
ATOM      3  C   UNL     1       0.295   9.607  22.460  0.00  0.00    +0.000 A 
ATOM      4  C   UNL     1      -0.647  10.615  22.195  0.00  0.00    +0.000 A 
ATOM      5  C   UNL     1      -0.843  11.044  20.887  0.00  0.00    +0.000 A 
ATOM      6  C   UNL     1      -0.118  10.475  19.842  0.00  0.00    +0.000 A 
ENDROOT
BRANCH   4   7
ATOM      7  C   UNL     1      -1.500  11.239  23.276  0.00  0.00    +0.000 C 
ATOM      8  C   UNL     1      -1.924  12.497  23.034  0.00  0.00    +0.000 C 
ATOM      9  C   UNL     1      -0.936  13.633  22.998  0.00  0.00    +0.000 C 
ATOM     10  C   UNL     1      -1.472  14.859  23.700  0.00  0.00    +0.000 C 
ATOM     11  C   UNL     1      -2.780  15.220  23.055  0.00  0.00    +0.000 C 
ATOM     12  N   UNL     1      -3.723  14.129  23.081  0.00  0.00    +0.000 N 
ATOM     13  C   UNL     1      -3.320  12.879  22.590  0.00  0.00    +0.000 A 
ATOM     14  N   UNL     1      -4.060  12.193  21.773  0.00  0.00    +0.000 NA
ATOM     15  C   UNL     1      -5.099  12.928  21.129  0.00  0.00    +0.000 A 
ATOM     16  C   UNL     1      -5.443  12.597  19.818  0.00  0.00    +0.000 A 
ATOM     17  C   UNL     1      -6.088  13.537  19.002  0.00  0.00    +0.000 A 
ATOM     18 CL   UNL     1      -6.342  13.182  17.337  0.00  0.00    +0.000 Cl
ATOM     19  C   UNL     1      -6.441  14.798  19.489  0.00  0.00    +0.000 A 
ATOM     20  C   UNL     1      -6.217  15.094  20.825  0.00  0.00    +0.000 A 
ATOM     21  C   UNL     1      -5.564  14.147  21.620  0.00  0.00    +0.000 A 
ATOM     22  C   UNL     1      -5.017  14.569  22.902  0.00  0.00    +0.000 A 
ATOM     23  O   UNL     1      -5.608  15.381  23.611  0.00  0.00    +0.000 OA
ENDBRANCH   4   7
BRANCH   1  25
ATOM     24  O   UNL     1       1.559   9.308  17.868  0.00  0.00    +0.000 OA
ATOM     25  C   UNL     1       1.559   8.810  18.987  0.00  0.00    +0.000 C 
ATOM     26  N   UNL     1       2.199   7.628  19.305  0.00  0.00    +0.000 N 
ATOM     27  H   UNL     1       1.984   7.178  20.184  0.00  0.00    +0.000 HD
BRANCH  26  28
ATOM     28  C   UNL     1       2.897   6.848  18.294  0.00  0.00    +0.000 C 
BRANCH  28  29
ATOM     29  C   UNL     1       3.078   5.360  18.679  0.00  0.00    +0.000 C 
BRANCH  29  30
ATOM     30  N   UNL     1       2.143   4.464  17.962  0.00  0.00    +0.000 NA
ATOM     31  C   UNL     1       1.270   3.721  18.887  0.00  0.00    +0.000 C 
ATOM     32  C   UNL     1       2.055   2.481  19.271  0.00  0.00    +0.000 C 
ATOM     33  C   UNL     1       2.791   2.126  17.994  0.00  0.00    +0.000 C 
ATOM     34  C   UNL     1       2.846   3.420  17.191  0.00  0.00    +0.000 C 
ENDBRANCH  29  30
ENDBRANCH  28  29
ENDBRANCH  26  28
ENDBRANCH   1  25
TORSDOF 5
ENDMDL
MODEL 9
REMARK VINA RESULT:      -8.2      4.283      9.510
REMARK  Name = 
REMARK  5 active torsions:
REMARK  status: ('A' for Active; 'I' for Inactive)
REMARK    1  A    between atoms: C_2  and  C_11
REMARK    2  A    between atoms: N_3  and  C_4
REMARK    3  A    between atoms: C_4  and  C_5
REMARK    4  A    between atoms: C_5  and  N_6
REMARK    5  A    between atoms: C_14  and  C_15
REMARK                            x       y       z     vdW  Elec       q    Type
REMARK                         _______ _______ _______ _____ _____    ______ ____
ROOT
ATOM      1  C   UNL     1      -0.333  10.303  18.779  0.00  0.00    +0.000 A 
ATOM      2  C   UNL     1       0.732   9.669  18.142  0.00  0.00    +0.000 A 
ATOM      3  C   UNL     1       1.513   8.730  18.842  0.00  0.00    +0.000 A 
ATOM      4  C   UNL     1       1.222   8.434  20.184  0.00  0.00    +0.000 A 
ATOM      5  C   UNL     1       0.161   9.074  20.814  0.00  0.00    +0.000 A 
ATOM      6  C   UNL     1      -0.619   9.997  20.119  0.00  0.00    +0.000 A 
ENDROOT
BRANCH   4   7
ATOM      7  C   UNL     1       1.997   7.408  20.979  0.00  0.00    +0.000 C 
ATOM      8  C   UNL     1       2.067   6.176  20.433  0.00  0.00    +0.000 C 
ATOM      9  C   UNL     1       0.828   5.325  20.327  0.00  0.00    +0.000 C 
ATOM     10  C   UNL     1       1.110   3.885  20.685  0.00  0.00    +0.000 C 
ATOM     11  C   UNL     1       2.214   3.398  19.791  0.00  0.00    +0.000 C 
ATOM     12  N   UNL     1       3.398   4.217  19.885  0.00  0.00    +0.000 N 
ATOM     13  C   UNL     1       3.271   5.604  19.715  0.00  0.00    +0.000 A 
ATOM     14  N   UNL     1       4.073   6.275  18.945  0.00  0.00    +0.000 NA
ATOM     15  C   UNL     1       4.825   5.494  18.019  0.00  0.00    +0.000 A 
ATOM     16  C   UNL     1       5.106   6.028  16.762  0.00  0.00    +0.000 A 
ATOM     17  C   UNL     1       5.409   5.178  15.689  0.00  0.00    +0.000 A 
ATOM     18 CL   UNL     1       5.575   5.835  14.106  0.00  0.00    +0.000 Cl
ATOM     19  C   UNL     1       5.484   3.794  15.860  0.00  0.00    +0.000 A 
ATOM     20  C   UNL     1       5.330   3.260  17.131  0.00  0.00    +0.000 A 
ATOM     21  C   UNL     1       5.018   4.123  18.186  0.00  0.00    +0.000 A 
ATOM     22  C   UNL     1       4.516   3.553  19.429  0.00  0.00    +0.000 A 
ATOM     23  O   UNL     1       4.954   2.492  19.866  0.00  0.00    +0.000 OA
ENDBRANCH   4   7
BRANCH   1  25
ATOM     24  O   UNL     1      -0.909  12.424  17.940  0.00  0.00    +0.000 OA
ATOM     25  C   UNL     1      -1.195  11.235  18.009  0.00  0.00    +0.000 C 
ATOM     26  N   UNL     1      -2.307  10.673  17.413  0.00  0.00    +0.000 N 
ATOM     27  H   UNL     1      -2.586   9.740  17.684  0.00  0.00    +0.000 HD
BRANCH  26  28
ATOM     28  C   UNL     1      -3.268  11.486  16.683  0.00  0.00    +0.000 C 
BRANCH  28  29
ATOM     29  C   UNL     1      -4.741  11.104  16.965  0.00  0.00    +0.000 C 
BRANCH  29  30
ATOM     30  N   UNL     1      -5.035  10.978  18.410  0.00  0.00    +0.000 NA
ATOM     31  C   UNL     1      -6.439  10.609  18.659  0.00  0.00    +0.000 C 
ATOM     32  C   UNL     1      -7.200  11.921  18.690  0.00  0.00    +0.000 C 
ATOM     33  C   UNL     1      -6.223  12.874  19.348  0.00  0.00    +0.000 C 
ATOM     34  C   UNL     1      -4.849  12.251  19.133  0.00  0.00    +0.000 C 
ENDBRANCH  29  30
ENDBRANCH  28  29
ENDBRANCH  26  28
ENDBRANCH   1  25
TORSDOF 5
ENDMDL
