MODEL 1
REMARK VINA RESULT:      -8.5      0.000      0.000
REMARK  Name = 
REMARK  6 active torsions:
REMARK  status: ('A' for Active; 'I' for Inactive)
REMARK    1  A    between atoms: C_1  and  C_2
REMARK    2  A    between atoms: C_2  and  N_3
REMARK    3  A    between atoms: C_2  and  C_21
REMARK    4  A    between atoms: N_3  and  C_4
REMARK    5  A    between atoms: N_12  and  C_13
REMARK    6  A    between atoms: C_13  and  C_14
REMARK                            x       y       z     vdW  Elec       q    Type
REMARK                         _______ _______ _______ _____ _____    ______ ____
ROOT
ATOM      1  C   UNL     1       2.802   5.200  19.962  0.00  0.00    +0.000 A 
ATOM      2  N   UNL     1       2.112   4.614  20.981  0.00  0.00    +0.000 NA
ATOM      3  C   UNL     1       1.907   3.295  21.021  0.00  0.00    +0.000 A 
ATOM      4  N   UNL     1       1.119   2.797  22.044  0.00  0.00    +0.000 N 
ATOM      5  N   UNL     1       2.324   2.419  20.131  0.00  0.00    +0.000 NA
ATOM      6  C   UNL     1       2.993   2.955  19.101  0.00  0.00    +0.000 A 
ATOM      7  C   UNL     1       3.552   2.227  18.034  0.00  0.00    +0.000 A 
ATOM      8  C   UNL     1       4.126   3.144  17.200  0.00  0.00    +0.000 A 
ATOM      9  N   UNL     1       3.913   4.412  17.724  0.00  0.00    +0.000 N 
ATOM     10  C   UNL     1       3.244   4.329  18.941  0.00  0.00    +0.000 A 
ATOM     11  H   UNL     1       0.458   3.512  22.317  0.00  0.00    +0.000 HD
ATOM     12  H   UNL     1       0.729   1.918  21.733  0.00  0.00    +0.000 HD
ENDROOT
BRANCH   1  13
ATOM     13  N   UNL     1       2.960   6.581  20.055  0.00  0.00    +0.000 N 
ATOM     14  H   UNL     1       3.343   7.008  20.891  0.00  0.00    +0.000 HD
BRANCH  13  16
ATOM     15  C   UNL     1       2.619   8.123  18.123  0.00  0.00    +0.000 C 
ATOM     16  C   UNL     1       1.976   7.440  19.343  0.00  0.00    +0.000 C 
BRANCH  16  17
ATOM     17  C   UNL     1       1.360   8.533  20.237  0.00  0.00    +0.000 A 
ATOM     18  C   UNL     1       1.165   8.267  21.604  0.00  0.00    +0.000 A 
ATOM     19  C   UNL     1       0.570   9.231  22.424  0.00  0.00    +0.000 A 
ATOM     20  C   UNL     1       0.157  10.428  21.862  0.00  0.00    +0.000 A 
ATOM     21  C   UNL     1       0.359  10.613  20.502  0.00  0.00    +0.000 A 
ATOM     22  N   UNL     1       0.959   9.711  19.681  0.00  0.00    +0.000 NA
ENDBRANCH  16  17
ENDBRANCH  13  16
ENDBRANCH   1  13
BRANCH   9  23
ATOM     23  C   UNL     1       4.412   5.577  16.998  0.00  0.00    +0.000 C 
BRANCH  23  24
ATOM     24  C   UNL     1       5.807   5.893  17.484  0.00  0.00    +0.000 A 
ATOM     25  C   UNL     1       6.481   6.986  16.957  0.00  0.00    +0.000 A 
ATOM     26  C   UNL     1       7.618   7.449  17.603  0.00  0.00    +0.000 A 
ATOM     27  C   UNL     1       8.074   6.793  18.738  0.00  0.00    +0.000 A 
ATOM     28  C   UNL     1       7.393   5.666  19.161  0.00  0.00    +0.000 A 
ATOM     29  N   UNL     1       6.276   5.202  18.561  0.00  0.00    +0.000 NA
ENDBRANCH  23  24
ENDBRANCH   9  23
TORSDOF 5
ENDMDL
MODEL 2
REMARK VINA RESULT:      -8.5      1.745      5.982
REMARK  Name = 
REMARK  6 active torsions:
REMARK  status: ('A' for Active; 'I' for Inactive)
REMARK    1  A    between atoms: C_1  and  C_2
REMARK    2  A    between atoms: C_2  and  N_3
REMARK    3  A    between atoms: C_2  and  C_21
REMARK    4  A    between atoms: N_3  and  C_4
REMARK    5  A    between atoms: N_12  and  C_13
REMARK    6  A    between atoms: C_13  and  C_14
REMARK                            x       y       z     vdW  Elec       q    Type
REMARK                         _______ _______ _______ _____ _____    ______ ____
ROOT
ATOM      1  C   UNL     1       4.993   4.707  19.207  0.00  0.00    +0.000 A 
ATOM      2  N   UNL     1       5.385   3.476  19.646  0.00  0.00    +0.000 NA
ATOM      3  C   UNL     1       4.562   2.424  19.606  0.00  0.00    +0.000 A 
ATOM      4  N   UNL     1       5.012   1.236  20.154  0.00  0.00    +0.000 N 
ATOM      5  N   UNL     1       3.325   2.426  19.157  0.00  0.00    +0.000 NA
ATOM      6  C   UNL     1       2.893   3.620  18.732  0.00  0.00    +0.000 A 
ATOM      7  C   UNL     1       1.617   3.874  18.194  0.00  0.00    +0.000 A 
ATOM      8  C   UNL     1       1.579   5.208  17.904  0.00  0.00    +0.000 A 
ATOM      9  N   UNL     1       2.792   5.775  18.271  0.00  0.00    +0.000 N 
ATOM     10  C   UNL     1       3.659   4.799  18.752  0.00  0.00    +0.000 A 
ATOM     11  H   UNL     1       5.670   1.451  20.891  0.00  0.00    +0.000 HD
ATOM     12  H   UNL     1       4.201   0.692  20.418  0.00  0.00    +0.000 HD
ENDROOT
BRANCH   1  13
ATOM     13  N   UNL     1       5.956   5.711  19.287  0.00  0.00    +0.000 N 
ATOM     14  H   UNL     1       5.712   6.647  19.588  0.00  0.00    +0.000 HD
BRANCH  13  16
ATOM     15  C   UNL     1       7.820   7.019  18.267  0.00  0.00    +0.000 C 
ATOM     16  C   UNL     1       7.079   5.671  18.312  0.00  0.00    +0.000 C 
BRANCH  16  17
ATOM     17  C   UNL     1       6.631   5.321  16.879  0.00  0.00    +0.000 A 
ATOM     18  C   UNL     1       5.802   6.219  16.185  0.00  0.00    +0.000 A 
ATOM     19  C   UNL     1       5.351   5.901  14.900  0.00  0.00    +0.000 A 
ATOM     20  C   UNL     1       5.713   4.685  14.343  0.00  0.00    +0.000 A 
ATOM     21  C   UNL     1       6.512   3.837  15.096  0.00  0.00    +0.000 A 
ATOM     22  N   UNL     1       6.993   4.125  16.335  0.00  0.00    +0.000 NA
ENDBRANCH  16  17
ENDBRANCH  13  16
ENDBRANCH   1  13
BRANCH   9  23
ATOM     23  C   UNL     1       2.995   7.210  18.084  0.00  0.00    +0.000 C 
BRANCH  23  24
ATOM     24  C   UNL     1       2.021   7.958  18.964  0.00  0.00    +0.000 A 
ATOM     25  C   UNL     1       1.898   7.603  20.300  0.00  0.00    +0.000 A 
ATOM     26  C   UNL     1       1.242   8.464  21.167  0.00  0.00    +0.000 A 
ATOM     27  C   UNL     1       0.696   9.643  20.676  0.00  0.00    +0.000 A 
ATOM     28  C   UNL     1       0.793   9.893  19.319  0.00  0.00    +0.000 A 
ATOM     29  N   UNL     1       1.439   9.080  18.455  0.00  0.00    +0.000 NA
ENDBRANCH  23  24
ENDBRANCH   9  23
TORSDOF 5
ENDMDL
MODEL 3
REMARK VINA RESULT:      -8.4      0.639      1.004
REMARK  Name = 
REMARK  6 active torsions:
REMARK  status: ('A' for Active; 'I' for Inactive)
REMARK    1  A    between atoms: C_1  and  C_2
REMARK    2  A    between atoms: C_2  and  N_3
REMARK    3  A    between atoms: C_2  and  C_21
REMARK    4  A    between atoms: N_3  and  C_4
REMARK    5  A    between atoms: N_12  and  C_13
REMARK    6  A    between atoms: C_13  and  C_14
REMARK                            x       y       z     vdW  Elec       q    Type
REMARK                         _______ _______ _______ _____ _____    ______ ____
ROOT
ATOM      1  C   UNL     1       2.926   4.951  20.014  0.00  0.00    +0.000 A 
ATOM      2  N   UNL     1       2.273   4.453  21.103  0.00  0.00    +0.000 NA
ATOM      3  C   UNL     1       2.023   3.147  21.232  0.00  0.00    +0.000 A 
ATOM      4  N   UNL     1       1.276   2.741  22.324  0.00  0.00    +0.000 N 
ATOM      5  N   UNL     1       2.358   2.206  20.375  0.00  0.00    +0.000 NA
ATOM      6  C   UNL     1       2.988   2.655  19.281  0.00  0.00    +0.000 A 
ATOM      7  C   UNL     1       3.460   1.845  18.231  0.00  0.00    +0.000 A 
ATOM      8  C   UNL     1       4.019   2.689  17.314  0.00  0.00    +0.000 A 
ATOM      9  N   UNL     1       3.881   3.992  17.772  0.00  0.00    +0.000 N 
ATOM     10  C   UNL     1       3.279   4.006  19.026  0.00  0.00    +0.000 A 
ATOM     11  H   UNL     1       0.658   3.496  22.589  0.00  0.00    +0.000 HD
ATOM     12  H   UNL     1       0.838   1.861  22.087  0.00  0.00    +0.000 HD
ENDROOT
BRANCH   1  13
ATOM     13  N   UNL     1       3.139   6.329  20.016  0.00  0.00    +0.000 N 
ATOM     14  H   UNL     1       3.549   6.793  20.818  0.00  0.00    +0.000 HD
BRANCH  13  16
ATOM     15  C   UNL     1       2.870   7.870  18.074  0.00  0.00    +0.000 C 
ATOM     16  C   UNL     1       2.179   7.178  19.261  0.00  0.00    +0.000 C 
BRANCH  16  17
ATOM     17  C   UNL     1       1.510   8.262  20.128  0.00  0.00    +0.000 A 
ATOM     18  C   UNL     1       1.043   9.436  19.512  0.00  0.00    +0.000 A 
ATOM     19  C   UNL     1       0.471  10.450  20.287  0.00  0.00    +0.000 A 
ATOM     20  C   UNL     1       0.398  10.286  21.660  0.00  0.00    +0.000 A 
ATOM     21  C   UNL     1       0.901   9.112  22.203  0.00  0.00    +0.000 A 
ATOM     22  N   UNL     1       1.437   8.094  21.478  0.00  0.00    +0.000 NA
ENDBRANCH  16  17
ENDBRANCH  13  16
ENDBRANCH   1  13
BRANCH   9  23
ATOM     23  C   UNL     1       4.381   5.093  16.952  0.00  0.00    +0.000 C 
BRANCH  23  24
ATOM     24  C   UNL     1       5.738   5.508  17.468  0.00  0.00    +0.000 A 
ATOM     25  C   UNL     1       6.454   6.489  16.794  0.00  0.00    +0.000 A 
ATOM     26  C   UNL     1       7.543   7.076  17.421  0.00  0.00    +0.000 A 
ATOM     27  C   UNL     1       7.913   6.650  18.690  0.00  0.00    +0.000 A 
ATOM     28  C   UNL     1       7.199   5.616  19.267  0.00  0.00    +0.000 A 
ATOM     29  N   UNL     1       6.126   5.037  18.687  0.00  0.00    +0.000 NA
ENDBRANCH  23  24
ENDBRANCH   9  23
TORSDOF 5
ENDMDL
MODEL 4
REMARK VINA RESULT:      -8.3      1.665      5.813
REMARK  Name = 
REMARK  6 active torsions:
REMARK  status: ('A' for Active; 'I' for Inactive)
REMARK    1  A    between atoms: C_1  and  C_2
REMARK    2  A    between atoms: C_2  and  N_3
REMARK    3  A    between atoms: C_2  and  C_21
REMARK    4  A    between atoms: N_3  and  C_4
REMARK    5  A    between atoms: N_12  and  C_13
REMARK    6  A    between atoms: C_13  and  C_14
REMARK                            x       y       z     vdW  Elec       q    Type
REMARK                         _______ _______ _______ _____ _____    ______ ____
ROOT
ATOM      1  C   UNL     1       4.194   4.145  19.393  0.00  0.00    +0.000 A 
ATOM      2  N   UNL     1       4.584   2.937  18.896  0.00  0.00    +0.000 NA
ATOM      3  C   UNL     1       3.728   1.917  18.785  0.00  0.00    +0.000 A 
ATOM      4  N   UNL     1       4.230   0.701  18.355  0.00  0.00    +0.000 N 
ATOM      5  N   UNL     1       2.454   1.935  19.116  0.00  0.00    +0.000 NA
ATOM      6  C   UNL     1       2.033   3.100  19.625  0.00  0.00    +0.000 A 
ATOM      7  C   UNL     1       0.715   3.372  20.038  0.00  0.00    +0.000 A 
ATOM      8  C   UNL     1       0.714   4.656  20.505  0.00  0.00    +0.000 A 
ATOM      9  N   UNL     1       2.002   5.163  20.405  0.00  0.00    +0.000 N 
ATOM     10  C   UNL     1       2.848   4.230  19.815  0.00  0.00    +0.000 A 
ATOM     11  H   UNL     1       5.201   0.638  18.633  0.00  0.00    +0.000 HD
ATOM     12  H   UNL     1       3.615  -0.025  18.698  0.00  0.00    +0.000 HD
ENDROOT
BRANCH   1  13
ATOM     13  N   UNL     1       5.182   5.127  19.436  0.00  0.00    +0.000 N 
ATOM     14  H   UNL     1       4.940   6.109  19.501  0.00  0.00    +0.000 HD
BRANCH  13  16
ATOM     15  C   UNL     1       7.566   5.812  19.166  0.00  0.00    +0.000 C 
ATOM     16  C   UNL     1       6.444   4.872  18.691  0.00  0.00    +0.000 C 
BRANCH  16  17
ATOM     17  C   UNL     1       6.296   5.031  17.165  0.00  0.00    +0.000 A 
ATOM     18  C   UNL     1       5.440   6.028  16.664  0.00  0.00    +0.000 A 
ATOM     19  C   UNL     1       5.260   6.162  15.283  0.00  0.00    +0.000 A 
ATOM     20  C   UNL     1       5.915   5.286  14.433  0.00  0.00    +0.000 A 
ATOM     21  C   UNL     1       6.725   4.312  14.999  0.00  0.00    +0.000 A 
ATOM     22  N   UNL     1       6.945   4.171  16.333  0.00  0.00    +0.000 NA
ENDBRANCH  16  17
ENDBRANCH  13  16
ENDBRANCH   1  13
BRANCH   9  23
ATOM     23  C   UNL     1       2.272   6.522  20.868  0.00  0.00    +0.000 C 
BRANCH  23  24
ATOM     24  C   UNL     1       1.982   7.486  19.742  0.00  0.00    +0.000 A 
ATOM     25  C   UNL     1       1.205   8.609  19.989  0.00  0.00    +0.000 A 
ATOM     26  C   UNL     1       1.186   9.634  19.054  0.00  0.00    +0.000 A 
ATOM     27  C   UNL     1       1.917   9.501  17.881  0.00  0.00    +0.000 A 
ATOM     28  C   UNL     1       2.609   8.322  17.670  0.00  0.00    +0.000 A 
ATOM     29  N   UNL     1       2.656   7.315  18.569  0.00  0.00    +0.000 NA
ENDBRANCH  23  24
ENDBRANCH   9  23
TORSDOF 5
ENDMDL
MODEL 5
REMARK VINA RESULT:      -8.2      1.866      6.589
REMARK  Name = 
REMARK  6 active torsions:
REMARK  status: ('A' for Active; 'I' for Inactive)
REMARK    1  A    between atoms: C_1  and  C_2
REMARK    2  A    between atoms: C_2  and  N_3
REMARK    3  A    between atoms: C_2  and  C_21
REMARK    4  A    between atoms: N_3  and  C_4
REMARK    5  A    between atoms: N_12  and  C_13
REMARK    6  A    between atoms: C_13  and  C_14
REMARK                            x       y       z     vdW  Elec       q    Type
REMARK                         _______ _______ _______ _____ _____    ______ ____
ROOT
ATOM      1  C   UNL     1       4.512   4.888  19.041  0.00  0.00    +0.000 A 
ATOM      2  N   UNL     1       5.084   3.667  19.248  0.00  0.00    +0.000 NA
ATOM      3  C   UNL     1       4.463   2.713  19.948  0.00  0.00    +0.000 A 
ATOM      4  N   UNL     1       5.154   1.538  20.185  0.00  0.00    +0.000 N 
ATOM      5  N   UNL     1       3.273   2.809  20.503  0.00  0.00    +0.000 NA
ATOM      6  C   UNL     1       2.682   4.000  20.338  0.00  0.00    +0.000 A 
ATOM      7  C   UNL     1       1.405   4.342  20.822  0.00  0.00    +0.000 A 
ATOM      8  C   UNL     1       1.189   5.640  20.455  0.00  0.00    +0.000 A 
ATOM      9  N   UNL     1       2.310   6.101  19.779  0.00  0.00    +0.000 N 
ATOM     10  C   UNL     1       3.250   5.084  19.646  0.00  0.00    +0.000 A 
ATOM     11  H   UNL     1       6.144   1.746  20.207  0.00  0.00    +0.000 HD
ATOM     12  H   UNL     1       4.764   1.114  21.016  0.00  0.00    +0.000 HD
ENDROOT
BRANCH   1  13
ATOM     13  N   UNL     1       5.259   5.782  18.277  0.00  0.00    +0.000 N 
ATOM     14  H   UNL     1       4.806   6.474  17.691  0.00  0.00    +0.000 HD
BRANCH  13  16
ATOM     15  C   UNL     1       7.669   6.360  17.994  0.00  0.00    +0.000 C 
ATOM     16  C   UNL     1       6.567   5.315  17.747  0.00  0.00    +0.000 C 
BRANCH  16  17
ATOM     17  C   UNL     1       6.536   4.996  16.240  0.00  0.00    +0.000 A 
ATOM     18  C   UNL     1       5.559   4.111  15.750  0.00  0.00    +0.000 A 
ATOM     19  C   UNL     1       5.540   3.776  14.392  0.00  0.00    +0.000 A 
ATOM     20  C   UNL     1       6.508   4.308  13.555  0.00  0.00    +0.000 A 
ATOM     21  C   UNL     1       7.456   5.155  14.112  0.00  0.00    +0.000 A 
ATOM     22  N   UNL     1       7.488   5.524  15.420  0.00  0.00    +0.000 NA
ENDBRANCH  16  17
ENDBRANCH  13  16
ENDBRANCH   1  13
BRANCH   9  23
ATOM     23  C   UNL     1       2.338   7.481  19.301  0.00  0.00    +0.000 C 
BRANCH  23  24
ATOM     24  C   UNL     1       1.442   8.320  20.182  0.00  0.00    +0.000 A 
ATOM     25  C   UNL     1       1.586   8.254  21.561  0.00  0.00    +0.000 A 
ATOM     26  C   UNL     1       0.985   9.226  22.347  0.00  0.00    +0.000 A 
ATOM     27  C   UNL     1       0.228  10.221  21.743  0.00  0.00    +0.000 A 
ATOM     28  C   UNL     1       0.067  10.179  20.370  0.00  0.00    +0.000 A 
ATOM     29  N   UNL     1       0.653   9.254  19.579  0.00  0.00    +0.000 NA
ENDBRANCH  23  24
ENDBRANCH   9  23
TORSDOF 5
ENDMDL
MODEL 6
REMARK VINA RESULT:      -8.1      2.479      6.911
REMARK  Name = 
REMARK  6 active torsions:
REMARK  status: ('A' for Active; 'I' for Inactive)
REMARK    1  A    between atoms: C_1  and  C_2
REMARK    2  A    between atoms: C_2  and  N_3
REMARK    3  A    between atoms: C_2  and  C_21
REMARK    4  A    between atoms: N_3  and  C_4
REMARK    5  A    between atoms: N_12  and  C_13
REMARK    6  A    between atoms: C_13  and  C_14
REMARK                            x       y       z     vdW  Elec       q    Type
REMARK                         _______ _______ _______ _____ _____    ______ ____
ROOT
ATOM      1  C   UNL     1       4.071   4.336  17.515  0.00  0.00    +0.000 A 
ATOM      2  N   UNL     1       4.251   2.986  17.455  0.00  0.00    +0.000 NA
ATOM      3  C   UNL     1       3.660   2.162  18.324  0.00  0.00    +0.000 A 
ATOM      4  N   UNL     1       3.970   0.815  18.245  0.00  0.00    +0.000 N 
ATOM      5  N   UNL     1       2.859   2.517  19.306  0.00  0.00    +0.000 NA
ATOM      6  C   UNL     1       2.668   3.838  19.412  0.00  0.00    +0.000 A 
ATOM      7  C   UNL     1       1.843   4.462  20.367  0.00  0.00    +0.000 A 
ATOM      8  C   UNL     1       1.940   5.806  20.142  0.00  0.00    +0.000 A 
ATOM      9  N   UNL     1       2.817   6.015  19.087  0.00  0.00    +0.000 N 
ATOM     10  C   UNL     1       3.258   4.800  18.573  0.00  0.00    +0.000 A 
ATOM     11  H   UNL     1       4.908   0.722  17.878  0.00  0.00    +0.000 HD
ATOM     12  H   UNL     1       3.799   0.406  19.154  0.00  0.00    +0.000 HD
ENDROOT
BRANCH   1  13
ATOM     13  N   UNL     1       4.730   5.077  16.535  0.00  0.00    +0.000 N 
ATOM     14  H   UNL     1       4.239   5.412  15.715  0.00  0.00    +0.000 HD
BRANCH  13  16
ATOM     15  C   UNL     1       7.070   5.858  16.910  0.00  0.00    +0.000 C 
ATOM     16  C   UNL     1       6.166   4.777  16.291  0.00  0.00    +0.000 C 
BRANCH  16  17
ATOM     17  C   UNL     1       6.519   4.655  14.795  0.00  0.00    +0.000 A 
ATOM     18  C   UNL     1       5.807   3.740  14.000  0.00  0.00    +0.000 A 
ATOM     19  C   UNL     1       6.140   3.584  12.650  0.00  0.00    +0.000 A 
ATOM     20  C   UNL     1       7.188   4.323  12.127  0.00  0.00    +0.000 A 
ATOM     21  C   UNL     1       7.861   5.189  12.977  0.00  0.00    +0.000 A 
ATOM     22  N   UNL     1       7.548   5.387  14.285  0.00  0.00    +0.000 NA
ENDBRANCH  16  17
ENDBRANCH  13  16
ENDBRANCH   1  13
BRANCH   9  23
ATOM     23  C   UNL     1       3.112   7.382  18.664  0.00  0.00    +0.000 C 
BRANCH  23  24
ATOM     24  C   UNL     1       1.907   8.249  18.944  0.00  0.00    +0.000 A 
ATOM     25  C   UNL     1       1.557   8.526  20.259  0.00  0.00    +0.000 A 
ATOM     26  C   UNL     1       0.652   9.547  20.513  0.00  0.00    +0.000 A 
ATOM     27  C   UNL     1       0.093  10.244  19.450  0.00  0.00    +0.000 A 
ATOM     28  C   UNL     1       0.432   9.862  18.165  0.00  0.00    +0.000 A 
ATOM     29  N   UNL     1       1.321   8.883  17.889  0.00  0.00    +0.000 NA
ENDBRANCH  23  24
ENDBRANCH   9  23
TORSDOF 5
ENDMDL
MODEL 7
REMARK VINA RESULT:      -7.7      2.376      6.911
REMARK  Name = 
REMARK  6 active torsions:
REMARK  status: ('A' for Active; 'I' for Inactive)
REMARK    1  A    between atoms: C_1  and  C_2
REMARK    2  A    between atoms: C_2  and  N_3
REMARK    3  A    between atoms: C_2  and  C_21
REMARK    4  A    between atoms: N_3  and  C_4
REMARK    5  A    between atoms: N_12  and  C_13
REMARK    6  A    between atoms: C_13  and  C_14
REMARK                            x       y       z     vdW  Elec       q    Type
REMARK                         _______ _______ _______ _____ _____    ______ ____
ROOT
ATOM      1  C   UNL     1       4.351   5.082  18.013  0.00  0.00    +0.000 A 
ATOM      2  N   UNL     1       4.802   3.842  18.358  0.00  0.00    +0.000 NA
ATOM      3  C   UNL     1       4.297   3.179  19.403  0.00  0.00    +0.000 A 
ATOM      4  N   UNL     1       4.876   1.966  19.734  0.00  0.00    +0.000 N 
ATOM      5  N   UNL     1       3.342   3.605  20.201  0.00  0.00    +0.000 NA
ATOM      6  C   UNL     1       2.881   4.828  19.908  0.00  0.00    +0.000 A 
ATOM      7  C   UNL     1       1.853   5.492  20.603  0.00  0.00    +0.000 A 
ATOM      8  C   UNL     1       1.703   6.708  20.000  0.00  0.00    +0.000 A 
ATOM      9  N   UNL     1       2.628   6.807  18.969  0.00  0.00    +0.000 N 
ATOM     10  C   UNL     1       3.355   5.627  18.853  0.00  0.00    +0.000 A 
ATOM     11  H   UNL     1       5.847   1.986  19.453  0.00  0.00    +0.000 HD
ATOM     12  H   UNL     1       4.694   1.796  20.715  0.00  0.00    +0.000 HD
ENDROOT
BRANCH   1  13
ATOM     13  N   UNL     1       4.950   5.651  16.891  0.00  0.00    +0.000 N 
ATOM     14  H   UNL     1       4.405   5.879  16.067  0.00  0.00    +0.000 HD
BRANCH  13  16
ATOM     15  C   UNL     1       7.329   6.394  16.993  0.00  0.00    +0.000 C 
ATOM     16  C   UNL     1       6.356   5.272  16.590  0.00  0.00    +0.000 C 
BRANCH  16  17
ATOM     17  C   UNL     1       6.595   4.939  15.104  0.00  0.00    +0.000 A 
ATOM     18  C   UNL     1       5.755   4.006  14.471  0.00  0.00    +0.000 A 
ATOM     19  C   UNL     1       5.981   3.660  13.135  0.00  0.00    +0.000 A 
ATOM     20  C   UNL     1       7.051   4.229  12.465  0.00  0.00    +0.000 A 
ATOM     21  C   UNL     1       7.852   5.124  13.160  0.00  0.00    +0.000 A 
ATOM     22  N   UNL     1       7.646   5.505  14.448  0.00  0.00    +0.000 NA
ENDBRANCH  16  17
ENDBRANCH  13  16
ENDBRANCH   1  13
BRANCH   9  23
ATOM     23  C   UNL     1       2.688   8.035  18.180  0.00  0.00    +0.000 C 
BRANCH  23  24
ATOM     24  C   UNL     1       1.627   8.987  18.678  0.00  0.00    +0.000 A 
ATOM     25  C   UNL     1       0.618   9.396  17.817  0.00  0.00    +0.000 A 
ATOM     26  C   UNL     1      -0.505  10.018  18.343  0.00  0.00    +0.000 A 
ATOM     27  C   UNL     1      -0.582  10.246  19.711  0.00  0.00    +0.000 A 
ATOM     28  C   UNL     1       0.495   9.879  20.497  0.00  0.00    +0.000 A 
ATOM     29  N   UNL     1       1.594   9.259  20.014  0.00  0.00    +0.000 NA
ENDBRANCH  23  24
ENDBRANCH   9  23
TORSDOF 5
ENDMDL
MODEL 8
REMARK VINA RESULT:      -7.7      1.458      5.328
REMARK  Name = 
REMARK  6 active torsions:
REMARK  status: ('A' for Active; 'I' for Inactive)
REMARK    1  A    between atoms: C_1  and  C_2
REMARK    2  A    between atoms: C_2  and  N_3
REMARK    3  A    between atoms: C_2  and  C_21
REMARK    4  A    between atoms: N_3  and  C_4
REMARK    5  A    between atoms: N_12  and  C_13
REMARK    6  A    between atoms: C_13  and  C_14
REMARK                            x       y       z     vdW  Elec       q    Type
REMARK                         _______ _______ _______ _____ _____    ______ ____
ROOT
ATOM      1  C   UNL     1       2.028   6.613  20.581  0.00  0.00    +0.000 A 
ATOM      2  N   UNL     1       1.291   7.320  21.485  0.00  0.00    +0.000 NA
ATOM      3  C   UNL     1       0.803   8.530  21.197  0.00  0.00    +0.000 A 
ATOM      4  N   UNL     1       0.144   9.213  22.204  0.00  0.00    +0.000 N 
ATOM      5  N   UNL     1       0.951   9.174  20.059  0.00  0.00    +0.000 NA
ATOM      6  C   UNL     1       1.684   8.521  19.147  0.00  0.00    +0.000 A 
ATOM      7  C   UNL     1       1.970   8.993  17.852  0.00  0.00    +0.000 A 
ATOM      8  C   UNL     1       2.750   8.042  17.258  0.00  0.00    +0.000 A 
ATOM      9  N   UNL     1       2.962   7.014  18.167  0.00  0.00    +0.000 N 
ATOM     10  C   UNL     1       2.270   7.259  19.348  0.00  0.00    +0.000 A 
ATOM     11  H   UNL     1       0.525   8.920  23.094  0.00  0.00    +0.000 HD
ATOM     12  H   UNL     1       0.200  10.200  21.993  0.00  0.00    +0.000 HD
ENDROOT
BRANCH   1  13
ATOM     13  N   UNL     1       2.458   5.357  21.004  0.00  0.00    +0.000 N 
ATOM     14  H   UNL     1       3.443   5.161  21.143  0.00  0.00    +0.000 HD
BRANCH  13  16
ATOM     15  C   UNL     1       1.257   3.311  21.774  0.00  0.00    +0.000 C 
ATOM     16  C   UNL     1       1.670   4.173  20.568  0.00  0.00    +0.000 C 
BRANCH  16  17
ATOM     17  C   UNL     1       2.423   3.273  19.569  0.00  0.00    +0.000 A 
ATOM     18  C   UNL     1       1.850   3.026  18.308  0.00  0.00    +0.000 A 
ATOM     19  C   UNL     1       2.497   2.179  17.403  0.00  0.00    +0.000 A 
ATOM     20  C   UNL     1       3.686   1.575  17.779  0.00  0.00    +0.000 A 
ATOM     21  C   UNL     1       4.179   1.845  19.047  0.00  0.00    +0.000 A 
ATOM     22  N   UNL     1       3.593   2.685  19.942  0.00  0.00    +0.000 NA
ENDBRANCH  16  17
ENDBRANCH  13  16
ENDBRANCH   1  13
BRANCH   9  23
ATOM     23  C   UNL     1       3.795   5.878  17.778  0.00  0.00    +0.000 C 
BRANCH  23  24
ATOM     24  C   UNL     1       5.223   6.162  18.179  0.00  0.00    +0.000 A 
ATOM     25  C   UNL     1       5.779   5.478  19.252  0.00  0.00    +0.000 A 
ATOM     26  C   UNL     1       7.155   5.513  19.431  0.00  0.00    +0.000 A 
ATOM     27  C   UNL     1       7.939   6.253  18.557  0.00  0.00    +0.000 A 
ATOM     28  C   UNL     1       7.307   6.969  17.557  0.00  0.00    +0.000 A 
ATOM     29  N   UNL     1       5.973   6.942  17.350  0.00  0.00    +0.000 NA
ENDBRANCH  23  24
ENDBRANCH   9  23
TORSDOF 5
ENDMDL
MODEL 9
REMARK VINA RESULT:      -7.7      1.940      5.993
REMARK  Name = 
REMARK  6 active torsions:
REMARK  status: ('A' for Active; 'I' for Inactive)
REMARK    1  A    between atoms: C_1  and  C_2
REMARK    2  A    between atoms: C_2  and  N_3
REMARK    3  A    between atoms: C_2  and  C_21
REMARK    4  A    between atoms: N_3  and  C_4
REMARK    5  A    between atoms: N_12  and  C_13
REMARK    6  A    between atoms: C_13  and  C_14
REMARK                            x       y       z     vdW  Elec       q    Type
REMARK                         _______ _______ _______ _____ _____    ______ ____
ROOT
ATOM      1  C   UNL     1       4.944   4.004  16.450  0.00  0.00    +0.000 A 
ATOM      2  N   UNL     1       5.329   3.618  15.200  0.00  0.00    +0.000 NA
ATOM      3  C   UNL     1       6.385   4.167  14.592  0.00  0.00    +0.000 A 
ATOM      4  N   UNL     1       6.649   3.779  13.290  0.00  0.00    +0.000 N 
ATOM      5  N   UNL     1       7.163   5.105  15.088  0.00  0.00    +0.000 NA
ATOM      6  C   UNL     1       6.810   5.526  16.309  0.00  0.00    +0.000 A 
ATOM      7  C   UNL     1       7.492   6.506  17.055  0.00  0.00    +0.000 A 
ATOM      8  C   UNL     1       6.802   6.650  18.225  0.00  0.00    +0.000 A 
ATOM      9  N   UNL     1       5.707   5.797  18.201  0.00  0.00    +0.000 N 
ATOM     10  C   UNL     1       5.705   5.042  17.032  0.00  0.00    +0.000 A 
ATOM     11  H   UNL     1       5.778   3.514  12.850  0.00  0.00    +0.000 HD
ATOM     12  H   UNL     1       7.170   4.524  12.847  0.00  0.00    +0.000 HD
ENDROOT
BRANCH   1  13
ATOM     13  N   UNL     1       3.840   3.336  16.974  0.00  0.00    +0.000 N 
ATOM     14  H   UNL     1       2.906   3.721  16.889  0.00  0.00    +0.000 HD
BRANCH  13  16
ATOM     15  C   UNL     1       4.008   1.022  17.892  0.00  0.00    +0.000 C 
ATOM     16  C   UNL     1       4.041   2.528  18.207  0.00  0.00    +0.000 C 
BRANCH  16  17
ATOM     17  C   UNL     1       2.996   2.814  19.303  0.00  0.00    +0.000 A 
ATOM     18  C   UNL     1       1.737   3.318  18.929  0.00  0.00    +0.000 A 
ATOM     19  C   UNL     1       0.789   3.623  19.911  0.00  0.00    +0.000 A 
ATOM     20  C   UNL     1       1.123   3.446  21.244  0.00  0.00    +0.000 A 
ATOM     21  C   UNL     1       2.391   2.968  21.540  0.00  0.00    +0.000 A 
ATOM     22  N   UNL     1       3.327   2.634  20.612  0.00  0.00    +0.000 NA
ENDBRANCH  16  17
ENDBRANCH  13  16
ENDBRANCH   1  13
BRANCH   9  23
ATOM     23  C   UNL     1       4.789   5.781  19.337  0.00  0.00    +0.000 C 
BRANCH  23  24
ATOM     24  C   UNL     1       3.584   6.628  19.000  0.00  0.00    +0.000 A 
ATOM     25  C   UNL     1       2.603   6.830  19.961  0.00  0.00    +0.000 A 
ATOM     26  C   UNL     1       1.663   7.832  19.763  0.00  0.00    +0.000 A 
ATOM     27  C   UNL     1       1.705   8.586  18.598  0.00  0.00    +0.000 A 
ATOM     28  C   UNL     1       2.665   8.277  17.652  0.00  0.00    +0.000 A 
ATOM     29  N   UNL     1       3.600   7.318  17.825  0.00  0.00    +0.000 NA
ENDBRANCH  23  24
ENDBRANCH   9  23
TORSDOF 5
ENDMDL
