MODEL 1
REMARK VINA RESULT:      -7.9      0.000      0.000
REMARK  Name = 
REMARK  5 active torsions:
REMARK  status: ('A' for Active; 'I' for Inactive)
REMARK    1  A    between atoms: C_1  and  C_2
REMARK    2  A    between atoms: C_2  and  C_3
REMARK    3  A    between atoms: C_9  and  N_10
REMARK    4  A    between atoms: C_11  and  C_13
REMARK    5  A    between atoms: C_19  and  O_20
REMARK                            x       y       z     vdW  Elec       q    Type
REMARK                         _______ _______ _______ _____ _____    ______ ____
ROOT
ATOM      1  C   UNL     1       3.030   4.050  18.303  0.00  0.00    +0.000 A 
ATOM      2  N   UNL     1       3.867   4.877  17.727  0.00  0.00    +0.000 NA
ATOM      3  C   UNL     1       5.085   4.439  18.179  0.00  0.00    +0.000 A 
ATOM      4  N   UNL     1       6.200   5.103  17.801  0.00  0.00    +0.000 N 
ATOM      5  C   UNL     1       6.132   6.218  16.860  0.00  0.00    +0.000 C 
ATOM      6  C   UNL     1       7.295   7.188  17.084  0.00  0.00    +0.000 C 
ATOM      7  C   UNL     1       7.701   7.203  18.562  0.00  0.00    +0.000 C 
ATOM      8  C   UNL     1       8.215   5.805  19.009  0.00  0.00    +0.000 C 
ATOM      9  C   UNL     1       7.532   4.670  18.218  0.00  0.00    +0.000 C 
ATOM     10  N   UNL     1       5.006   3.390  19.010  0.00  0.00    +0.000 NA
ATOM     11  O   UNL     1       3.643   3.122  19.088  0.00  0.00    +0.000 OA
ENDROOT
BRANCH   7  12
ATOM     12  N   UNL     1       8.639   8.279  18.865  0.00  0.00    +0.000 N 
ATOM     13  C   UNL     1       8.514   9.556  18.362  0.00  0.00    +0.000 C 
ATOM     14  O   UNL     1       7.587   9.918  17.648  0.00  0.00    +0.000 OA
ATOM     15  H   UNL     1       9.487   8.073  19.389  0.00  0.00    +0.000 HD
BRANCH  13  16
ATOM     16  C   UNL     1       9.588  10.506  18.752  0.00  0.00    +0.000 A 
ATOM     17  C   UNL     1       9.781  10.785  20.099  0.00  0.00    +0.000 A 
ATOM     18  N   UNL     1      10.764  11.614  20.534  0.00  0.00    +0.000 NA
ATOM     19  C   UNL     1      11.536  12.149  19.559  0.00  0.00    +0.000 A 
ATOM     20  C   UNL     1      11.335  11.879  18.213  0.00  0.00    +0.000 A 
ATOM     21  N   UNL     1      10.362  11.048  17.768  0.00  0.00    +0.000 NA
ENDBRANCH  13  16
ENDBRANCH   7  12
BRANCH   1  23
ATOM     22  C   UNL     1       1.046   2.609  18.612  0.00  0.00    +0.000 C 
ATOM     23  C   UNL     1       1.556   3.981  18.206  0.00  0.00    +0.000 C 
ENDBRANCH   1  23
BRANCH   8  24
ATOM     24  O   UNL     1       7.988   5.653  20.421  0.00  0.00    +0.000 OA
ATOM     25  H   UNL     1       8.775   6.006  20.874  0.00  0.00    +0.000 HD
ENDBRANCH   8  24
TORSDOF 4
ENDMDL
MODEL 2
REMARK VINA RESULT:      -7.8      0.612      1.032
REMARK  Name = 
REMARK  5 active torsions:
REMARK  status: ('A' for Active; 'I' for Inactive)
REMARK    1  A    between atoms: C_1  and  C_2
REMARK    2  A    between atoms: C_2  and  C_3
REMARK    3  A    between atoms: C_9  and  N_10
REMARK    4  A    between atoms: C_11  and  C_13
REMARK    5  A    between atoms: C_19  and  O_20
REMARK                            x       y       z     vdW  Elec       q    Type
REMARK                         _______ _______ _______ _____ _____    ______ ____
ROOT
ATOM      1  C   UNL     1       3.184   3.917  18.107  0.00  0.00    +0.000 A 
ATOM      2  N   UNL     1       4.047   4.737  17.558  0.00  0.00    +0.000 NA
ATOM      3  C   UNL     1       5.237   4.335  18.110  0.00  0.00    +0.000 A 
ATOM      4  N   UNL     1       6.366   5.004  17.784  0.00  0.00    +0.000 N 
ATOM      5  C   UNL     1       6.348   6.082  16.799  0.00  0.00    +0.000 C 
ATOM      6  C   UNL     1       7.479   7.078  17.065  0.00  0.00    +0.000 C 
ATOM      7  C   UNL     1       7.781   7.154  18.565  0.00  0.00    +0.000 C 
ATOM      8  C   UNL     1       8.283   5.783  19.100  0.00  0.00    +0.000 C 
ATOM      9  C   UNL     1       7.672   4.609  18.308  0.00  0.00    +0.000 C 
ATOM     10  N   UNL     1       5.115   3.317  18.972  0.00  0.00    +0.000 NA
ATOM     11  O   UNL     1       3.754   3.030  18.967  0.00  0.00    +0.000 OA
ENDROOT
BRANCH   7  12
ATOM     12  N   UNL     1       8.681   8.257  18.891  0.00  0.00    +0.000 N 
ATOM     13  C   UNL     1       8.521   9.535  18.400  0.00  0.00    +0.000 C 
ATOM     14  O   UNL     1       7.593   9.874  17.678  0.00  0.00    +0.000 OA
ATOM     15  H   UNL     1       9.528   8.072  19.424  0.00  0.00    +0.000 HD
BRANCH  13  16
ATOM     16  C   UNL     1       9.560  10.513  18.813  0.00  0.00    +0.000 A 
ATOM     17  C   UNL     1      10.271  11.193  17.832  0.00  0.00    +0.000 A 
ATOM     18  N   UNL     1      11.210  12.125  18.132  0.00  0.00    +0.000 NA
ATOM     19  C   UNL     1      11.404  12.339  19.455  0.00  0.00    +0.000 A 
ATOM     20  C   UNL     1      10.702  11.651  20.434  0.00  0.00    +0.000 A 
ATOM     21  N   UNL     1       9.758  10.723  20.147  0.00  0.00    +0.000 NA
ENDBRANCH  13  16
ENDBRANCH   7  12
BRANCH   1  23
ATOM     22  C   UNL     1       1.056   3.141  19.096  0.00  0.00    +0.000 C 
ATOM     23  C   UNL     1       1.721   3.820  17.911  0.00  0.00    +0.000 C 
ENDBRANCH   1  23
BRANCH   8  24
ATOM     24  O   UNL     1       7.960   5.680  20.498  0.00  0.00    +0.000 OA
ATOM     25  H   UNL     1       7.729   4.749  20.667  0.00  0.00    +0.000 HD
ENDBRANCH   8  24
TORSDOF 4
ENDMDL
MODEL 3
REMARK VINA RESULT:      -6.9      3.271      9.193
REMARK  Name = 
REMARK  5 active torsions:
REMARK  status: ('A' for Active; 'I' for Inactive)
REMARK    1  A    between atoms: C_1  and  C_2
REMARK    2  A    between atoms: C_2  and  C_3
REMARK    3  A    between atoms: C_9  and  N_10
REMARK    4  A    between atoms: C_11  and  C_13
REMARK    5  A    between atoms: C_19  and  O_20
REMARK                            x       y       z     vdW  Elec       q    Type
REMARK                         _______ _______ _______ _____ _____    ______ ____
ROOT
ATOM      1  C   UNL     1       9.428  16.278  19.486  0.00  0.00    +0.000 A 
ATOM      2  N   UNL     1       9.217  15.129  20.078  0.00  0.00    +0.000 NA
ATOM      3  C   UNL     1      10.266  14.364  19.637  0.00  0.00    +0.000 A 
ATOM      4  N   UNL     1      10.347  13.073  20.034  0.00  0.00    +0.000 N 
ATOM      5  C   UNL     1       9.388  12.514  20.982  0.00  0.00    +0.000 C 
ATOM      6  C   UNL     1       9.243  11.004  20.780  0.00  0.00    +0.000 C 
ATOM      7  C   UNL     1       9.460  10.640  19.307  0.00  0.00    +0.000 C 
ATOM      8  C   UNL     1      10.904  10.997  18.855  0.00  0.00    +0.000 C 
ATOM      9  C   UNL     1      11.455  12.212  19.629  0.00  0.00    +0.000 C 
ATOM     10  N   UNL     1      11.088  15.009  18.798  0.00  0.00    +0.000 NA
ATOM     11  O   UNL     1      10.540  16.284  18.701  0.00  0.00    +0.000 OA
ENDROOT
BRANCH   7  12
ATOM     12  N   UNL     1       9.101   9.253  19.023  0.00  0.00    +0.000 N 
ATOM     13  C   UNL     1       8.171   8.892  18.071  0.00  0.00    +0.000 C 
ATOM     14  O   UNL     1       7.590   9.693  17.351  0.00  0.00    +0.000 OA
ATOM     15  H   UNL     1       9.467   8.509  19.612  0.00  0.00    +0.000 HD
BRANCH  13  16
ATOM     16  C   UNL     1       7.911   7.434  17.953  0.00  0.00    +0.000 A 
ATOM     17  C   UNL     1       8.132   6.620  19.056  0.00  0.00    +0.000 A 
ATOM     18  N   UNL     1       7.884   5.287  19.034  0.00  0.00    +0.000 NA
ATOM     19  C   UNL     1       7.411   4.810  17.859  0.00  0.00    +0.000 A 
ATOM     20  C   UNL     1       7.201   5.622  16.753  0.00  0.00    +0.000 A 
ATOM     21  N   UNL     1       7.439   6.955  16.765  0.00  0.00    +0.000 NA
ENDBRANCH  13  16
ENDBRANCH   7  12
BRANCH   1  23
ATOM     22  C   UNL     1       7.186  17.292  19.256  0.00  0.00    +0.000 C 
ATOM     23  C   UNL     1       8.653  17.536  19.565  0.00  0.00    +0.000 C 
ENDBRANCH   1  23
BRANCH   8  24
ATOM     24  O   UNL     1      10.902  11.250  17.439  0.00  0.00    +0.000 OA
ATOM     25  H   UNL     1      10.875  10.383  16.997  0.00  0.00    +0.000 HD
ENDBRANCH   8  24
TORSDOF 4
ENDMDL
MODEL 4
REMARK VINA RESULT:      -6.9      1.844      8.621
REMARK  Name = 
REMARK  5 active torsions:
REMARK  status: ('A' for Active; 'I' for Inactive)
REMARK    1  A    between atoms: C_1  and  C_2
REMARK    2  A    between atoms: C_2  and  C_3
REMARK    3  A    between atoms: C_9  and  N_10
REMARK    4  A    between atoms: C_11  and  C_13
REMARK    5  A    between atoms: C_19  and  O_20
REMARK                            x       y       z     vdW  Elec       q    Type
REMARK                         _______ _______ _______ _____ _____    ______ ____
ROOT
ATOM      1  C   UNL     1       9.206  10.390  19.219  0.00  0.00    +0.000 A 
ATOM      2  N   UNL     1       8.977   9.109  19.377  0.00  0.00    +0.000 NA
ATOM      3  C   UNL     1       8.324   8.774  18.219  0.00  0.00    +0.000 A 
ATOM      4  N   UNL     1       7.897   7.501  18.054  0.00  0.00    +0.000 N 
ATOM      5  C   UNL     1       8.193   6.472  19.046  0.00  0.00    +0.000 C 
ATOM      6  C   UNL     1       7.128   5.373  19.021  0.00  0.00    +0.000 C 
ATOM      7  C   UNL     1       5.769   5.957  18.621  0.00  0.00    +0.000 C 
ATOM      8  C   UNL     1       5.818   6.538  17.180  0.00  0.00    +0.000 C 
ATOM      9  C   UNL     1       7.225   7.068  16.831  0.00  0.00    +0.000 C 
ATOM     10  N   UNL     1       8.145   9.806  17.382  0.00  0.00    +0.000 NA
ATOM     11  O   UNL     1       8.738  10.880  18.039  0.00  0.00    +0.000 OA
ENDROOT
BRANCH   7  12
ATOM     12  N   UNL     1       4.680   5.002  18.813  0.00  0.00    +0.000 N 
ATOM     13  C   UNL     1       3.393   5.377  19.134  0.00  0.00    +0.000 C 
ATOM     14  O   UNL     1       3.033   6.542  19.251  0.00  0.00    +0.000 OA
ATOM     15  H   UNL     1       4.882   4.005  18.812  0.00  0.00    +0.000 HD
BRANCH  13  16
ATOM     16  C   UNL     1       2.432   4.261  19.327  0.00  0.00    +0.000 A 
ATOM     17  C   UNL     1       1.716   3.794  18.232  0.00  0.00    +0.000 A 
ATOM     18  N   UNL     1       0.847   2.757  18.323  0.00  0.00    +0.000 NA
ATOM     19  C   UNL     1       0.727   2.216  19.558  0.00  0.00    +0.000 A 
ATOM     20  C   UNL     1       1.433   2.690  20.654  0.00  0.00    +0.000 A 
ATOM     21  N   UNL     1       2.309   3.720  20.574  0.00  0.00    +0.000 NA
ENDBRANCH  13  16
ENDBRANCH   7  12
BRANCH   1  23
ATOM     22  C   UNL     1      11.273  11.695  19.581  0.00  0.00    +0.000 C 
ATOM     23  C   UNL     1       9.896  11.341  20.116  0.00  0.00    +0.000 C 
ENDBRANCH   1  23
BRANCH   8  24
ATOM     24  O   UNL     1       4.835   7.582  17.062  0.00  0.00    +0.000 OA
ATOM     25  H   UNL     1       3.982   7.198  17.331  0.00  0.00    +0.000 HD
ENDBRANCH   8  24
TORSDOF 4
ENDMDL
MODEL 5
REMARK VINA RESULT:      -6.8      5.565      9.126
REMARK  Name = 
REMARK  5 active torsions:
REMARK  status: ('A' for Active; 'I' for Inactive)
REMARK    1  A    between atoms: C_1  and  C_2
REMARK    2  A    between atoms: C_2  and  C_3
REMARK    3  A    between atoms: C_9  and  N_10
REMARK    4  A    between atoms: C_11  and  C_13
REMARK    5  A    between atoms: C_19  and  O_20
REMARK                            x       y       z     vdW  Elec       q    Type
REMARK                         _______ _______ _______ _____ _____    ______ ____
ROOT
ATOM      1  C   UNL     1       2.446  13.754  20.013  0.00  0.00    +0.000 A 
ATOM      2  N   UNL     1       2.191  12.694  19.286  0.00  0.00    +0.000 NA
ATOM      3  C   UNL     1       1.473  11.903  20.147  0.00  0.00    +0.000 A 
ATOM      4  N   UNL     1       1.064  10.684  19.727  0.00  0.00    +0.000 N 
ATOM      5  C   UNL     1       1.302  10.238  18.357  0.00  0.00    +0.000 C 
ATOM      6  C   UNL     1       1.382   8.711  18.290  0.00  0.00    +0.000 C 
ATOM      7  C   UNL     1       1.956   8.150  19.595  0.00  0.00    +0.000 C 
ATOM      8  C   UNL     1       1.025   8.478  20.796  0.00  0.00    +0.000 C 
ATOM      9  C   UNL     1       0.268   9.805  20.580  0.00  0.00    +0.000 C 
ATOM     10  N   UNL     1       1.300  12.445  21.360  0.00  0.00    +0.000 NA
ATOM     11  O   UNL     1       1.937  13.679  21.273  0.00  0.00    +0.000 OA
ENDROOT
BRANCH   7  12
ATOM     12  N   UNL     1       2.272   6.728  19.491  0.00  0.00    +0.000 N 
ATOM     13  C   UNL     1       3.242   6.228  18.649  0.00  0.00    +0.000 C 
ATOM     14  O   UNL     1       3.953   6.928  17.940  0.00  0.00    +0.000 OA
ATOM     15  H   UNL     1       1.694   6.048  19.980  0.00  0.00    +0.000 HD
BRANCH  13  16
ATOM     16  C   UNL     1       3.393   4.749  18.654  0.00  0.00    +0.000 A 
ATOM     17  C   UNL     1       3.234   4.062  19.850  0.00  0.00    +0.000 A 
ATOM     18  N   UNL     1       3.322   2.710  19.926  0.00  0.00    +0.000 NA
ATOM     19  C   UNL     1       3.581   2.085  18.754  0.00  0.00    +0.000 A 
ATOM     20  C   UNL     1       3.751   2.774  17.562  0.00  0.00    +0.000 A 
ATOM     21  N   UNL     1       3.658   4.122  17.472  0.00  0.00    +0.000 NA
ENDBRANCH  13  16
ENDBRANCH   7  12
BRANCH   1  23
ATOM     22  C   UNL     1       3.279  15.143  18.148  0.00  0.00    +0.000 C 
ATOM     23  C   UNL     1       3.177  14.989  19.655  0.00  0.00    +0.000 C 
ENDBRANCH   1  23
BRANCH   8  24
ATOM     24  O   UNL     1       1.813   8.529  21.999  0.00  0.00    +0.000 OA
ATOM     25  H   UNL     1       2.733   8.695  21.727  0.00  0.00    +0.000 HD
ENDBRANCH   8  24
TORSDOF 4
ENDMDL
MODEL 6
REMARK VINA RESULT:      -6.7      6.066      9.746
REMARK  Name = 
REMARK  5 active torsions:
REMARK  status: ('A' for Active; 'I' for Inactive)
REMARK    1  A    between atoms: C_1  and  C_2
REMARK    2  A    between atoms: C_2  and  C_3
REMARK    3  A    between atoms: C_9  and  N_10
REMARK    4  A    between atoms: C_11  and  C_13
REMARK    5  A    between atoms: C_19  and  O_20
REMARK                            x       y       z     vdW  Elec       q    Type
REMARK                         _______ _______ _______ _____ _____    ______ ____
ROOT
ATOM      1  C   UNL     1       2.835  14.231  19.815  0.00  0.00    +0.000 A 
ATOM      2  N   UNL     1       2.355  13.116  19.322  0.00  0.00    +0.000 NA
ATOM      3  C   UNL     1       1.652  12.597  20.379  0.00  0.00    +0.000 A 
ATOM      4  N   UNL     1       1.038  11.401  20.232  0.00  0.00    +0.000 N 
ATOM      5  C   UNL     1       1.045  10.702  18.950  0.00  0.00    +0.000 C 
ATOM      6  C   UNL     1       0.914   9.191  19.155  0.00  0.00    +0.000 C 
ATOM      7  C   UNL     1       1.566   8.775  20.478  0.00  0.00    +0.000 C 
ATOM      8  C   UNL     1       0.842   9.435  21.684  0.00  0.00    +0.000 C 
ATOM      9  C   UNL     1       0.244  10.807  21.305  0.00  0.00    +0.000 C 
ATOM     10  N   UNL     1       1.702  13.354  21.484  0.00  0.00    +0.000 NA
ATOM     11  O   UNL     1       2.480  14.445  21.111  0.00  0.00    +0.000 OA
ENDROOT
BRANCH   7  12
ATOM     12  N   UNL     1       1.678   7.324  20.605  0.00  0.00    +0.000 N 
ATOM     13  C   UNL     1       2.422   6.545  19.747  0.00  0.00    +0.000 C 
ATOM     14  O   UNL     1       3.088   6.995  18.823  0.00  0.00    +0.000 OA
ATOM     15  H   UNL     1       1.108   6.836  21.292  0.00  0.00    +0.000 HD
BRANCH  13  16
ATOM     16  C   UNL     1       2.383   5.083  20.014  0.00  0.00    +0.000 A 
ATOM     17  C   UNL     1       1.236   4.532  20.569  0.00  0.00    +0.000 A 
ATOM     18  N   UNL     1       1.113   3.203  20.808  0.00  0.00    +0.000 NA
ATOM     19  C   UNL     1       2.192   2.457  20.471  0.00  0.00    +0.000 A 
ATOM     20  C   UNL     1       3.343   3.010  19.928  0.00  0.00    +0.000 A 
ATOM     21  N   UNL     1       3.474   4.335  19.678  0.00  0.00    +0.000 NA
ENDBRANCH  13  16
ENDBRANCH   7  12
BRANCH   1  23
ATOM     22  C   UNL     1       3.053  15.726  17.859  0.00  0.00    +0.000 C 
ATOM     23  C   UNL     1       3.672  15.264  19.166  0.00  0.00    +0.000 C 
ENDBRANCH   1  23
BRANCH   8  24
ATOM     24  O   UNL     1       1.772   9.567  22.774  0.00  0.00    +0.000 OA
ATOM     25  H   UNL     1       1.640   8.796  23.353  0.00  0.00    +0.000 HD
ENDBRANCH   8  24
TORSDOF 4
ENDMDL
MODEL 7
REMARK VINA RESULT:      -6.7      5.747      9.338
REMARK  Name = 
REMARK  5 active torsions:
REMARK  status: ('A' for Active; 'I' for Inactive)
REMARK    1  A    between atoms: C_1  and  C_2
REMARK    2  A    between atoms: C_2  and  C_3
REMARK    3  A    between atoms: C_9  and  N_10
REMARK    4  A    between atoms: C_11  and  C_13
REMARK    5  A    between atoms: C_19  and  O_20
REMARK                            x       y       z     vdW  Elec       q    Type
REMARK                         _______ _______ _______ _____ _____    ______ ____
ROOT
ATOM      1  C   UNL     1       2.430  13.884  20.183  0.00  0.00    +0.000 A 
ATOM      2  N   UNL     1       2.146  12.869  19.405  0.00  0.00    +0.000 NA
ATOM      3  C   UNL     1       1.416  12.051  20.230  0.00  0.00    +0.000 A 
ATOM      4  N   UNL     1       0.976  10.865  19.752  0.00  0.00    +0.000 N 
ATOM      5  C   UNL     1       1.195  10.484  18.359  0.00  0.00    +0.000 C 
ATOM      6  C   UNL     1       1.239   8.961  18.213  0.00  0.00    +0.000 C 
ATOM      7  C   UNL     1       1.809   8.321  19.484  0.00  0.00    +0.000 C 
ATOM      8  C   UNL     1       0.893   8.608  20.708  0.00  0.00    +0.000 C 
ATOM      9  C   UNL     1       0.166   9.961  20.565  0.00  0.00    +0.000 C 
ATOM     10  N   UNL     1       1.263  12.534  21.470  0.00  0.00    +0.000 NA
ATOM     11  O   UNL     1       1.928  13.756  21.442  0.00  0.00    +0.000 OA
ENDROOT
BRANCH   7  12
ATOM     12  N   UNL     1       2.091   6.899  19.306  0.00  0.00    +0.000 N 
ATOM     13  C   UNL     1       3.064   6.422  18.453  0.00  0.00    +0.000 C 
ATOM     14  O   UNL     1       3.805   7.143  17.797  0.00  0.00    +0.000 OA
ATOM     15  H   UNL     1       1.487   6.208  19.746  0.00  0.00    +0.000 HD
BRANCH  13  16
ATOM     16  C   UNL     1       3.178   4.943  18.377  0.00  0.00    +0.000 A 
ATOM     17  C   UNL     1       2.249   4.235  17.626  0.00  0.00    +0.000 A 
ATOM     18  N   UNL     1       2.309   2.887  17.481  0.00  0.00    +0.000 NA
ATOM     19  C   UNL     1       3.336   2.287  18.127  0.00  0.00    +0.000 A 
ATOM     20  C   UNL     1       4.257   2.993  18.887  0.00  0.00    +0.000 A 
ATOM     21  N   UNL     1       4.211   4.339  19.033  0.00  0.00    +0.000 NA
ENDBRANCH  13  16
ENDBRANCH   7  12
BRANCH   1  23
ATOM     22  C   UNL     1       2.935  16.183  20.936  0.00  0.00    +0.000 C 
ATOM     23  C   UNL     1       3.187  15.119  19.882  0.00  0.00    +0.000 C 
ENDBRANCH   1  23
BRANCH   8  24
ATOM     24  O   UNL     1       1.690   8.580  21.905  0.00  0.00    +0.000 OA
ATOM     25  H   UNL     1       2.606   8.777  21.640  0.00  0.00    +0.000 HD
ENDBRANCH   8  24
TORSDOF 4
ENDMDL
MODEL 8
REMARK VINA RESULT:      -6.6      5.623      9.378
REMARK  Name = 
REMARK  5 active torsions:
REMARK  status: ('A' for Active; 'I' for Inactive)
REMARK    1  A    between atoms: C_1  and  C_2
REMARK    2  A    between atoms: C_2  and  C_3
REMARK    3  A    between atoms: C_9  and  N_10
REMARK    4  A    between atoms: C_11  and  C_13
REMARK    5  A    between atoms: C_19  and  O_20
REMARK                            x       y       z     vdW  Elec       q    Type
REMARK                         _______ _______ _______ _____ _____    ______ ____
ROOT
ATOM      1  C   UNL     1       2.836  13.930  18.526  0.00  0.00    +0.000 A 
ATOM      2  N   UNL     1       2.582  12.703  18.140  0.00  0.00    +0.000 NA
ATOM      3  C   UNL     1       1.669  12.277  19.070  0.00  0.00    +0.000 A 
ATOM      4  N   UNL     1       1.203  11.009  18.995  0.00  0.00    +0.000 N 
ATOM      5  C   UNL     1       1.592  10.126  17.900  0.00  0.00    +0.000 C 
ATOM      6  C   UNL     1       1.523   8.660  18.335  0.00  0.00    +0.000 C 
ATOM      7  C   UNL     1       1.838   8.533  19.830  0.00  0.00    +0.000 C 
ATOM      8  C   UNL     1       0.780   9.284  20.685  0.00  0.00    +0.000 C 
ATOM      9  C   UNL     1       0.203  10.501  19.932  0.00  0.00    +0.000 C 
ATOM     10  N   UNL     1       1.376  13.197  20.000  0.00  0.00    +0.000 NA
ATOM     11  O   UNL     1       2.143  14.300  19.637  0.00  0.00    +0.000 OA
ENDROOT
BRANCH   7  12
ATOM     12  N   UNL     1       2.018   7.142  20.239  0.00  0.00    +0.000 N 
ATOM     13  C   UNL     1       2.865   6.267  19.593  0.00  0.00    +0.000 C 
ATOM     14  O   UNL     1       3.572   6.581  18.644  0.00  0.00    +0.000 OA
ATOM     15  H   UNL     1       1.426   6.753  20.969  0.00  0.00    +0.000 HD
BRANCH  13  16
ATOM     16  C   UNL     1       2.885   4.882  20.132  0.00  0.00    +0.000 A 
ATOM     17  C   UNL     1       3.708   3.940  19.530  0.00  0.00    +0.000 A 
ATOM     18  N   UNL     1       3.806   2.666  19.987  0.00  0.00    +0.000 NA
ATOM     19  C   UNL     1       3.040   2.383  21.066  0.00  0.00    +0.000 A 
ATOM     20  C   UNL     1       2.209   3.323  21.660  0.00  0.00    +0.000 A 
ATOM     21  N   UNL     1       2.108   4.598  21.217  0.00  0.00    +0.000 NA
ENDBRANCH  13  16
ENDBRANCH   7  12
BRANCH   1  23
ATOM     22  C   UNL     1       5.183  14.486  17.988  0.00  0.00    +0.000 C 
ATOM     23  C   UNL     1       3.735  14.939  17.926  0.00  0.00    +0.000 C 
ENDBRANCH   1  23
BRANCH   8  24
ATOM     24  O   UNL     1       1.383   9.691  21.926  0.00  0.00    +0.000 OA
ATOM     25  H   UNL     1       0.987  10.547  22.167  0.00  0.00    +0.000 HD
ENDBRANCH   8  24
TORSDOF 4
ENDMDL
MODEL 9
REMARK VINA RESULT:      -6.6      1.958      8.467
REMARK  Name = 
REMARK  5 active torsions:
REMARK  status: ('A' for Active; 'I' for Inactive)
REMARK    1  A    between atoms: C_1  and  C_2
REMARK    2  A    between atoms: C_2  and  C_3
REMARK    3  A    between atoms: C_9  and  N_10
REMARK    4  A    between atoms: C_11  and  C_13
REMARK    5  A    between atoms: C_19  and  O_20
REMARK                            x       y       z     vdW  Elec       q    Type
REMARK                         _______ _______ _______ _____ _____    ______ ____
ROOT
ATOM      1  C   UNL     1       9.186  10.365  19.010  0.00  0.00    +0.000 A 
ATOM      2  N   UNL     1       8.967   9.092  19.233  0.00  0.00    +0.000 NA
ATOM      3  C   UNL     1       8.282   8.702  18.111  0.00  0.00    +0.000 A 
ATOM      4  N   UNL     1       7.856   7.422  18.017  0.00  0.00    +0.000 N 
ATOM      5  C   UNL     1       8.185   6.440  19.046  0.00  0.00    +0.000 C 
ATOM      6  C   UNL     1       7.125   5.338  19.103  0.00  0.00    +0.000 C 
ATOM      7  C   UNL     1       5.752   5.899  18.716  0.00  0.00    +0.000 C 
ATOM      8  C   UNL     1       5.757   6.413  17.248  0.00  0.00    +0.000 C 
ATOM      9  C   UNL     1       7.151   6.931  16.835  0.00  0.00    +0.000 C 
ATOM     10  N   UNL     1       8.075   9.694  17.233  0.00  0.00    +0.000 NA
ATOM     11  O   UNL     1       8.682  10.798  17.823  0.00  0.00    +0.000 OA
ENDROOT
BRANCH   7  12
ATOM     12  N   UNL     1       4.674   4.951  18.982  0.00  0.00    +0.000 N 
ATOM     13  C   UNL     1       3.406   5.335  19.362  0.00  0.00    +0.000 C 
ATOM     14  O   UNL     1       3.054   6.503  19.474  0.00  0.00    +0.000 OA
ATOM     15  H   UNL     1       4.873   3.953  18.992  0.00  0.00    +0.000 HD
BRANCH  13  16
ATOM     16  C   UNL     1       2.453   4.225  19.626  0.00  0.00    +0.000 A 
ATOM     17  C   UNL     1       2.158   3.893  20.942  0.00  0.00    +0.000 A 
ATOM     18  N   UNL     1       1.272   2.916  21.261  0.00  0.00    +0.000 NA
ATOM     19  C   UNL     1       0.705   2.288  20.204  0.00  0.00    +0.000 A 
ATOM     20  C   UNL     1       1.011   2.612  18.890  0.00  0.00    +0.000 A 
ATOM     21  N   UNL     1       1.887   3.590  18.559  0.00  0.00    +0.000 NA
ENDBRANCH  13  16
ENDBRANCH   7  12
BRANCH   1  23
ATOM     22  C   UNL     1       9.273  11.462  21.223  0.00  0.00    +0.000 C 
ATOM     23  C   UNL     1       9.898  11.358  19.842  0.00  0.00    +0.000 C 
ENDBRANCH   1  23
BRANCH   8  24
ATOM     24  O   UNL     1       4.767   7.448  17.111  0.00  0.00    +0.000 OA
ATOM     25  H   UNL     1       3.906   7.045  17.324  0.00  0.00    +0.000 HD
ENDBRANCH   8  24
TORSDOF 4
ENDMDL
