MODEL 1
REMARK VINA RESULT:      -7.5      0.000      0.000
REMARK  Name = 
REMARK  8 active torsions:
REMARK  status: ('A' for Active; 'I' for Inactive)
REMARK    1  A    between atoms: C_2  and  C_3
REMARK    2  A    between atoms: C_3  and  N_4
REMARK    3  A    between atoms: N_4  and  C_5
REMARK    4  A    between atoms: C_5  and  C_6
REMARK    5  A    between atoms: C_8  and  C_10
REMARK    6  A    between atoms: C_12  and  N_13
REMARK    7  A    between atoms: C_23  and  O_24
REMARK    8  A    between atoms: C_25  and  O_26
REMARK                            x       y       z     vdW  Elec       q    Type
REMARK                         _______ _______ _______ _____ _____    ______ ____
ROOT
ATOM      1  C   UNL     1       4.271   4.410  18.902  0.00  0.00    +0.000 C 
ATOM      2  O   UNL     1       4.179   5.819  19.159  0.00  0.00    +0.000 OA
ATOM      3  C   UNL     1       2.880   6.110  19.698  0.00  0.00    +0.000 C 
ATOM      4  C   UNL     1       1.981   4.902  19.467  0.00  0.00    +0.000 C 
ATOM      5  C   UNL     1       2.989   3.764  19.441  0.00  0.00    +0.000 C 
ENDROOT
BRANCH   3   6
ATOM      6  N   UNL     1       2.400   7.361  19.152  0.00  0.00    +0.000 N 
ATOM      7  C   UNL     1       2.653   7.809  17.881  0.00  0.00    +0.000 A 
ATOM      8  N   UNL     1       2.082   8.970  17.640  0.00  0.00    +0.000 NA
ATOM      9  C   UNL     1       1.445   9.296  18.819  0.00  0.00    +0.000 A 
ATOM     10  C   UNL     1       0.674  10.407  19.199  0.00  0.00    +0.000 A 
ATOM     11  N   UNL     1       0.420  11.477  18.351  0.00  0.00    +0.000 N 
ATOM     12  N   UNL     1       0.138  10.426  20.441  0.00  0.00    +0.000 NA
ATOM     13  C   UNL     1       0.401   9.388  21.267  0.00  0.00    +0.000 A 
ATOM     14  N   UNL     1       1.131   8.281  21.019  0.00  0.00    +0.000 NA
ATOM     15  C   UNL     1       1.621   8.301  19.769  0.00  0.00    +0.000 A 
ATOM     16  H   UNL     1       0.549  11.255  17.370  0.00  0.00    +0.000 HD
ATOM     17  H   UNL     1      -0.409  11.992  18.617  0.00  0.00    +0.000 HD
ENDBRANCH   3   6
BRANCH   1  19
ATOM     18  N   UNL     1       5.867   4.158  16.968  0.00  0.00    +0.000 N 
ATOM     19  C   UNL     1       4.550   4.055  17.422  0.00  0.00    +0.000 C 
ATOM     20  O   UNL     1       3.643   3.627  16.702  0.00  0.00    +0.000 OA
BRANCH  18  21
ATOM     21  C   UNL     1       6.181   3.668  15.629  0.00  0.00    +0.000 C 
BRANCH  21  23
ATOM     22  C   UNL     1       7.213   4.985  13.662  0.00  0.00    +0.000 C 
ATOM     23  C   UNL     1       6.267   4.748  14.582  0.00  0.00    +0.000 C 
ENDBRANCH  21  23
ENDBRANCH  18  21
BRANCH  18  24
ATOM     24  C   UNL     1       6.968   4.739  17.736  0.00  0.00    +0.000 C 
BRANCH  24  25
ATOM     25  C   UNL     1       7.173   6.211  17.498  0.00  0.00    +0.000 C 
ATOM     26  C   UNL     1       7.900   7.102  18.189  0.00  0.00    +0.000 C 
ENDBRANCH  24  25
ENDBRANCH  18  24
ENDBRANCH   1  19
BRANCH   4  27
ATOM     27  O   UNL     1       1.040   4.740  20.535  0.00  0.00    +0.000 OA
ATOM     28  H   UNL     1       1.032   3.783  20.753  0.00  0.00    +0.000 HD
ENDBRANCH   4  27
BRANCH   5  29
ATOM     29  O   UNL     1       3.164   3.280  20.794  0.00  0.00    +0.000 OA
ATOM     30  H   UNL     1       3.766   2.513  20.784  0.00  0.00    +0.000 HD
ENDBRANCH   5  29
TORSDOF 8
ENDMDL
MODEL 2
REMARK VINA RESULT:      -6.9      1.377      2.349
REMARK  Name = 
REMARK  8 active torsions:
REMARK  status: ('A' for Active; 'I' for Inactive)
REMARK    1  A    between atoms: C_2  and  C_3
REMARK    2  A    between atoms: C_3  and  N_4
REMARK    3  A    between atoms: N_4  and  C_5
REMARK    4  A    between atoms: C_5  and  C_6
REMARK    5  A    between atoms: C_8  and  C_10
REMARK    6  A    between atoms: C_12  and  N_13
REMARK    7  A    between atoms: C_23  and  O_24
REMARK    8  A    between atoms: C_25  and  O_26
REMARK                            x       y       z     vdW  Elec       q    Type
REMARK                         _______ _______ _______ _____ _____    ______ ____
ROOT
ATOM      1  C   UNL     1       4.844   3.523  18.051  0.00  0.00    +0.000 C 
ATOM      2  O   UNL     1       4.575   4.498  19.069  0.00  0.00    +0.000 OA
ATOM      3  C   UNL     1       3.284   4.233  19.639  0.00  0.00    +0.000 C 
ATOM      4  C   UNL     1       2.546   3.259  18.728  0.00  0.00    +0.000 C 
ATOM      5  C   UNL     1       3.698   2.505  18.081  0.00  0.00    +0.000 C 
ENDROOT
BRANCH   3   6
ATOM      6  N   UNL     1       2.604   5.483  19.899  0.00  0.00    +0.000 N 
ATOM      7  C   UNL     1       1.845   5.744  21.011  0.00  0.00    +0.000 A 
ATOM      8  N   UNL     1       1.355   6.966  21.003  0.00  0.00    +0.000 NA
ATOM      9  C   UNL     1       1.804   7.513  19.818  0.00  0.00    +0.000 A 
ATOM     10  C   UNL     1       1.617   8.775  19.231  0.00  0.00    +0.000 A 
ATOM     11  N   UNL     1       0.848   9.774  19.814  0.00  0.00    +0.000 N 
ATOM     12  N   UNL     1       2.230   9.036  18.054  0.00  0.00    +0.000 NA
ATOM     13  C   UNL     1       2.965   8.054  17.484  0.00  0.00    +0.000 A 
ATOM     14  N   UNL     1       3.205   6.809  17.944  0.00  0.00    +0.000 NA
ATOM     15  C   UNL     1       2.594   6.609  19.123  0.00  0.00    +0.000 A 
ATOM     16  H   UNL     1       0.709   9.647  20.811  0.00  0.00    +0.000 HD
ATOM     17  H   UNL     1       1.098  10.696  19.483  0.00  0.00    +0.000 HD
ENDBRANCH   3   6
BRANCH   1  19
ATOM     18  N   UNL     1       6.380   4.514  16.316  0.00  0.00    +0.000 N 
ATOM     19  C   UNL     1       5.079   4.127  16.646  0.00  0.00    +0.000 C 
ATOM     20  O   UNL     1       4.153   4.188  15.832  0.00  0.00    +0.000 OA
BRANCH  18  21
ATOM     21  C   UNL     1       6.655   4.927  14.943  0.00  0.00    +0.000 C 
BRANCH  21  23
ATOM     22  C   UNL     1       6.642   3.824  12.609  0.00  0.00    +0.000 C 
ATOM     23  C   UNL     1       6.314   3.888  13.907  0.00  0.00    +0.000 C 
ENDBRANCH  21  23
ENDBRANCH  18  21
BRANCH  18  24
ATOM     24  C   UNL     1       7.500   4.552  17.257  0.00  0.00    +0.000 C 
BRANCH  24  25
ATOM     25  C   UNL     1       7.582   5.820  18.063  0.00  0.00    +0.000 C 
ATOM     26  C   UNL     1       7.527   7.100  17.663  0.00  0.00    +0.000 C 
ENDBRANCH  24  25
ENDBRANCH  18  24
ENDBRANCH   1  19
BRANCH   4  27
ATOM     27  O   UNL     1       1.703   2.377  19.478  0.00  0.00    +0.000 OA
ATOM     28  H   UNL     1       1.542   1.596  18.907  0.00  0.00    +0.000 HD
ENDBRANCH   4  27
BRANCH   5  29
ATOM     29  O   UNL     1       4.020   1.365  18.912  0.00  0.00    +0.000 OA
ATOM     30  H   UNL     1       3.398   1.329  19.662  0.00  0.00    +0.000 HD
ENDBRANCH   5  29
TORSDOF 8
ENDMDL
MODEL 3
REMARK VINA RESULT:      -6.7      0.990      1.865
REMARK  Name = 
REMARK  8 active torsions:
REMARK  status: ('A' for Active; 'I' for Inactive)
REMARK    1  A    between atoms: C_2  and  C_3
REMARK    2  A    between atoms: C_3  and  N_4
REMARK    3  A    between atoms: N_4  and  C_5
REMARK    4  A    between atoms: C_5  and  C_6
REMARK    5  A    between atoms: C_8  and  C_10
REMARK    6  A    between atoms: C_12  and  N_13
REMARK    7  A    between atoms: C_23  and  O_24
REMARK    8  A    between atoms: C_25  and  O_26
REMARK                            x       y       z     vdW  Elec       q    Type
REMARK                         _______ _______ _______ _____ _____    ______ ____
ROOT
ATOM      1  C   UNL     1       4.041   4.430  19.026  0.00  0.00    +0.000 C 
ATOM      2  O   UNL     1       3.816   5.598  19.830  0.00  0.00    +0.000 OA
ATOM      3  C   UNL     1       2.485   5.544  20.367  0.00  0.00    +0.000 C 
ATOM      4  C   UNL     1       1.704   4.474  19.613  0.00  0.00    +0.000 C 
ATOM      5  C   UNL     1       2.812   3.526  19.182  0.00  0.00    +0.000 C 
ENDROOT
BRANCH   3   6
ATOM      6  N   UNL     1       1.904   6.868  20.353  0.00  0.00    +0.000 N 
ATOM      7  C   UNL     1       1.170   7.412  21.376  0.00  0.00    +0.000 A 
ATOM      8  N   UNL     1       0.776   8.639  21.108  0.00  0.00    +0.000 NA
ATOM      9  C   UNL     1       1.262   8.892  19.842  0.00  0.00    +0.000 A 
ATOM     10  C   UNL     1       1.170  10.015  19.002  0.00  0.00    +0.000 A 
ATOM     11  N   UNL     1       0.482  11.168  19.355  0.00  0.00    +0.000 N 
ATOM     12  N   UNL     1       1.797   9.977  17.804  0.00  0.00    +0.000 NA
ATOM     13  C   UNL     1       2.453   8.846  17.461  0.00  0.00    +0.000 A 
ATOM     14  N   UNL     1       2.598   7.709  18.173  0.00  0.00    +0.000 NA
ATOM     15  C   UNL     1       1.978   7.806  19.359  0.00  0.00    +0.000 A 
ATOM     16  H   UNL     1       0.337  11.263  20.355  0.00  0.00    +0.000 HD
ATOM     17  H   UNL     1       0.801  11.980  18.842  0.00  0.00    +0.000 HD
ENDBRANCH   3   6
BRANCH   1  19
ATOM     18  N   UNL     1       5.595   5.378  17.283  0.00  0.00    +0.000 N 
ATOM     19  C   UNL     1       4.382   4.737  17.549  0.00  0.00    +0.000 C 
ATOM     20  O   UNL     1       3.633   4.357  16.644  0.00  0.00    +0.000 OA
BRANCH  18  21
ATOM     21  C   UNL     1       6.013   5.524  15.892  0.00  0.00    +0.000 C 
BRANCH  21  23
ATOM     22  C   UNL     1       6.217   3.736  14.040  0.00  0.00    +0.000 C 
ATOM     23  C   UNL     1       6.485   4.245  15.251  0.00  0.00    +0.000 C 
ENDBRANCH  21  23
ENDBRANCH  18  21
BRANCH  18  24
ATOM     24  C   UNL     1       6.483   5.932  18.304  0.00  0.00    +0.000 C 
BRANCH  24  25
ATOM     25  C   UNL     1       7.615   6.756  17.751  0.00  0.00    +0.000 C 
ATOM     26  C   UNL     1       7.798   8.085  17.763  0.00  0.00    +0.000 C 
ENDBRANCH  24  25
ENDBRANCH  18  24
ENDBRANCH   1  19
BRANCH   4  27
ATOM     27  O   UNL     1       0.760   3.817  20.467  0.00  0.00    +0.000 OA
ATOM     28  H   UNL     1       1.116   3.887  21.378  0.00  0.00    +0.000 HD
ENDBRANCH   4  27
BRANCH   5  29
ATOM     29  O   UNL     1       3.003   2.543  20.227  0.00  0.00    +0.000 OA
ATOM     30  H   UNL     1       3.870   2.686  20.647  0.00  0.00    +0.000 HD
ENDBRANCH   5  29
TORSDOF 8
ENDMDL
MODEL 4
REMARK VINA RESULT:      -6.7      0.923      1.042
REMARK  Name = 
REMARK  8 active torsions:
REMARK  status: ('A' for Active; 'I' for Inactive)
REMARK    1  A    between atoms: C_2  and  C_3
REMARK    2  A    between atoms: C_3  and  N_4
REMARK    3  A    between atoms: N_4  and  C_5
REMARK    4  A    between atoms: C_5  and  C_6
REMARK    5  A    between atoms: C_8  and  C_10
REMARK    6  A    between atoms: C_12  and  N_13
REMARK    7  A    between atoms: C_23  and  O_24
REMARK    8  A    between atoms: C_25  and  O_26
REMARK                            x       y       z     vdW  Elec       q    Type
REMARK                         _______ _______ _______ _____ _____    ______ ____
ROOT
ATOM      1  C   UNL     1       4.215   4.867  18.553  0.00  0.00    +0.000 C 
ATOM      2  O   UNL     1       4.044   6.196  19.067  0.00  0.00    +0.000 OA
ATOM      3  C   UNL     1       2.778   6.275  19.741  0.00  0.00    +0.000 C 
ATOM      4  C   UNL     1       1.952   5.053  19.359  0.00  0.00    +0.000 C 
ATOM      5  C   UNL     1       3.033   4.029  19.055  0.00  0.00    +0.000 C 
ENDROOT
BRANCH   3   6
ATOM      6  N   UNL     1       2.165   7.556  19.467  0.00  0.00    +0.000 N 
ATOM      7  C   UNL     1       2.175   8.184  18.248  0.00  0.00    +0.000 A 
ATOM      8  N   UNL     1       1.528   9.330  18.274  0.00  0.00    +0.000 NA
ATOM      9  C   UNL     1       1.096   9.456  19.578  0.00  0.00    +0.000 A 
ATOM     10  C   UNL     1       0.362  10.458  20.236  0.00  0.00    +0.000 A 
ATOM     11  N   UNL     1      -0.075  11.614  19.603  0.00  0.00    +0.000 N 
ATOM     12  N   UNL     1       0.052  10.278  21.540  0.00  0.00    +0.000 NA
ATOM     13  C   UNL     1       0.492   9.157  22.154  0.00  0.00    +0.000 A 
ATOM     14  N   UNL     1       1.209   8.139  21.632  0.00  0.00    +0.000 NA
ATOM     15  C   UNL     1       1.471   8.356  20.334  0.00  0.00    +0.000 A 
ATOM     16  H   UNL     1      -0.112  11.533  18.593  0.00  0.00    +0.000 HD
ATOM     17  H   UNL     1      -0.863  12.038  20.075  0.00  0.00    +0.000 HD
ENDBRANCH   3   6
BRANCH   1  19
ATOM     18  N   UNL     1       5.238   5.741  16.422  0.00  0.00    +0.000 N 
ATOM     19  C   UNL     1       4.391   4.802  17.017  0.00  0.00    +0.000 C 
ATOM     20  O   UNL     1       3.855   3.902  16.365  0.00  0.00    +0.000 OA
BRANCH  18  21
ATOM     21  C   UNL     1       5.551   5.594  15.003  0.00  0.00    +0.000 C 
BRANCH  21  23
ATOM     22  C   UNL     1       6.350   3.594  13.579  0.00  0.00    +0.000 C 
ATOM     23  C   UNL     1       6.361   4.367  14.674  0.00  0.00    +0.000 C 
ENDBRANCH  21  23
ENDBRANCH  18  21
BRANCH  18  24
ATOM     24  C   UNL     1       5.832   6.882  17.117  0.00  0.00    +0.000 C 
BRANCH  24  25
ATOM     25  C   UNL     1       7.268   6.677  17.521  0.00  0.00    +0.000 C 
ATOM     26  C   UNL     1       7.782   6.243  18.681  0.00  0.00    +0.000 C 
ENDBRANCH  24  25
ENDBRANCH  18  24
ENDBRANCH   1  19
BRANCH   4  27
ATOM     27  O   UNL     1       1.120   4.626  20.444  0.00  0.00    +0.000 OA
ATOM     28  H   UNL     1       1.508   5.010  21.259  0.00  0.00    +0.000 HD
ENDBRANCH   4  27
BRANCH   5  29
ATOM     29  O   UNL     1       3.358   3.331  20.282  0.00  0.00    +0.000 OA
ATOM     30  H   UNL     1       3.445   3.978  21.005  0.00  0.00    +0.000 HD
ENDBRANCH   5  29
TORSDOF 8
ENDMDL
MODEL 5
REMARK VINA RESULT:      -6.6      1.236      2.092
REMARK  Name = 
REMARK  8 active torsions:
REMARK  status: ('A' for Active; 'I' for Inactive)
REMARK    1  A    between atoms: C_2  and  C_3
REMARK    2  A    between atoms: C_3  and  N_4
REMARK    3  A    between atoms: N_4  and  C_5
REMARK    4  A    between atoms: C_5  and  C_6
REMARK    5  A    between atoms: C_8  and  C_10
REMARK    6  A    between atoms: C_12  and  N_13
REMARK    7  A    between atoms: C_23  and  O_24
REMARK    8  A    between atoms: C_25  and  O_26
REMARK                            x       y       z     vdW  Elec       q    Type
REMARK                         _______ _______ _______ _____ _____    ______ ____
ROOT
ATOM      1  C   UNL     1       3.839   3.735  19.506  0.00  0.00    +0.000 C 
ATOM      2  O   UNL     1       3.665   4.983  20.192  0.00  0.00    +0.000 OA
ATOM      3  C   UNL     1       2.279   5.138  20.535  0.00  0.00    +0.000 C 
ATOM      4  C   UNL     1       1.471   4.114  19.746  0.00  0.00    +0.000 C 
ATOM      5  C   UNL     1       2.490   3.005  19.540  0.00  0.00    +0.000 C 
ENDROOT
BRANCH   3   6
ATOM      6  N   UNL     1       1.887   6.518  20.353  0.00  0.00    +0.000 N 
ATOM      7  C   UNL     1       1.207   7.267  21.279  0.00  0.00    +0.000 A 
ATOM      8  N   UNL     1       0.993   8.497  20.863  0.00  0.00    +0.000 NA
ATOM      9  C   UNL     1       1.546   8.538  19.600  0.00  0.00    +0.000 A 
ATOM     10  C   UNL     1       1.634   9.562  18.641  0.00  0.00    +0.000 A 
ATOM     11  N   UNL     1       1.102  10.830  18.838  0.00  0.00    +0.000 N 
ATOM     12  N   UNL     1       2.284   9.306  17.483  0.00  0.00    +0.000 NA
ATOM     13  C   UNL     1       2.787   8.066  17.292  0.00  0.00    +0.000 A 
ATOM     14  N   UNL     1       2.753   7.007  18.128  0.00  0.00    +0.000 NA
ATOM     15  C   UNL     1       2.118   7.320  19.268  0.00  0.00    +0.000 A 
ATOM     16  H   UNL     1       0.943  11.055  19.814  0.00  0.00    +0.000 HD
ATOM     17  H   UNL     1       1.544  11.529  18.255  0.00  0.00    +0.000 HD
ENDBRANCH   3   6
BRANCH   1  19
ATOM     18  N   UNL     1       5.630   4.546  17.929  0.00  0.00    +0.000 N 
ATOM     19  C   UNL     1       4.412   3.876  18.076  0.00  0.00    +0.000 C 
ATOM     20  O   UNL     1       3.841   3.345  17.119  0.00  0.00    +0.000 OA
BRANCH  18  21
ATOM     21  C   UNL     1       6.271   4.543  16.618  0.00  0.00    +0.000 C 
BRANCH  21  23
ATOM     22  C   UNL     1       5.277   6.603  15.420  0.00  0.00    +0.000 C 
ATOM     23  C   UNL     1       5.506   5.289  15.556  0.00  0.00    +0.000 C 
ENDBRANCH  21  23
ENDBRANCH  18  21
BRANCH  18  24
ATOM     24  C   UNL     1       6.313   5.271  19.000  0.00  0.00    +0.000 C 
BRANCH  24  25
ATOM     25  C   UNL     1       7.661   5.815  18.610  0.00  0.00    +0.000 C 
ATOM     26  C   UNL     1       8.066   7.085  18.456  0.00  0.00    +0.000 C 
ENDBRANCH  24  25
ENDBRANCH  18  24
ENDBRANCH   1  19
BRANCH   4  27
ATOM     27  O   UNL     1       0.341   3.650  20.495  0.00  0.00    +0.000 OA
ATOM     28  H   UNL     1      -0.438   4.135  20.149  0.00  0.00    +0.000 HD
ENDBRANCH   4  27
BRANCH   5  29
ATOM     29  O   UNL     1       2.406   2.094  20.662  0.00  0.00    +0.000 OA
ATOM     30  H   UNL     1       2.674   2.561  21.474  0.00  0.00    +0.000 HD
ENDBRANCH   5  29
TORSDOF 8
ENDMDL
MODEL 6
REMARK VINA RESULT:      -6.4      3.099      5.215
REMARK  Name = 
REMARK  8 active torsions:
REMARK  status: ('A' for Active; 'I' for Inactive)
REMARK    1  A    between atoms: C_2  and  C_3
REMARK    2  A    between atoms: C_3  and  N_4
REMARK    3  A    between atoms: N_4  and  C_5
REMARK    4  A    between atoms: C_5  and  C_6
REMARK    5  A    between atoms: C_8  and  C_10
REMARK    6  A    between atoms: C_12  and  N_13
REMARK    7  A    between atoms: C_23  and  O_24
REMARK    8  A    between atoms: C_25  and  O_26
REMARK                            x       y       z     vdW  Elec       q    Type
REMARK                         _______ _______ _______ _____ _____    ______ ____
ROOT
ATOM      1  C   UNL     1       5.757   5.906  15.885  0.00  0.00    +0.000 C 
ATOM      2  O   UNL     1       4.615   6.249  16.684  0.00  0.00    +0.000 OA
ATOM      3  C   UNL     1       4.958   6.104  18.072  0.00  0.00    +0.000 C 
ATOM      4  C   UNL     1       6.258   5.315  18.167  0.00  0.00    +0.000 C 
ATOM      5  C   UNL     1       6.927   5.657  16.845  0.00  0.00    +0.000 C 
ENDROOT
BRANCH   3   6
ATOM      6  N   UNL     1       3.834   5.545  18.791  0.00  0.00    +0.000 N 
ATOM      7  C   UNL     1       2.990   6.261  19.602  0.00  0.00    +0.000 A 
ATOM      8  N   UNL     1       2.042   5.508  20.119  0.00  0.00    +0.000 NA
ATOM      9  C   UNL     1       2.299   4.243  19.635  0.00  0.00    +0.000 A 
ATOM     10  C   UNL     1       1.653   3.010  19.827  0.00  0.00    +0.000 A 
ATOM     11  N   UNL     1       0.539   2.859  20.644  0.00  0.00    +0.000 N 
ATOM     12  N   UNL     1       2.127   1.925  19.173  0.00  0.00    +0.000 NA
ATOM     13  C   UNL     1       3.220   2.075  18.392  0.00  0.00    +0.000 A 
ATOM     14  N   UNL     1       3.926   3.198  18.142  0.00  0.00    +0.000 NA
ATOM     15  C   UNL     1       3.403   4.247  18.796  0.00  0.00    +0.000 A 
ATOM     16  H   UNL     1       0.047   3.727  20.820  0.00  0.00    +0.000 HD
ATOM     17  H   UNL     1      -0.008   2.043  20.402  0.00  0.00    +0.000 HD
ENDBRANCH   3   6
BRANCH   1  19
ATOM     18  N   UNL     1       6.503   4.458  13.962  0.00  0.00    +0.000 N 
ATOM     19  C   UNL     1       5.514   4.728  14.911  0.00  0.00    +0.000 C 
ATOM     20  O   UNL     1       4.513   4.016  15.031  0.00  0.00    +0.000 OA
BRANCH  18  21
ATOM     21  C   UNL     1       6.374   3.253  13.148  0.00  0.00    +0.000 C 
BRANCH  21  23
ATOM     22  C   UNL     1       4.311   3.192  11.597  0.00  0.00    +0.000 C 
ATOM     23  C   UNL     1       5.597   3.450  11.873  0.00  0.00    +0.000 C 
ENDBRANCH  21  23
ENDBRANCH  18  21
BRANCH  18  24
ATOM     24  C   UNL     1       7.665   5.309  13.707  0.00  0.00    +0.000 C 
BRANCH  24  25
ATOM     25  C   UNL     1       8.074   5.374  12.260  0.00  0.00    +0.000 C 
ATOM     26  C   UNL     1       7.877   6.342  11.353  0.00  0.00    +0.000 C 
ENDBRANCH  24  25
ENDBRANCH  18  24
ENDBRANCH   1  19
BRANCH   4  27
ATOM     27  O   UNL     1       7.052   5.749  19.278  0.00  0.00    +0.000 OA
ATOM     28  H   UNL     1       7.968   5.845  18.943  0.00  0.00    +0.000 HD
ENDBRANCH   4  27
BRANCH   5  29
ATOM     29  O   UNL     1       7.725   6.850  17.032  0.00  0.00    +0.000 OA
ATOM     30  H   UNL     1       7.134   7.620  17.122  0.00  0.00    +0.000 HD
ENDBRANCH   5  29
TORSDOF 8
ENDMDL
MODEL 7
REMARK VINA RESULT:      -6.4      3.784      7.574
REMARK  Name = 
REMARK  8 active torsions:
REMARK  status: ('A' for Active; 'I' for Inactive)
REMARK    1  A    between atoms: C_2  and  C_3
REMARK    2  A    between atoms: C_3  and  N_4
REMARK    3  A    between atoms: N_4  and  C_5
REMARK    4  A    between atoms: C_5  and  C_6
REMARK    5  A    between atoms: C_8  and  C_10
REMARK    6  A    between atoms: C_12  and  N_13
REMARK    7  A    between atoms: C_23  and  O_24
REMARK    8  A    between atoms: C_25  and  O_26
REMARK                            x       y       z     vdW  Elec       q    Type
REMARK                         _______ _______ _______ _____ _____    ______ ____
ROOT
ATOM      1  C   UNL     1       6.039   5.155  19.104  0.00  0.00    +0.000 C 
ATOM      2  O   UNL     1       6.334   4.198  18.077  0.00  0.00    +0.000 OA
ATOM      3  C   UNL     1       7.006   4.865  16.997  0.00  0.00    +0.000 C 
ATOM      4  C   UNL     1       6.839   6.369  17.182  0.00  0.00    +0.000 C 
ATOM      5  C   UNL     1       6.688   6.482  18.690  0.00  0.00    +0.000 C 
ENDROOT
BRANCH   3   6
ATOM      6  N   UNL     1       6.538   4.334  15.735  0.00  0.00    +0.000 N 
ATOM      7  C   UNL     1       5.511   3.437  15.597  0.00  0.00    +0.000 A 
ATOM      8  N   UNL     1       5.282   3.134  14.336  0.00  0.00    +0.000 NA
ATOM      9  C   UNL     1       6.220   3.857  13.629  0.00  0.00    +0.000 A 
ATOM     10  C   UNL     1       6.495   3.956  12.255  0.00  0.00    +0.000 A 
ATOM     11  N   UNL     1       5.792   3.246  11.290  0.00  0.00    +0.000 N 
ATOM     12  N   UNL     1       7.476   4.795  11.852  0.00  0.00    +0.000 NA
ATOM     13  C   UNL     1       8.166   5.473  12.797  0.00  0.00    +0.000 A 
ATOM     14  N   UNL     1       8.001   5.450  14.136  0.00  0.00    +0.000 NA
ATOM     15  C   UNL     1       7.004   4.620  14.481  0.00  0.00    +0.000 A 
ATOM     16  H   UNL     1       4.887   2.918  11.608  0.00  0.00    +0.000 HD
ATOM     17  H   UNL     1       5.847   3.677  10.377  0.00  0.00    +0.000 HD
ENDBRANCH   3   6
BRANCH   1  19
ATOM     18  N   UNL     1       3.846   4.146  19.830  0.00  0.00    +0.000 N 
ATOM     19  C   UNL     1       4.531   5.294  19.422  0.00  0.00    +0.000 C 
ATOM     20  O   UNL     1       3.985   6.401  19.385  0.00  0.00    +0.000 OA
BRANCH  18  21
ATOM     21  C   UNL     1       2.470   4.287  20.296  0.00  0.00    +0.000 C 
BRANCH  21  23
ATOM     22  C   UNL     1       1.395   2.514  21.834  0.00  0.00    +0.000 C 
ATOM     23  C   UNL     1       2.181   3.572  21.590  0.00  0.00    +0.000 C 
ENDBRANCH  21  23
ENDBRANCH  18  21
BRANCH  18  24
ATOM     24  C   UNL     1       4.405   2.795  19.811  0.00  0.00    +0.000 C 
BRANCH  24  25
ATOM     25  C   UNL     1       3.663   1.836  18.920  0.00  0.00    +0.000 C 
ATOM     26  C   UNL     1       3.006   2.059  17.772  0.00  0.00    +0.000 C 
ENDBRANCH  24  25
ENDBRANCH  18  24
ENDBRANCH   1  19
BRANCH   4  27
ATOM     27  O   UNL     1       7.991   7.083  16.719  0.00  0.00    +0.000 OA
ATOM     28  H   UNL     1       8.228   7.716  17.430  0.00  0.00    +0.000 HD
ENDBRANCH   4  27
BRANCH   5  29
ATOM     29  O   UNL     1       8.006   6.634  19.270  0.00  0.00    +0.000 OA
ATOM     30  H   UNL     1       8.474   7.356  18.815  0.00  0.00    +0.000 HD
ENDBRANCH   5  29
TORSDOF 8
ENDMDL
MODEL 8
REMARK VINA RESULT:      -6.3      1.313      2.042
REMARK  Name = 
REMARK  8 active torsions:
REMARK  status: ('A' for Active; 'I' for Inactive)
REMARK    1  A    between atoms: C_2  and  C_3
REMARK    2  A    between atoms: C_3  and  N_4
REMARK    3  A    between atoms: N_4  and  C_5
REMARK    4  A    between atoms: C_5  and  C_6
REMARK    5  A    between atoms: C_8  and  C_10
REMARK    6  A    between atoms: C_12  and  N_13
REMARK    7  A    between atoms: C_23  and  O_24
REMARK    8  A    between atoms: C_25  and  O_26
REMARK                            x       y       z     vdW  Elec       q    Type
REMARK                         _______ _______ _______ _____ _____    ______ ____
ROOT
ATOM      1  C   UNL     1       4.506   4.674  18.438  0.00  0.00    +0.000 C 
ATOM      2  O   UNL     1       4.117   5.551  19.506  0.00  0.00    +0.000 OA
ATOM      3  C   UNL     1       2.724   5.347  19.792  0.00  0.00    +0.000 C 
ATOM      4  C   UNL     1       2.108   4.556  18.645  0.00  0.00    +0.000 C 
ATOM      5  C   UNL     1       3.304   3.773  18.128  0.00  0.00    +0.000 C 
ENDROOT
BRANCH   3   6
ATOM      6  N   UNL     1       2.099   6.619  20.081  0.00  0.00    +0.000 N 
ATOM      7  C   UNL     1       1.453   6.925  21.251  0.00  0.00    +0.000 A 
ATOM      8  N   UNL     1       0.992   8.158  21.256  0.00  0.00    +0.000 NA
ATOM      9  C   UNL     1       1.339   8.665  20.021  0.00  0.00    +0.000 A 
ATOM     10  C   UNL     1       1.124   9.916  19.420  0.00  0.00    +0.000 A 
ATOM     11  N   UNL     1       0.435  10.947  20.046  0.00  0.00    +0.000 N 
ATOM     12  N   UNL     1       1.628  10.133  18.184  0.00  0.00    +0.000 NA
ATOM     13  C   UNL     1       2.285   9.121  17.575  0.00  0.00    +0.000 A 
ATOM     14  N   UNL     1       2.541   7.882  18.044  0.00  0.00    +0.000 NA
ATOM     15  C   UNL     1       2.040   7.726  19.279  0.00  0.00    +0.000 A 
ATOM     16  H   UNL     1       0.388  10.848  21.054  0.00  0.00    +0.000 HD
ATOM     17  H   UNL     1       0.672  11.855  19.668  0.00  0.00    +0.000 HD
ENDBRANCH   3   6
BRANCH   1  19
ATOM     18  N   UNL     1       6.370   5.151  16.810  0.00  0.00    +0.000 N 
ATOM     19  C   UNL     1       5.049   5.407  17.187  0.00  0.00    +0.000 C 
ATOM     20  O   UNL     1       4.306   6.128  16.516  0.00  0.00    +0.000 OA
BRANCH  18  21
ATOM     21  C   UNL     1       6.848   5.697  15.543  0.00  0.00    +0.000 C 
BRANCH  21  23
ATOM     22  C   UNL     1       5.912   3.949  13.890  0.00  0.00    +0.000 C 
ATOM     23  C   UNL     1       6.891   4.696  14.418  0.00  0.00    +0.000 C 
ENDBRANCH  21  23
ENDBRANCH  18  21
BRANCH  18  24
ATOM     24  C   UNL     1       7.327   4.382  17.604  0.00  0.00    +0.000 C 
BRANCH  24  25
ATOM     25  C   UNL     1       8.114   5.207  18.587  0.00  0.00    +0.000 C 
ATOM     26  C   UNL     1       7.711   5.833  19.702  0.00  0.00    +0.000 C 
ENDBRANCH  24  25
ENDBRANCH  18  24
ENDBRANCH   1  19
BRANCH   4  27
ATOM     27  O   UNL     1       1.074   3.679  19.110  0.00  0.00    +0.000 OA
ATOM     28  H   UNL     1       0.240   3.992  18.699  0.00  0.00    +0.000 HD
ENDBRANCH   4  27
BRANCH   5  29
ATOM     29  O   UNL     1       3.377   2.521  18.852  0.00  0.00    +0.000 OA
ATOM     30  H   UNL     1       4.292   2.381  19.158  0.00  0.00    +0.000 HD
ENDBRANCH   5  29
TORSDOF 8
ENDMDL
MODEL 9
REMARK VINA RESULT:      -6.3      1.267      2.478
REMARK  Name = 
REMARK  8 active torsions:
REMARK  status: ('A' for Active; 'I' for Inactive)
REMARK    1  A    between atoms: C_2  and  C_3
REMARK    2  A    between atoms: C_3  and  N_4
REMARK    3  A    between atoms: N_4  and  C_5
REMARK    4  A    between atoms: C_5  and  C_6
REMARK    5  A    between atoms: C_8  and  C_10
REMARK    6  A    between atoms: C_12  and  N_13
REMARK    7  A    between atoms: C_23  and  O_24
REMARK    8  A    between atoms: C_25  and  O_26
REMARK                            x       y       z     vdW  Elec       q    Type
REMARK                         _______ _______ _______ _____ _____    ______ ____
ROOT
ATOM      1  C   UNL     1       4.569   4.742  19.433  0.00  0.00    +0.000 C 
ATOM      2  O   UNL     1       3.724   5.791  19.929  0.00  0.00    +0.000 OA
ATOM      3  C   UNL     1       2.539   5.855  19.121  0.00  0.00    +0.000 C 
ATOM      4  C   UNL     1       2.777   5.047  17.851  0.00  0.00    +0.000 C 
ATOM      5  C   UNL     1       3.797   4.022  18.321  0.00  0.00    +0.000 C 
ENDROOT
BRANCH   3   6
ATOM      6  N   UNL     1       2.165   7.238  18.921  0.00  0.00    +0.000 N 
ATOM      7  C   UNL     1       2.307   7.924  17.742  0.00  0.00    +0.000 A 
ATOM      8  N   UNL     1       1.871   9.163  17.833  0.00  0.00    +0.000 NA
ATOM      9  C   UNL     1       1.446   9.288  19.139  0.00  0.00    +0.000 A 
ATOM     10  C   UNL     1       0.889  10.363  19.852  0.00  0.00    +0.000 A 
ATOM     11  N   UNL     1       0.674  11.614  19.288  0.00  0.00    +0.000 N 
ATOM     12  N   UNL     1       0.530  10.165  21.141  0.00  0.00    +0.000 NA
ATOM     13  C   UNL     1       0.756   8.950  21.689  0.00  0.00    +0.000 A 
ATOM     14  N   UNL     1       1.291   7.854  21.111  0.00  0.00    +0.000 NA
ATOM     15  C   UNL     1       1.609   8.097  19.830  0.00  0.00    +0.000 A 
ATOM     16  H   UNL     1       0.640  11.599  18.274  0.00  0.00    +0.000 HD
ATOM     17  H   UNL     1      -0.035  12.142  19.779  0.00  0.00    +0.000 HD
ENDBRANCH   3   6
BRANCH   1  19
ATOM     18  N   UNL     1       6.100   5.702  17.676  0.00  0.00    +0.000 N 
ATOM     19  C   UNL     1       5.969   5.222  18.981  0.00  0.00    +0.000 C 
ATOM     20  O   UNL     1       6.909   5.244  19.782  0.00  0.00    +0.000 OA
BRANCH  18  21
ATOM     21  C   UNL     1       7.366   6.315  17.284  0.00  0.00    +0.000 C 
BRANCH  21  23
ATOM     22  C   UNL     1       8.240   8.626  18.031  0.00  0.00    +0.000 C 
ATOM     23  C   UNL     1       7.383   7.817  17.393  0.00  0.00    +0.000 C 
ENDBRANCH  21  23
ENDBRANCH  18  21
BRANCH  18  24
ATOM     24  C   UNL     1       5.057   5.623  16.653  0.00  0.00    +0.000 C 
BRANCH  24  25
ATOM     25  C   UNL     1       5.581   5.434  15.255  0.00  0.00    +0.000 C 
ATOM     26  C   UNL     1       5.620   4.332  14.491  0.00  0.00    +0.000 C 
ENDBRANCH  24  25
ENDBRANCH  18  24
ENDBRANCH   1  19
BRANCH   4  27
ATOM     27  O   UNL     1       1.573   4.415  17.400  0.00  0.00    +0.000 OA
ATOM     28  H   UNL     1       0.985   5.134  17.085  0.00  0.00    +0.000 HD
ENDBRANCH   4  27
BRANCH   5  29
ATOM     29  O   UNL     1       3.083   2.870  18.830  0.00  0.00    +0.000 OA
ATOM     30  H   UNL     1       2.286   2.722  18.289  0.00  0.00    +0.000 HD
ENDBRANCH   5  29
TORSDOF 8
ENDMDL
