MODEL 1
REMARK VINA RESULT:      -9.6      0.000      0.000
REMARK  Name = 
REMARK  3 active torsions:
REMARK  status: ('A' for Active; 'I' for Inactive)
REMARK    1  A    between atoms: C_2  and  C_10
REMARK    2  A    between atoms: N_13  and  S_14
REMARK    3  A    between atoms: S_14  and  C_17
REMARK                            x       y       z     vdW  Elec       q    Type
REMARK                         _______ _______ _______ _____ _____    ______ ____
ROOT
ATOM      1  C   UNL     1       7.247   6.081  17.757  0.00  0.00    +0.000 C 
ATOM      2  C   UNL     1       6.748   5.488  19.077  0.00  0.00    +0.000 C 
ATOM      3  C   UNL     1       5.231   5.307  19.105  0.00  0.00    +0.000 C 
ATOM      4  N   UNL     1       4.531   6.580  18.765  0.00  0.00    +0.000 NA
ATOM      5  C   UNL     1       4.994   7.179  17.479  0.00  0.00    +0.000 C 
ATOM      6  C   UNL     1       6.506   7.393  17.495  0.00  0.00    +0.000 C 
ENDROOT
BRANCH   1   8
ATOM      7  O   UNL     1       6.930   3.903  16.759  0.00  0.00    +0.000 OA
ATOM      8  C   UNL     1       7.058   5.113  16.588  0.00  0.00    +0.000 C 
ATOM      9  N   UNL     1       7.055   5.725  15.354  0.00  0.00    +0.000 N 
ATOM     10  C   UNL     1       6.847   4.999  14.177  0.00  0.00    +0.000 A 
ATOM     11  C   UNL     1       5.809   4.081  14.061  0.00  0.00    +0.000 A 
ATOM     12  C   UNL     1       5.679   3.370  12.873  0.00  0.00    +0.000 A 
ATOM     13  C   UNL     1       6.606   3.576  11.859  0.00  0.00    +0.000 A 
ATOM     14  C   UNL     1       7.593   4.528  12.060  0.00  0.00    +0.000 A 
ATOM     15  N   UNL     1       7.706   5.277  13.180  0.00  0.00    +0.000 NA
ATOM     16  H   UNL     1       7.686   6.504  15.227  0.00  0.00    +0.000 HD
ENDBRANCH   1   8
BRANCH   4  17
ATOM     17  S   UNL     1       2.814   6.452  18.809  0.00  0.00    +0.000 S 
ATOM     18  O   UNL     1       2.327   7.030  20.044  0.00  0.00    +0.000 OA
ATOM     19  O   UNL     1       2.318   6.932  17.536  0.00  0.00    +0.000 OA
BRANCH  17  20
ATOM     20  C   UNL     1       2.511   4.733  18.884  0.00  0.00    +0.000 A 
ATOM     21  C   UNL     1       2.432   3.944  17.714  0.00  0.00    +0.000 A 
ATOM     22  C   UNL     1       2.173   2.550  17.750  0.00  0.00    +0.000 A 
ATOM     23  C   UNL     1       1.976   1.840  18.950  0.00  0.00    +0.000 A 
ATOM     24  C   UNL     1       2.058   2.618  20.121  0.00  0.00    +0.000 A 
ATOM     25  N   UNL     1       1.923   2.235  21.395  0.00  0.00    +0.000 NA
ATOM     26  O   UNL     1       2.091   3.379  22.153  0.00  0.00    +0.000 OA
ATOM     27  N   UNL     1       2.345   4.481  21.360  0.00  0.00    +0.000 NA
ATOM     28  C   UNL     1       2.323   4.052  20.095  0.00  0.00    +0.000 A 
ENDBRANCH  17  20
ENDBRANCH   4  17
TORSDOF 3
ENDMDL
MODEL 2
REMARK VINA RESULT:      -9.2      1.414      1.755
REMARK  Name = 
REMARK  3 active torsions:
REMARK  status: ('A' for Active; 'I' for Inactive)
REMARK    1  A    between atoms: C_2  and  C_10
REMARK    2  A    between atoms: N_13  and  S_14
REMARK    3  A    between atoms: S_14  and  C_17
REMARK                            x       y       z     vdW  Elec       q    Type
REMARK                         _______ _______ _______ _____ _____    ______ ____
ROOT
ATOM      1  C   UNL     1       7.187   6.026  17.810  0.00  0.00    +0.000 C 
ATOM      2  C   UNL     1       6.678   5.429  19.126  0.00  0.00    +0.000 C 
ATOM      3  C   UNL     1       5.157   5.283  19.157  0.00  0.00    +0.000 C 
ATOM      4  N   UNL     1       4.486   6.576  18.833  0.00  0.00    +0.000 NA
ATOM      5  C   UNL     1       4.959   7.179  17.553  0.00  0.00    +0.000 C 
ATOM      6  C   UNL     1       6.475   7.357  17.565  0.00  0.00    +0.000 C 
ENDROOT
BRANCH   1   8
ATOM      7  O   UNL     1       6.769   3.874  16.791  0.00  0.00    +0.000 OA
ATOM      8  C   UNL     1       6.971   5.075  16.631  0.00  0.00    +0.000 C 
ATOM      9  N   UNL     1       7.035   5.692  15.401  0.00  0.00    +0.000 N 
ATOM     10  C   UNL     1       6.816   4.984  14.215  0.00  0.00    +0.000 A 
ATOM     11  C   UNL     1       5.729   4.129  14.068  0.00  0.00    +0.000 A 
ATOM     12  C   UNL     1       5.588   3.433  12.872  0.00  0.00    +0.000 A 
ATOM     13  C   UNL     1       6.551   3.588  11.883  0.00  0.00    +0.000 A 
ATOM     14  C   UNL     1       7.587   4.480  12.114  0.00  0.00    +0.000 A 
ATOM     15  N   UNL     1       7.715   5.215  13.242  0.00  0.00    +0.000 NA
ATOM     16  H   UNL     1       7.714   6.433  15.294  0.00  0.00    +0.000 HD
ENDBRANCH   1   8
BRANCH   4  17
ATOM     17  S   UNL     1       2.766   6.488  18.882  0.00  0.00    +0.000 S 
ATOM     18  O   UNL     1       2.265   7.510  19.775  0.00  0.00    +0.000 OA
ATOM     19  O   UNL     1       2.304   6.428  17.511  0.00  0.00    +0.000 OA
BRANCH  17  20
ATOM     20  C   UNL     1       2.435   4.941  19.623  0.00  0.00    +0.000 A 
ATOM     21  C   UNL     1       2.273   4.810  21.022  0.00  0.00    +0.000 A 
ATOM     22  C   UNL     1       2.017   3.563  21.646  0.00  0.00    +0.000 A 
ATOM     23  C   UNL     1       1.903   2.358  20.928  0.00  0.00    +0.000 A 
ATOM     24  C   UNL     1       2.058   2.480  19.534  0.00  0.00    +0.000 A 
ATOM     25  N   UNL     1       2.000   1.528  18.596  0.00  0.00    +0.000 NA
ATOM     26  O   UNL     1       2.220   2.171  17.393  0.00  0.00    +0.000 OA
ATOM     27  N   UNL     1       2.406   3.529  17.567  0.00  0.00    +0.000 NA
ATOM     28  C   UNL     1       2.322   3.757  18.881  0.00  0.00    +0.000 A 
ENDBRANCH  17  20
ENDBRANCH   4  17
TORSDOF 3
ENDMDL
MODEL 3
REMARK VINA RESULT:      -9.1      2.399      3.804
REMARK  Name = 
REMARK  3 active torsions:
REMARK  status: ('A' for Active; 'I' for Inactive)
REMARK    1  A    between atoms: C_2  and  C_10
REMARK    2  A    between atoms: N_13  and  S_14
REMARK    3  A    between atoms: S_14  and  C_17
REMARK                            x       y       z     vdW  Elec       q    Type
REMARK                         _______ _______ _______ _____ _____    ______ ____
ROOT
ATOM      1  C   UNL     1       7.443   6.196  17.720  0.00  0.00    +0.000 C 
ATOM      2  C   UNL     1       7.138   5.511  19.056  0.00  0.00    +0.000 C 
ATOM      3  C   UNL     1       5.697   5.011  19.145  0.00  0.00    +0.000 C 
ATOM      4  N   UNL     1       4.728   6.105  18.844  0.00  0.00    +0.000 NA
ATOM      5  C   UNL     1       4.998   6.788  17.546  0.00  0.00    +0.000 C 
ATOM      6  C   UNL     1       6.429   7.319  17.500  0.00  0.00    +0.000 C 
ENDROOT
BRANCH   1   8
ATOM      7  O   UNL     1       7.663   4.014  16.703  0.00  0.00    +0.000 OA
ATOM      8  C   UNL     1       7.415   5.208  16.553  0.00  0.00    +0.000 C 
ATOM      9  N   UNL     1       7.099   5.787  15.343  0.00  0.00    +0.000 N 
ATOM     10  C   UNL     1       6.983   5.026  14.176  0.00  0.00    +0.000 A 
ATOM     11  C   UNL     1       6.248   3.845  14.146  0.00  0.00    +0.000 A 
ATOM     12  C   UNL     1       6.200   3.121  12.960  0.00  0.00    +0.000 A 
ATOM     13  C   UNL     1       6.910   3.582  11.859  0.00  0.00    +0.000 A 
ATOM     14  C   UNL     1       7.596   4.781  11.979  0.00  0.00    +0.000 A 
ATOM     15  N   UNL     1       7.610   5.536  13.100  0.00  0.00    +0.000 NA
ATOM     16  H   UNL     1       7.461   6.715  15.170  0.00  0.00    +0.000 HD
ENDBRANCH   1   8
BRANCH   4  17
ATOM     17  S   UNL     1       3.081   5.614  18.959  0.00  0.00    +0.000 S 
ATOM     18  O   UNL     1       2.568   5.365  17.628  0.00  0.00    +0.000 OA
ATOM     19  O   UNL     1       3.013   4.582  19.971  0.00  0.00    +0.000 OA
BRANCH  17  20
ATOM     20  C   UNL     1       2.253   7.023  19.579  0.00  0.00    +0.000 A 
ATOM     21  C   UNL     1       1.728   7.055  20.891  0.00  0.00    +0.000 A 
ATOM     22  C   UNL     1       1.041   8.181  21.410  0.00  0.00    +0.000 A 
ATOM     23  C   UNL     1       0.827   9.356  20.665  0.00  0.00    +0.000 A 
ATOM     24  C   UNL     1       1.351   9.335  19.358  0.00  0.00    +0.000 A 
ATOM     25  N   UNL     1       1.313  10.289  18.423  0.00  0.00    +0.000 NA
ATOM     26  O   UNL     1       1.968   9.766  17.324  0.00  0.00    +0.000 OA
ATOM     27  N   UNL     1       2.430   8.487  17.567  0.00  0.00    +0.000 NA
ATOM     28  C   UNL     1       2.059   8.182  18.814  0.00  0.00    +0.000 A 
ENDBRANCH  17  20
ENDBRANCH   4  17
TORSDOF 3
ENDMDL
MODEL 4
REMARK VINA RESULT:      -8.6      2.467      3.552
REMARK  Name = 
REMARK  3 active torsions:
REMARK  status: ('A' for Active; 'I' for Inactive)
REMARK    1  A    between atoms: C_2  and  C_10
REMARK    2  A    between atoms: N_13  and  S_14
REMARK    3  A    between atoms: S_14  and  C_17
REMARK                            x       y       z     vdW  Elec       q    Type
REMARK                         _______ _______ _______ _____ _____    ______ ____
ROOT
ATOM      1  C   UNL     1       7.282   6.105  17.697  0.00  0.00    +0.000 C 
ATOM      2  C   UNL     1       6.921   5.464  19.040  0.00  0.00    +0.000 C 
ATOM      3  C   UNL     1       5.433   5.136  19.155  0.00  0.00    +0.000 C 
ATOM      4  N   UNL     1       4.594   6.336  18.864  0.00  0.00    +0.000 NA
ATOM      5  C   UNL     1       4.920   6.978  17.558  0.00  0.00    +0.000 C 
ATOM      6  C   UNL     1       6.402   7.339  17.487  0.00  0.00    +0.000 C 
ENDROOT
BRANCH   1   8
ATOM      7  O   UNL     1       7.042   3.911  16.712  0.00  0.00    +0.000 OA
ATOM      8  C   UNL     1       7.120   5.124  16.535  0.00  0.00    +0.000 C 
ATOM      9  N   UNL     1       7.081   5.730  15.298  0.00  0.00    +0.000 N 
ATOM     10  C   UNL     1       6.891   4.990  14.127  0.00  0.00    +0.000 A 
ATOM     11  C   UNL     1       5.889   4.032  14.025  0.00  0.00    +0.000 A 
ATOM     12  C   UNL     1       5.776   3.310  12.841  0.00  0.00    +0.000 A 
ATOM     13  C   UNL     1       6.684   3.547  11.817  0.00  0.00    +0.000 A 
ATOM     14  C   UNL     1       7.635   4.539  12.004  0.00  0.00    +0.000 A 
ATOM     15  N   UNL     1       7.729   5.297  13.120  0.00  0.00    +0.000 NA
ATOM     16  H   UNL     1       7.680   6.532  15.161  0.00  0.00    +0.000 HD
ENDBRANCH   1   8
BRANCH   4  17
ATOM     17  S   UNL     1       2.902   6.041  19.007  0.00  0.00    +0.000 S 
ATOM     18  O   UNL     1       2.441   5.349  17.822  0.00  0.00    +0.000 OA
ATOM     19  O   UNL     1       2.678   5.469  20.318  0.00  0.00    +0.000 OA
BRANCH  17  20
ATOM     20  C   UNL     1       2.184   7.634  18.991  0.00  0.00    +0.000 A 
ATOM     21  C   UNL     1       2.154   8.421  17.817  0.00  0.00    +0.000 A 
ATOM     22  C   UNL     1       1.589   9.721  17.785  0.00  0.00    +0.000 A 
ATOM     23  C   UNL     1       1.014  10.333  18.915  0.00  0.00    +0.000 A 
ATOM     24  C   UNL     1       1.036   9.554  20.088  0.00  0.00    +0.000 A 
ATOM     25  N   UNL     1       0.569   9.855  21.304  0.00  0.00    +0.000 NA
ATOM     26  O   UNL     1       0.840   8.754  22.095  0.00  0.00    +0.000 OA
ATOM     27  N   UNL     1       1.468   7.754  21.378  0.00  0.00    +0.000 NA
ATOM     28  C   UNL     1       1.615   8.216  20.133  0.00  0.00    +0.000 A 
ENDBRANCH  17  20
ENDBRANCH   4  17
TORSDOF 3
ENDMDL
MODEL 5
REMARK VINA RESULT:      -7.7      2.860      4.671
REMARK  Name = 
REMARK  3 active torsions:
REMARK  status: ('A' for Active; 'I' for Inactive)
REMARK    1  A    between atoms: C_2  and  C_10
REMARK    2  A    between atoms: N_13  and  S_14
REMARK    3  A    between atoms: S_14  and  C_17
REMARK                            x       y       z     vdW  Elec       q    Type
REMARK                         _______ _______ _______ _____ _____    ______ ____
ROOT
ATOM      1  C   UNL     1       8.162   5.688  18.570  0.00  0.00    +0.000 C 
ATOM      2  C   UNL     1       7.810   4.626  17.524  0.00  0.00    +0.000 C 
ATOM      3  C   UNL     1       6.364   4.735  17.040  0.00  0.00    +0.000 C 
ATOM      4  N   UNL     1       5.410   4.728  18.187  0.00  0.00    +0.000 NA
ATOM      5  C   UNL     1       5.727   5.756  19.221  0.00  0.00    +0.000 C 
ATOM      6  C   UNL     1       7.160   5.596  19.722  0.00  0.00    +0.000 C 
ENDROOT
BRANCH   1   8
ATOM      7  O   UNL     1       7.832   7.315  16.814  0.00  0.00    +0.000 OA
ATOM      8  C   UNL     1       8.171   7.096  17.974  0.00  0.00    +0.000 C 
ATOM      9  N   UNL     1       8.597   8.069  18.852  0.00  0.00    +0.000 N 
ATOM     10  C   UNL     1       8.625   9.419  18.491  0.00  0.00    +0.000 A 
ATOM     11  C   UNL     1       7.541  10.029  17.869  0.00  0.00    +0.000 A 
ATOM     12  C   UNL     1       7.648  11.369  17.509  0.00  0.00    +0.000 A 
ATOM     13  C   UNL     1       8.839  12.040  17.752  0.00  0.00    +0.000 A 
ATOM     14  C   UNL     1       9.856  11.353  18.397  0.00  0.00    +0.000 A 
ATOM     15  N   UNL     1       9.758  10.070  18.813  0.00  0.00    +0.000 NA
ATOM     16  H   UNL     1       9.342   7.818  19.487  0.00  0.00    +0.000 HD
ENDBRANCH   1   8
BRANCH   4  17
ATOM     17  S   UNL     1       3.758   4.816  17.707  0.00  0.00    +0.000 S 
ATOM     18  O   UNL     1       3.366   6.207  17.615  0.00  0.00    +0.000 OA
ATOM     19  O   UNL     1       3.598   3.937  16.567  0.00  0.00    +0.000 OA
BRANCH  17  20
ATOM     20  C   UNL     1       2.882   4.116  19.046  0.00  0.00    +0.000 A 
ATOM     21  C   UNL     1       1.532   4.449  19.302  0.00  0.00    +0.000 A 
ATOM     22  C   UNL     1       0.805   3.904  20.391  0.00  0.00    +0.000 A 
ATOM     23  C   UNL     1       1.365   2.991  21.303  0.00  0.00    +0.000 A 
ATOM     24  C   UNL     1       2.709   2.650  21.053  0.00  0.00    +0.000 A 
ATOM     25  N   UNL     1       3.503   1.815  21.731  0.00  0.00    +0.000 NA
ATOM     26  O   UNL     1       4.720   1.837  21.076  0.00  0.00    +0.000 OA
ATOM     27  N   UNL     1       4.692   2.676  19.978  0.00  0.00    +0.000 NA
ATOM     28  C   UNL     1       3.466   3.204  19.936  0.00  0.00    +0.000 A 
ENDBRANCH  17  20
ENDBRANCH   4  17
TORSDOF 3
ENDMDL
MODEL 6
REMARK VINA RESULT:      -7.5      4.737      7.414
REMARK  Name = 
REMARK  3 active torsions:
REMARK  status: ('A' for Active; 'I' for Inactive)
REMARK    1  A    between atoms: C_2  and  C_10
REMARK    2  A    between atoms: N_13  and  S_14
REMARK    3  A    between atoms: S_14  and  C_17
REMARK                            x       y       z     vdW  Elec       q    Type
REMARK                         _______ _______ _______ _____ _____    ______ ____
ROOT
ATOM      1  C   UNL     1       1.590   9.762  19.479  0.00  0.00    +0.000 C 
ATOM      2  C   UNL     1       2.420   9.387  18.248  0.00  0.00    +0.000 C 
ATOM      3  C   UNL     1       2.254   7.920  17.851  0.00  0.00    +0.000 C 
ATOM      4  N   UNL     1       2.526   7.016  19.006  0.00  0.00    +0.000 NA
ATOM      5  C   UNL     1       1.727   7.355  20.219  0.00  0.00    +0.000 C 
ATOM      6  C   UNL     1       1.947   8.811  20.623  0.00  0.00    +0.000 C 
ENDROOT
BRANCH   1   8
ATOM      7  O   UNL     1      -0.718   9.271  20.001  0.00  0.00    +0.000 OA
ATOM      8  C   UNL     1       0.089   9.718  19.190  0.00  0.00    +0.000 C 
ATOM      9  N   UNL     1      -0.253  10.213  17.951  0.00  0.00    +0.000 N 
ATOM     10  C   UNL     1      -1.586  10.292  17.536  0.00  0.00    +0.000 A 
ATOM     11  C   UNL     1      -2.573  10.827  18.357  0.00  0.00    +0.000 A 
ATOM     12  C   UNL     1      -3.885  10.847  17.894  0.00  0.00    +0.000 A 
ATOM     13  C   UNL     1      -4.168  10.304  16.647  0.00  0.00    +0.000 A 
ATOM     14  C   UNL     1      -3.114   9.814  15.893  0.00  0.00    +0.000 A 
ATOM     15  N   UNL     1      -1.822   9.837  16.292  0.00  0.00    +0.000 NA
ATOM     16  H   UNL     1       0.382  10.019  17.189  0.00  0.00    +0.000 HD
ENDBRANCH   1   8
BRANCH   4  17
ATOM     17  S   UNL     1       2.386   5.344  18.617  0.00  0.00    +0.000 S 
ATOM     18  O   UNL     1       2.325   4.575  19.842  0.00  0.00    +0.000 OA
ATOM     19  O   UNL     1       1.335   5.223  17.628  0.00  0.00    +0.000 OA
BRANCH  17  20
ATOM     20  C   UNL     1       3.900   4.955  17.835  0.00  0.00    +0.000 A 
ATOM     21  C   UNL     1       3.948   4.517  16.491  0.00  0.00    +0.000 A 
ATOM     22  C   UNL     1       5.163   4.183  15.841  0.00  0.00    +0.000 A 
ATOM     23  C   UNL     1       6.416   4.259  16.477  0.00  0.00    +0.000 A 
ATOM     24  C   UNL     1       6.378   4.699  17.815  0.00  0.00    +0.000 A 
ATOM     25  N   UNL     1       7.391   4.876  18.669  0.00  0.00    +0.000 NA
ATOM     26  O   UNL     1       6.817   5.316  19.847  0.00  0.00    +0.000 OA
ATOM     27  N   UNL     1       5.445   5.427  19.735  0.00  0.00    +0.000 NA
ATOM     28  C   UNL     1       5.134   5.045  18.493  0.00  0.00    +0.000 A 
ENDBRANCH  17  20
ENDBRANCH   4  17
TORSDOF 3
ENDMDL
MODEL 7
REMARK VINA RESULT:      -7.4      7.168      8.804
REMARK  Name = 
REMARK  3 active torsions:
REMARK  status: ('A' for Active; 'I' for Inactive)
REMARK    1  A    between atoms: C_2  and  C_10
REMARK    2  A    between atoms: N_13  and  S_14
REMARK    3  A    between atoms: S_14  and  C_17
REMARK                            x       y       z     vdW  Elec       q    Type
REMARK                         _______ _______ _______ _____ _____    ______ ____
ROOT
ATOM      1  C   UNL     1       1.108  10.045  18.045  0.00  0.00    +0.000 C 
ATOM      2  C   UNL     1       1.635  11.380  18.580  0.00  0.00    +0.000 C 
ATOM      3  C   UNL     1       1.217  11.641  20.027  0.00  0.00    +0.000 C 
ATOM      4  N   UNL     1      -0.261  11.518  20.190  0.00  0.00    +0.000 NA
ATOM      5  C   UNL     1      -0.803  10.225  19.682  0.00  0.00    +0.000 C 
ATOM      6  C   UNL     1      -0.412  10.009  18.222  0.00  0.00    +0.000 C 
ENDROOT
BRANCH   1   8
ATOM      7  O   UNL     1       1.681   8.687  19.961  0.00  0.00    +0.000 OA
ATOM      8  C   UNL     1       1.760   8.852  18.746  0.00  0.00    +0.000 C 
ATOM      9  N   UNL     1       2.434   8.007  17.892  0.00  0.00    +0.000 N 
ATOM     10  C   UNL     1       3.051   6.840  18.354  0.00  0.00    +0.000 A 
ATOM     11  C   UNL     1       2.393   5.953  19.198  0.00  0.00    +0.000 A 
ATOM     12  C   UNL     1       3.077   4.827  19.644  0.00  0.00    +0.000 A 
ATOM     13  C   UNL     1       4.399   4.645  19.260  0.00  0.00    +0.000 A 
ATOM     14  C   UNL     1       4.963   5.572  18.398  0.00  0.00    +0.000 A 
ATOM     15  N   UNL     1       4.303   6.643  17.901  0.00  0.00    +0.000 NA
ATOM     16  H   UNL     1       2.931   8.434  17.122  0.00  0.00    +0.000 HD
ENDBRANCH   1   8
BRANCH   4  17
ATOM     17  S   UNL     1      -0.802  11.832  21.795  0.00  0.00    +0.000 S 
ATOM     18  O   UNL     1      -0.841  10.588  22.533  0.00  0.00    +0.000 OA
ATOM     19  O   UNL     1      -0.031  12.951  22.294  0.00  0.00    +0.000 OA
BRANCH  17  20
ATOM     20  C   UNL     1      -2.453  12.370  21.596  0.00  0.00    +0.000 A 
ATOM     21  C   UNL     1      -2.922  12.877  20.362  0.00  0.00    +0.000 A 
ATOM     22  C   UNL     1      -4.253  13.332  20.181  0.00  0.00    +0.000 A 
ATOM     23  C   UNL     1      -5.212  13.316  21.211  0.00  0.00    +0.000 A 
ATOM     24  C   UNL     1      -4.754  12.809  22.442  0.00  0.00    +0.000 A 
ATOM     25  N   UNL     1      -5.423  12.664  23.591  0.00  0.00    +0.000 NA
ATOM     26  O   UNL     1      -4.519  12.125  24.488  0.00  0.00    +0.000 OA
ATOM     27  N   UNL     1      -3.284  11.918  23.904  0.00  0.00    +0.000 NA
ATOM     28  C   UNL     1      -3.388  12.338  22.640  0.00  0.00    +0.000 A 
ENDBRANCH  17  20
ENDBRANCH   4  17
TORSDOF 3
ENDMDL
MODEL 8
REMARK VINA RESULT:      -7.4      1.201      1.406
REMARK  Name = 
REMARK  3 active torsions:
REMARK  status: ('A' for Active; 'I' for Inactive)
REMARK    1  A    between atoms: C_2  and  C_10
REMARK    2  A    between atoms: N_13  and  S_14
REMARK    3  A    between atoms: S_14  and  C_17
REMARK                            x       y       z     vdW  Elec       q    Type
REMARK                         _______ _______ _______ _____ _____    ______ ____
ROOT
ATOM      1  C   UNL     1       7.315   5.177  17.660  0.00  0.00    +0.000 C 
ATOM      2  C   UNL     1       6.442   4.108  18.325  0.00  0.00    +0.000 C 
ATOM      3  C   UNL     1       4.950   4.427  18.233  0.00  0.00    +0.000 C 
ATOM      4  N   UNL     1       4.658   5.792  18.759  0.00  0.00    +0.000 NA
ATOM      5  C   UNL     1       5.492   6.855  18.126  0.00  0.00    +0.000 C 
ATOM      6  C   UNL     1       6.978   6.538  18.272  0.00  0.00    +0.000 C 
ENDROOT
BRANCH   1   8
ATOM      7  O   UNL     1       7.493   6.158  15.459  0.00  0.00    +0.000 OA
ATOM      8  C   UNL     1       7.126   5.206  16.143  0.00  0.00    +0.000 C 
ATOM      9  N   UNL     1       6.508   4.083  15.639  0.00  0.00    +0.000 N 
ATOM     10  C   UNL     1       6.296   3.918  14.266  0.00  0.00    +0.000 A 
ATOM     11  C   UNL     1       7.308   4.147  13.340  0.00  0.00    +0.000 A 
ATOM     12  C   UNL     1       7.019   3.995  11.988  0.00  0.00    +0.000 A 
ATOM     13  C   UNL     1       5.727   3.652  11.608  0.00  0.00    +0.000 A 
ATOM     14  C   UNL     1       4.792   3.423  12.606  0.00  0.00    +0.000 A 
ATOM     15  N   UNL     1       5.061   3.505  13.928  0.00  0.00    +0.000 NA
ATOM     16  H   UNL     1       5.775   3.672  16.200  0.00  0.00    +0.000 HD
ENDBRANCH   1   8
BRANCH   4  17
ATOM     17  S   UNL     1       2.986   6.202  18.714  0.00  0.00    +0.000 S 
ATOM     18  O   UNL     1       2.684   7.080  19.824  0.00  0.00    +0.000 OA
ATOM     19  O   UNL     1       2.684   6.611  17.358  0.00  0.00    +0.000 OA
BRANCH  17  20
ATOM     20  C   UNL     1       2.163   4.689  19.009  0.00  0.00    +0.000 A 
ATOM     21  C   UNL     1       1.501   3.992  17.972  0.00  0.00    +0.000 A 
ATOM     22  C   UNL     1       0.815   2.771  18.191  0.00  0.00    +0.000 A 
ATOM     23  C   UNL     1       0.738   2.154  19.454  0.00  0.00    +0.000 A 
ATOM     24  C   UNL     1       1.398   2.839  20.491  0.00  0.00    +0.000 A 
ATOM     25  N   UNL     1       1.505   2.506  21.782  0.00  0.00    +0.000 NA
ATOM     26  O   UNL     1       2.249   3.512  22.370  0.00  0.00    +0.000 OA
ATOM     27  N   UNL     1       2.622   4.473  21.451  0.00  0.00    +0.000 NA
ATOM     28  C   UNL     1       2.106   4.096  20.278  0.00  0.00    +0.000 A 
ENDBRANCH  17  20
ENDBRANCH   4  17
TORSDOF 3
ENDMDL
MODEL 9
REMARK VINA RESULT:      -7.3      7.231     10.047
REMARK  Name = 
REMARK  3 active torsions:
REMARK  status: ('A' for Active; 'I' for Inactive)
REMARK    1  A    between atoms: C_2  and  C_10
REMARK    2  A    between atoms: N_13  and  S_14
REMARK    3  A    between atoms: S_14  and  C_17
REMARK                            x       y       z     vdW  Elec       q    Type
REMARK                         _______ _______ _______ _____ _____    ______ ____
ROOT
ATOM      1  C   UNL     1      -1.163  12.699  19.314  0.00  0.00    +0.000 C 
ATOM      2  C   UNL     1      -0.719  11.593  18.352  0.00  0.00    +0.000 C 
ATOM      3  C   UNL     1      -0.487  10.258  19.058  0.00  0.00    +0.000 C 
ATOM      4  N   UNL     1       0.455  10.412  20.205  0.00  0.00    +0.000 NA
ATOM      5  C   UNL     1       0.045  11.480  21.162  0.00  0.00    +0.000 C 
ATOM      6  C   UNL     1      -0.134  12.814  20.441  0.00  0.00    +0.000 C 
ENDROOT
BRANCH   1   8
ATOM      7  O   UNL     1      -2.774  12.404  21.091  0.00  0.00    +0.000 OA
ATOM      8  C   UNL     1      -2.558  12.436  19.882  0.00  0.00    +0.000 C 
ATOM      9  N   UNL     1      -3.521  12.235  18.918  0.00  0.00    +0.000 N 
ATOM     10  C   UNL     1      -4.862  12.026  19.255  0.00  0.00    +0.000 A 
ATOM     11  C   UNL     1      -5.518  12.842  20.171  0.00  0.00    +0.000 A 
ATOM     12  C   UNL     1      -6.843  12.558  20.484  0.00  0.00    +0.000 A 
ATOM     13  C   UNL     1      -7.454  11.457  19.899  0.00  0.00    +0.000 A 
ATOM     14  C   UNL     1      -6.726  10.717  18.981  0.00  0.00    +0.000 A 
ATOM     15  N   UNL     1      -5.457  11.005  18.613  0.00  0.00    +0.000 NA
ATOM     16  H   UNL     1      -3.243  11.726  18.090  0.00  0.00    +0.000 HD
ENDBRANCH   1   8
BRANCH   4  17
ATOM     17  S   UNL     1       0.783   8.933  21.026  0.00  0.00    +0.000 S 
ATOM     18  O   UNL     1       1.629   9.205  22.169  0.00  0.00    +0.000 OA
ATOM     19  O   UNL     1      -0.482   8.253  21.201  0.00  0.00    +0.000 OA
BRANCH  17  20
ATOM     20  C   UNL     1       1.732   8.009  19.886  0.00  0.00    +0.000 A 
ATOM     21  C   UNL     1       2.236   8.590  18.700  0.00  0.00    +0.000 A 
ATOM     22  C   UNL     1       2.996   7.855  17.755  0.00  0.00    +0.000 A 
ATOM     23  C   UNL     1       3.310   6.493  17.919  0.00  0.00    +0.000 A 
ATOM     24  C   UNL     1       2.815   5.907  19.100  0.00  0.00    +0.000 A 
ATOM     25  N   UNL     1       2.949   4.650  19.534  0.00  0.00    +0.000 NA
ATOM     26  O   UNL     1       2.278   4.593  20.741  0.00  0.00    +0.000 OA
ATOM     27  N   UNL     1       1.728   5.816  21.076  0.00  0.00    +0.000 NA
ATOM     28  C   UNL     1       2.032   6.653  20.079  0.00  0.00    +0.000 A 
ENDBRANCH  17  20
ENDBRANCH   4  17
TORSDOF 3
ENDMDL
