MODEL 1
REMARK VINA RESULT:      -7.2      0.000      0.000
REMARK  Name = 
REMARK  12 active torsions:
REMARK  status: ('A' for Active; 'I' for Inactive)
REMARK    1  A    between atoms: C_1  and  O_2
REMARK    2  A    between atoms: O_2  and  C_3
REMARK    3  A    between atoms: C_3  and  C_4
REMARK    4  A    between atoms: C_4  and  O_5
REMARK    5  A    between atoms: O_5  and  C_6
REMARK    6  A    between atoms: C_6  and  C_8
REMARK    7  A    between atoms: C_8  and  C_9
REMARK    8  A    between atoms: C_9  and  C_10
REMARK    9  A    between atoms: C_10  and  C_11
REMARK   10  A    between atoms: C_11  and  N_12
REMARK   11  A    between atoms: N_12  and  C_13
REMARK   12  A    between atoms: C_13  and  C_14
REMARK                            x       y       z     vdW  Elec       q    Type
REMARK                         _______ _______ _______ _____ _____    ______ ____
ROOT
ATOM      1  C   UNL     1       3.690   5.327  19.001  0.00  0.00    +0.000 C 
ATOM      2  C   UNL     1       3.588   5.846  17.525  0.00  0.00    +0.000 C 
ATOM      3  C   UNL     1       4.689   6.824  17.104  0.00  0.00    +0.000 C 
ATOM      4  C   UNL     1       6.056   6.174  17.261  0.00  0.00    +0.000 C 
ATOM      5  C   UNL     1       6.273   5.729  18.695  0.00  0.00    +0.000 C 
ATOM      6  C   UNL     1       5.162   4.779  19.099  0.00  0.00    +0.000 C 
ATOM      7  O   UNL     1       5.453   3.632  19.438  0.00  0.00    +0.000 OA
ENDROOT
BRANCH   1   8
ATOM      8  C   UNL     1       2.686   4.179  19.308  0.00  0.00    +0.000 A 
ATOM      9  C   UNL     1       2.188   3.985  20.618  0.00  0.00    +0.000 A 
ATOM     10  C   UNL     1       1.191   3.052  20.900  0.00  0.00    +0.000 A 
ATOM     11  C   UNL     1       0.661   2.271  19.882  0.00  0.00    +0.000 A 
ATOM     12  C   UNL     1       1.179   2.381  18.596  0.00  0.00    +0.000 A 
ATOM     13  C   UNL     1       2.201   3.298  18.313  0.00  0.00    +0.000 A 
ATOM     14 CL   UNL     1       2.862   3.227  16.711  0.00  0.00    +0.000 Cl
ENDBRANCH   1   8
BRANCH   1  15
ATOM     15  N   UNL     1       3.541   6.479  19.956  0.00  0.00    +0.000 NA
ATOM     16  H   UNL     1       3.463   6.083  20.898  0.00  0.00    +0.000 HD
BRANCH  15  17
ATOM     17  C   UNL     1       2.336   7.270  19.678  0.00  0.00    +0.000 C 
BRANCH  17  18
ATOM     18  C   UNL     1       1.343   7.343  20.841  0.00  0.00    +0.000 C 
BRANCH  18  19
ATOM     19  C   UNL     1       0.906   8.798  21.085  0.00  0.00    +0.000 C 
BRANCH  19  20
ATOM     20  C   UNL     1      -0.412   8.896  21.859  0.00  0.00    +0.000 C 
BRANCH  20  21
ATOM     21  C   UNL     1      -0.260   9.704  23.120  0.00  0.00    +0.000 C 
ATOM     22  O   UNL     1       0.681   9.649  23.895  0.00  0.00    +0.000 OA
BRANCH  21  23
ATOM     23  O   UNL     1      -1.374  10.471  23.286  0.00  0.00    +0.000 OA
BRANCH  23  24
ATOM     24  C   UNL     1      -1.203  11.813  22.843  0.00  0.00    +0.000 C 
BRANCH  24  25
ATOM     25  C   UNL     1      -2.274  12.750  23.365  0.00  0.00    +0.000 C 
BRANCH  25  27
ATOM     26  C   UNL     1      -4.278  12.509  24.588  0.00  0.00    +0.000 C 
ATOM     27  O   UNL     1      -3.435  11.953  23.598  0.00  0.00    +0.000 OA
ENDBRANCH  25  27
ENDBRANCH  24  25
ENDBRANCH  23  24
ENDBRANCH  21  23
ENDBRANCH  20  21
ENDBRANCH  19  20
ENDBRANCH  18  19
ENDBRANCH  17  18
ENDBRANCH  15  17
ENDBRANCH   1  15
TORSDOF 11
ENDMDL
MODEL 2
REMARK VINA RESULT:      -7.0      1.985      4.005
REMARK  Name = 
REMARK  12 active torsions:
REMARK  status: ('A' for Active; 'I' for Inactive)
REMARK    1  A    between atoms: C_1  and  O_2
REMARK    2  A    between atoms: O_2  and  C_3
REMARK    3  A    between atoms: C_3  and  C_4
REMARK    4  A    between atoms: C_4  and  O_5
REMARK    5  A    between atoms: O_5  and  C_6
REMARK    6  A    between atoms: C_6  and  C_8
REMARK    7  A    between atoms: C_8  and  C_9
REMARK    8  A    between atoms: C_9  and  C_10
REMARK    9  A    between atoms: C_10  and  C_11
REMARK   10  A    between atoms: C_11  and  N_12
REMARK   11  A    between atoms: N_12  and  C_13
REMARK   12  A    between atoms: C_13  and  C_14
REMARK                            x       y       z     vdW  Elec       q    Type
REMARK                         _______ _______ _______ _____ _____    ______ ____
ROOT
ATOM      1  C   UNL     1       3.103   4.744  19.129  0.00  0.00    +0.000 C 
ATOM      2  C   UNL     1       3.608   3.660  20.143  0.00  0.00    +0.000 C 
ATOM      3  C   UNL     1       2.699   3.435  21.355  0.00  0.00    +0.000 C 
ATOM      4  C   UNL     1       1.310   3.014  20.899  0.00  0.00    +0.000 C 
ATOM      5  C   UNL     1       0.709   4.065  19.984  0.00  0.00    +0.000 C 
ATOM      6  C   UNL     1       1.632   4.289  18.803  0.00  0.00    +0.000 C 
ATOM      7  O   UNL     1       1.211   4.070  17.667  0.00  0.00    +0.000 OA
ENDROOT
BRANCH   1   8
ATOM      8  C   UNL     1       3.940   4.780  17.818  0.00  0.00    +0.000 A 
ATOM      9  C   UNL     1       4.331   6.013  17.243  0.00  0.00    +0.000 A 
ATOM     10  C   UNL     1       5.188   6.079  16.145  0.00  0.00    +0.000 A 
ATOM     11  C   UNL     1       5.679   4.912  15.575  0.00  0.00    +0.000 A 
ATOM     12  C   UNL     1       5.256   3.681  16.066  0.00  0.00    +0.000 A 
ATOM     13  C   UNL     1       4.372   3.610  17.152  0.00  0.00    +0.000 A 
ATOM     14 CL   UNL     1       3.805   2.024  17.565  0.00  0.00    +0.000 Cl
ENDBRANCH   1   8
BRANCH   1  15
ATOM     15  N   UNL     1       3.053   6.087  19.804  0.00  0.00    +0.000 NA
ATOM     16  H   UNL     1       2.570   5.959  20.698  0.00  0.00    +0.000 HD
BRANCH  15  17
ATOM     17  C   UNL     1       2.314   7.075  19.009  0.00  0.00    +0.000 C 
BRANCH  17  18
ATOM     18  C   UNL     1       1.832   8.294  19.801  0.00  0.00    +0.000 C 
BRANCH  18  19
ATOM     19  C   UNL     1       1.410   7.879  21.221  0.00  0.00    +0.000 C 
BRANCH  19  20
ATOM     20  C   UNL     1       0.090   8.524  21.657  0.00  0.00    +0.000 C 
BRANCH  20  21
ATOM     21  C   UNL     1       0.316   9.678  22.597  0.00  0.00    +0.000 C 
ATOM     22  O   UNL     1       0.272   9.626  23.815  0.00  0.00    +0.000 OA
BRANCH  21  23
ATOM     23  O   UNL     1       0.526  10.807  21.864  0.00  0.00    +0.000 OA
BRANCH  23  24
ATOM     24  C   UNL     1      -0.579  11.703  21.883  0.00  0.00    +0.000 C 
BRANCH  24  25
ATOM     25  C   UNL     1      -1.230  11.871  20.524  0.00  0.00    +0.000 C 
BRANCH  25  27
ATOM     26  C   UNL     1      -0.983  10.493  18.624  0.00  0.00    +0.000 C 
ATOM     27  O   UNL     1      -0.326  11.316  19.568  0.00  0.00    +0.000 OA
ENDBRANCH  25  27
ENDBRANCH  24  25
ENDBRANCH  23  24
ENDBRANCH  21  23
ENDBRANCH  20  21
ENDBRANCH  19  20
ENDBRANCH  18  19
ENDBRANCH  17  18
ENDBRANCH  15  17
ENDBRANCH   1  15
TORSDOF 11
ENDMDL
MODEL 3
REMARK VINA RESULT:      -6.9      1.825      2.719
REMARK  Name = 
REMARK  12 active torsions:
REMARK  status: ('A' for Active; 'I' for Inactive)
REMARK    1  A    between atoms: C_1  and  O_2
REMARK    2  A    between atoms: O_2  and  C_3
REMARK    3  A    between atoms: C_3  and  C_4
REMARK    4  A    between atoms: C_4  and  O_5
REMARK    5  A    between atoms: O_5  and  C_6
REMARK    6  A    between atoms: C_6  and  C_8
REMARK    7  A    between atoms: C_8  and  C_9
REMARK    8  A    between atoms: C_9  and  C_10
REMARK    9  A    between atoms: C_10  and  C_11
REMARK   10  A    between atoms: C_11  and  N_12
REMARK   11  A    between atoms: N_12  and  C_13
REMARK   12  A    between atoms: C_13  and  C_14
REMARK                            x       y       z     vdW  Elec       q    Type
REMARK                         _______ _______ _______ _____ _____    ______ ____
ROOT
ATOM      1  C   UNL     1       4.247   5.300  18.239  0.00  0.00    +0.000 C 
ATOM      2  C   UNL     1       4.732   5.382  16.750  0.00  0.00    +0.000 C 
ATOM      3  C   UNL     1       6.023   6.178  16.533  0.00  0.00    +0.000 C 
ATOM      4  C   UNL     1       7.157   5.570  17.345  0.00  0.00    +0.000 C 
ATOM      5  C   UNL     1       6.801   5.545  18.820  0.00  0.00    +0.000 C 
ATOM      6  C   UNL     1       5.511   4.772  19.012  0.00  0.00    +0.000 C 
ATOM      7  O   UNL     1       5.521   3.762  19.715  0.00  0.00    +0.000 OA
ENDROOT
BRANCH   1   8
ATOM      8  C   UNL     1       3.065   4.308  18.433  0.00  0.00    +0.000 A 
ATOM      9  C   UNL     1       2.834   3.266  17.504  0.00  0.00    +0.000 A 
ATOM     10  C   UNL     1       1.867   2.284  17.716  0.00  0.00    +0.000 A 
ATOM     11  C   UNL     1       1.088   2.313  18.865  0.00  0.00    +0.000 A 
ATOM     12  C   UNL     1       1.235   3.364  19.765  0.00  0.00    +0.000 A 
ATOM     13  C   UNL     1       2.187   4.369  19.540  0.00  0.00    +0.000 A 
ATOM     14 CL   UNL     1       2.162   5.698  20.654  0.00  0.00    +0.000 Cl
ENDBRANCH   1   8
BRANCH   1  15
ATOM     15  N   UNL     1       3.916   6.678  18.742  0.00  0.00    +0.000 NA
ATOM     16  H   UNL     1       3.276   6.566  19.534  0.00  0.00    +0.000 HD
BRANCH  15  17
ATOM     17  C   UNL     1       3.256   7.494  17.717  0.00  0.00    +0.000 C 
BRANCH  17  18
ATOM     18  C   UNL     1       1.840   7.950  18.083  0.00  0.00    +0.000 C 
BRANCH  18  19
ATOM     19  C   UNL     1       1.669   9.452  17.799  0.00  0.00    +0.000 C 
BRANCH  19  20
ATOM     20  C   UNL     1       1.405  10.266  19.070  0.00  0.00    +0.000 C 
BRANCH  20  21
ATOM     21  C   UNL     1       0.171   9.791  19.792  0.00  0.00    +0.000 C 
ATOM     22  O   UNL     1      -0.965  10.193  19.603  0.00  0.00    +0.000 OA
BRANCH  21  23
ATOM     23  O   UNL     1       0.538   8.875  20.730  0.00  0.00    +0.000 OA
BRANCH  23  24
ATOM     24  C   UNL     1       0.977   9.464  21.949  0.00  0.00    +0.000 C 
BRANCH  24  25
ATOM     25  C   UNL     1      -0.089   9.458  23.027  0.00  0.00    +0.000 C 
BRANCH  25  27
ATOM     26  C   UNL     1      -1.651  11.226  23.097  0.00  0.00    +0.000 C 
ATOM     27  O   UNL     1      -0.324  10.822  23.376  0.00  0.00    +0.000 OA
ENDBRANCH  25  27
ENDBRANCH  24  25
ENDBRANCH  23  24
ENDBRANCH  21  23
ENDBRANCH  20  21
ENDBRANCH  19  20
ENDBRANCH  18  19
ENDBRANCH  17  18
ENDBRANCH  15  17
ENDBRANCH   1  15
TORSDOF 11
ENDMDL
MODEL 4
REMARK VINA RESULT:      -6.9      3.318      5.114
REMARK  Name = 
REMARK  12 active torsions:
REMARK  status: ('A' for Active; 'I' for Inactive)
REMARK    1  A    between atoms: C_1  and  O_2
REMARK    2  A    between atoms: O_2  and  C_3
REMARK    3  A    between atoms: C_3  and  C_4
REMARK    4  A    between atoms: C_4  and  O_5
REMARK    5  A    between atoms: O_5  and  C_6
REMARK    6  A    between atoms: C_6  and  C_8
REMARK    7  A    between atoms: C_8  and  C_9
REMARK    8  A    between atoms: C_9  and  C_10
REMARK    9  A    between atoms: C_10  and  C_11
REMARK   10  A    between atoms: C_11  and  N_12
REMARK   11  A    between atoms: N_12  and  C_13
REMARK   12  A    between atoms: C_13  and  C_14
REMARK                            x       y       z     vdW  Elec       q    Type
REMARK                         _______ _______ _______ _____ _____    ______ ____
ROOT
ATOM      1  C   UNL     1       3.455   4.762  18.627  0.00  0.00    +0.000 C 
ATOM      2  C   UNL     1       3.043   4.984  20.124  0.00  0.00    +0.000 C 
ATOM      3  C   UNL     1       1.586   4.645  20.453  0.00  0.00    +0.000 C 
ATOM      4  C   UNL     1       1.298   3.188  20.116  0.00  0.00    +0.000 C 
ATOM      5  C   UNL     1       1.580   2.915  18.650  0.00  0.00    +0.000 C 
ATOM      6  C   UNL     1       3.020   3.277  18.341  0.00  0.00    +0.000 C 
ATOM      7  O   UNL     1       3.779   2.401  17.927  0.00  0.00    +0.000 OA
ENDROOT
BRANCH   1   8
ATOM      8  C   UNL     1       4.986   4.911  18.394  0.00  0.00    +0.000 A 
ATOM      9  C   UNL     1       5.845   5.291  19.453  0.00  0.00    +0.000 A 
ATOM     10  C   UNL     1       7.232   5.307  19.311  0.00  0.00    +0.000 A 
ATOM     11  C   UNL     1       7.811   4.951  18.101  0.00  0.00    +0.000 A 
ATOM     12  C   UNL     1       6.996   4.644  17.016  0.00  0.00    +0.000 A 
ATOM     13  C   UNL     1       5.600   4.655  17.146  0.00  0.00    +0.000 A 
ATOM     14 CL   UNL     1       4.700   4.406  15.685  0.00  0.00    +0.000 Cl
ENDBRANCH   1   8
BRANCH   1  15
ATOM     15  N   UNL     1       2.657   5.677  17.740  0.00  0.00    +0.000 NA
ATOM     16  H   UNL     1       2.820   5.380  16.773  0.00  0.00    +0.000 HD
BRANCH  15  17
ATOM     17  C   UNL     1       3.073   7.077  17.878  0.00  0.00    +0.000 C 
BRANCH  17  18
ATOM     18  C   UNL     1       2.143   7.934  18.741  0.00  0.00    +0.000 C 
BRANCH  18  19
ATOM     19  C   UNL     1       1.552   9.088  17.913  0.00  0.00    +0.000 C 
BRANCH  19  20
ATOM     20  C   UNL     1       1.271  10.336  18.756  0.00  0.00    +0.000 C 
BRANCH  20  21
ATOM     21  C   UNL     1      -0.057  10.956  18.411  0.00  0.00    +0.000 C 
ATOM     22  O   UNL     1      -0.405  12.093  18.683  0.00  0.00    +0.000 OA
BRANCH  21  23
ATOM     23  O   UNL     1      -0.829  10.022  17.791  0.00  0.00    +0.000 OA
BRANCH  23  24
ATOM     24  C   UNL     1      -2.197  10.076  18.178  0.00  0.00    +0.000 C 
BRANCH  24  25
ATOM     25  C   UNL     1      -3.150   9.932  17.008  0.00  0.00    +0.000 C 
BRANCH  25  27
ATOM     26  C   UNL     1      -3.008  10.139  14.662  0.00  0.00    +0.000 C 
ATOM     27  O   UNL     1      -2.555  10.624  15.911  0.00  0.00    +0.000 OA
ENDBRANCH  25  27
ENDBRANCH  24  25
ENDBRANCH  23  24
ENDBRANCH  21  23
ENDBRANCH  20  21
ENDBRANCH  19  20
ENDBRANCH  18  19
ENDBRANCH  17  18
ENDBRANCH  15  17
ENDBRANCH   1  15
TORSDOF 11
ENDMDL
MODEL 5
REMARK VINA RESULT:      -6.8      1.846      2.614
REMARK  Name = 
REMARK  12 active torsions:
REMARK  status: ('A' for Active; 'I' for Inactive)
REMARK    1  A    between atoms: C_1  and  O_2
REMARK    2  A    between atoms: O_2  and  C_3
REMARK    3  A    between atoms: C_3  and  C_4
REMARK    4  A    between atoms: C_4  and  O_5
REMARK    5  A    between atoms: O_5  and  C_6
REMARK    6  A    between atoms: C_6  and  C_8
REMARK    7  A    between atoms: C_8  and  C_9
REMARK    8  A    between atoms: C_9  and  C_10
REMARK    9  A    between atoms: C_10  and  C_11
REMARK   10  A    between atoms: C_11  and  N_12
REMARK   11  A    between atoms: N_12  and  C_13
REMARK   12  A    between atoms: C_13  and  C_14
REMARK                            x       y       z     vdW  Elec       q    Type
REMARK                         _______ _______ _______ _____ _____    ______ ____
ROOT
ATOM      1  C   UNL     1       4.108   5.194  18.285  0.00  0.00    +0.000 C 
ATOM      2  C   UNL     1       4.145   4.848  16.756  0.00  0.00    +0.000 C 
ATOM      3  C   UNL     1       5.326   5.447  15.985  0.00  0.00    +0.000 C 
ATOM      4  C   UNL     1       6.641   4.973  16.588  0.00  0.00    +0.000 C 
ATOM      5  C   UNL     1       6.724   5.359  18.054  0.00  0.00    +0.000 C 
ATOM      6  C   UNL     1       5.537   4.775  18.794  0.00  0.00    +0.000 C 
ATOM      7  O   UNL     1       5.739   3.983  19.715  0.00  0.00    +0.000 OA
ENDROOT
BRANCH   1   8
ATOM      8  C   UNL     1       3.023   4.391  19.059  0.00  0.00    +0.000 A 
ATOM      9  C   UNL     1       2.262   5.003  20.082  0.00  0.00    +0.000 A 
ATOM     10  C   UNL     1       1.197   4.353  20.704  0.00  0.00    +0.000 A 
ATOM     11  C   UNL     1       0.859   3.059  20.330  0.00  0.00    +0.000 A 
ATOM     12  C   UNL     1       1.632   2.398  19.381  0.00  0.00    +0.000 A 
ATOM     13  C   UNL     1       2.721   3.039  18.774  0.00  0.00    +0.000 A 
ATOM     14 CL   UNL     1       3.692   2.055  17.726  0.00  0.00    +0.000 Cl
ENDBRANCH   1   8
BRANCH   1  15
ATOM     15  N   UNL     1       3.948   6.678  18.466  0.00  0.00    +0.000 NA
ATOM     16  H   UNL     1       3.688   6.838  19.444  0.00  0.00    +0.000 HD
BRANCH  15  17
ATOM     17  C   UNL     1       2.895   7.227  17.605  0.00  0.00    +0.000 C 
BRANCH  17  18
ATOM     18  C   UNL     1       2.593   8.710  17.839  0.00  0.00    +0.000 C 
BRANCH  18  19
ATOM     19  C   UNL     1       1.393   8.870  18.789  0.00  0.00    +0.000 C 
BRANCH  19  20
ATOM     20  C   UNL     1       1.042  10.339  19.053  0.00  0.00    +0.000 C 
BRANCH  20  21
ATOM     21  C   UNL     1      -0.446  10.549  19.148  0.00  0.00    +0.000 C 
ATOM     22  O   UNL     1      -1.287  10.034  18.429  0.00  0.00    +0.000 OA
BRANCH  21  23
ATOM     23  O   UNL     1      -0.699  11.452  20.135  0.00  0.00    +0.000 OA
BRANCH  23  24
ATOM     24  C   UNL     1       0.095  11.251  21.299  0.00  0.00    +0.000 C 
BRANCH  24  25
ATOM     25  C   UNL     1      -0.712  11.289  22.581  0.00  0.00    +0.000 C 
BRANCH  25  27
ATOM     26  C   UNL     1       0.620   9.346  22.718  0.00  0.00    +0.000 C 
ATOM     27  O   UNL     1      -0.181  10.270  23.427  0.00  0.00    +0.000 OA
ENDBRANCH  25  27
ENDBRANCH  24  25
ENDBRANCH  23  24
ENDBRANCH  21  23
ENDBRANCH  20  21
ENDBRANCH  19  20
ENDBRANCH  18  19
ENDBRANCH  17  18
ENDBRANCH  15  17
ENDBRANCH   1  15
TORSDOF 11
ENDMDL
MODEL 6
REMARK VINA RESULT:      -6.8      3.103      4.779
REMARK  Name = 
REMARK  12 active torsions:
REMARK  status: ('A' for Active; 'I' for Inactive)
REMARK    1  A    between atoms: C_1  and  O_2
REMARK    2  A    between atoms: O_2  and  C_3
REMARK    3  A    between atoms: C_3  and  C_4
REMARK    4  A    between atoms: C_4  and  O_5
REMARK    5  A    between atoms: O_5  and  C_6
REMARK    6  A    between atoms: C_6  and  C_8
REMARK    7  A    between atoms: C_8  and  C_9
REMARK    8  A    between atoms: C_9  and  C_10
REMARK    9  A    between atoms: C_10  and  C_11
REMARK   10  A    between atoms: C_11  and  N_12
REMARK   11  A    between atoms: N_12  and  C_13
REMARK   12  A    between atoms: C_13  and  C_14
REMARK                            x       y       z     vdW  Elec       q    Type
REMARK                         _______ _______ _______ _____ _____    ______ ____
ROOT
ATOM      1  C   UNL     1       3.145   4.601  19.272  0.00  0.00    +0.000 C 
ATOM      2  C   UNL     1       3.659   3.343  20.053  0.00  0.00    +0.000 C 
ATOM      3  C   UNL     1       2.794   2.923  21.246  0.00  0.00    +0.000 C 
ATOM      4  C   UNL     1       1.375   2.621  20.784  0.00  0.00    +0.000 C 
ATOM      5  C   UNL     1       0.769   3.832  20.099  0.00  0.00    +0.000 C 
ATOM      6  C   UNL     1       1.650   4.244  18.936  0.00  0.00    +0.000 C 
ATOM      7  O   UNL     1       1.177   4.240  17.800  0.00  0.00    +0.000 OA
ENDROOT
BRANCH   1   8
ATOM      8  C   UNL     1       3.930   4.853  17.952  0.00  0.00    +0.000 A 
ATOM      9  C   UNL     1       4.230   6.169  17.529  0.00  0.00    +0.000 A 
ATOM     10  C   UNL     1       5.041   6.425  16.423  0.00  0.00    +0.000 A 
ATOM     11  C   UNL     1       5.574   5.371  15.694  0.00  0.00    +0.000 A 
ATOM     12  C   UNL     1       5.240   4.065  16.035  0.00  0.00    +0.000 A 
ATOM     13  C   UNL     1       4.402   3.804  17.129  0.00  0.00    +0.000 A 
ATOM     14 CL   UNL     1       3.940   2.147  17.351  0.00  0.00    +0.000 Cl
ENDBRANCH   1   8
BRANCH   1  15
ATOM     15  N   UNL     1       3.162   5.802  20.176  0.00  0.00    +0.000 NA
ATOM     16  H   UNL     1       2.857   5.488  21.102  0.00  0.00    +0.000 HD
BRANCH  15  17
ATOM     17  C   UNL     1       2.248   6.853  19.712  0.00  0.00    +0.000 C 
BRANCH  17  18
ATOM     18  C   UNL     1       1.297   7.387  20.787  0.00  0.00    +0.000 C 
BRANCH  18  19
ATOM     19  C   UNL     1       1.425   8.915  20.906  0.00  0.00    +0.000 C 
BRANCH  19  20
ATOM     20  C   UNL     1       0.224   9.656  20.309  0.00  0.00    +0.000 C 
BRANCH  20  21
ATOM     21  C   UNL     1       0.523  10.188  18.933  0.00  0.00    +0.000 C 
ATOM     22  O   UNL     1       1.562  10.026  18.316  0.00  0.00    +0.000 OA
BRANCH  21  23
ATOM     23  O   UNL     1      -0.540  10.926  18.508  0.00  0.00    +0.000 OA
BRANCH  23  24
ATOM     24  C   UNL     1      -1.543  10.149  17.864  0.00  0.00    +0.000 C 
BRANCH  24  25
ATOM     25  C   UNL     1      -2.931  10.742  18.003  0.00  0.00    +0.000 C 
BRANCH  25  27
ATOM     26  C   UNL     1      -2.765  10.620  15.652  0.00  0.00    +0.000 C 
ATOM     27  O   UNL     1      -3.233  11.369  16.756  0.00  0.00    +0.000 OA
ENDBRANCH  25  27
ENDBRANCH  24  25
ENDBRANCH  23  24
ENDBRANCH  21  23
ENDBRANCH  20  21
ENDBRANCH  19  20
ENDBRANCH  18  19
ENDBRANCH  17  18
ENDBRANCH  15  17
ENDBRANCH   1  15
TORSDOF 11
ENDMDL
MODEL 7
REMARK VINA RESULT:      -6.8      2.718      3.325
REMARK  Name = 
REMARK  12 active torsions:
REMARK  status: ('A' for Active; 'I' for Inactive)
REMARK    1  A    between atoms: C_1  and  O_2
REMARK    2  A    between atoms: O_2  and  C_3
REMARK    3  A    between atoms: C_3  and  C_4
REMARK    4  A    between atoms: C_4  and  O_5
REMARK    5  A    between atoms: O_5  and  C_6
REMARK    6  A    between atoms: C_6  and  C_8
REMARK    7  A    between atoms: C_8  and  C_9
REMARK    8  A    between atoms: C_9  and  C_10
REMARK    9  A    between atoms: C_10  and  C_11
REMARK   10  A    between atoms: C_11  and  N_12
REMARK   11  A    between atoms: N_12  and  C_13
REMARK   12  A    between atoms: C_13  and  C_14
REMARK                            x       y       z     vdW  Elec       q    Type
REMARK                         _______ _______ _______ _____ _____    ______ ____
ROOT
ATOM      1  C   UNL     1       4.205   4.997  18.224  0.00  0.00    +0.000 C 
ATOM      2  C   UNL     1       4.193   4.739  16.677  0.00  0.00    +0.000 C 
ATOM      3  C   UNL     1       5.455   5.192  15.936  0.00  0.00    +0.000 C 
ATOM      4  C   UNL     1       6.679   4.486  16.503  0.00  0.00    +0.000 C 
ATOM      5  C   UNL     1       6.816   4.769  17.987  0.00  0.00    +0.000 C 
ATOM      6  C   UNL     1       5.550   4.334  18.700  0.00  0.00    +0.000 C 
ATOM      7  O   UNL     1       5.625   3.468  19.572  0.00  0.00    +0.000 OA
ENDROOT
BRANCH   1   8
ATOM      8  C   UNL     1       3.007   4.328  18.956  0.00  0.00    +0.000 A 
ATOM      9  C   UNL     1       2.331   5.001  20.002  0.00  0.00    +0.000 A 
ATOM     10  C   UNL     1       1.176   4.486  20.589  0.00  0.00    +0.000 A 
ATOM     11  C   UNL     1       0.658   3.273  20.157  0.00  0.00    +0.000 A 
ATOM     12  C   UNL     1       1.337   2.548  19.183  0.00  0.00    +0.000 A 
ATOM     13  C   UNL     1       2.515   3.048  18.610  0.00  0.00    +0.000 A 
ATOM     14 CL   UNL     1       3.344   1.980  17.524  0.00  0.00    +0.000 Cl
ENDBRANCH   1   8
BRANCH   1  15
ATOM     15  N   UNL     1       4.277   6.476  18.492  0.00  0.00    +0.000 NA
ATOM     16  H   UNL     1       3.817   6.643  19.392  0.00  0.00    +0.000 HD
BRANCH  15  17
ATOM     17  C   UNL     1       3.585   7.255  17.459  0.00  0.00    +0.000 C 
BRANCH  17  18
ATOM     18  C   UNL     1       2.175   7.711  17.847  0.00  0.00    +0.000 C 
BRANCH  18  19
ATOM     19  C   UNL     1       2.101   9.247  17.894  0.00  0.00    +0.000 C 
BRANCH  19  20
ATOM     20  C   UNL     1       0.699   9.760  18.241  0.00  0.00    +0.000 C 
BRANCH  20  21
ATOM     21  C   UNL     1       0.564  10.066  19.709  0.00  0.00    +0.000 C 
ATOM     22  O   UNL     1       0.968   9.367  20.623  0.00  0.00    +0.000 OA
BRANCH  21  23
ATOM     23  O   UNL     1      -0.133  11.227  19.852  0.00  0.00    +0.000 OA
BRANCH  23  24
ATOM     24  C   UNL     1       0.577  12.371  19.390  0.00  0.00    +0.000 C 
BRANCH  24  25
ATOM     25  C   UNL     1       1.599  12.876  20.389  0.00  0.00    +0.000 C 
BRANCH  25  27
ATOM     26  C   UNL     1       2.591  13.037  18.254  0.00  0.00    +0.000 C 
ATOM     27  O   UNL     1       2.720  13.330  19.632  0.00  0.00    +0.000 OA
ENDBRANCH  25  27
ENDBRANCH  24  25
ENDBRANCH  23  24
ENDBRANCH  21  23
ENDBRANCH  20  21
ENDBRANCH  19  20
ENDBRANCH  18  19
ENDBRANCH  17  18
ENDBRANCH  15  17
ENDBRANCH   1  15
TORSDOF 11
ENDMDL
MODEL 8
REMARK VINA RESULT:      -6.8      3.379      4.033
REMARK  Name = 
REMARK  12 active torsions:
REMARK  status: ('A' for Active; 'I' for Inactive)
REMARK    1  A    between atoms: C_1  and  O_2
REMARK    2  A    between atoms: O_2  and  C_3
REMARK    3  A    between atoms: C_3  and  C_4
REMARK    4  A    between atoms: C_4  and  O_5
REMARK    5  A    between atoms: O_5  and  C_6
REMARK    6  A    between atoms: C_6  and  C_8
REMARK    7  A    between atoms: C_8  and  C_9
REMARK    8  A    between atoms: C_9  and  C_10
REMARK    9  A    between atoms: C_10  and  C_11
REMARK   10  A    between atoms: C_11  and  N_12
REMARK   11  A    between atoms: N_12  and  C_13
REMARK   12  A    between atoms: C_13  and  C_14
REMARK                            x       y       z     vdW  Elec       q    Type
REMARK                         _______ _______ _______ _____ _____    ______ ____
ROOT
ATOM      1  C   UNL     1       4.134   5.183  18.165  0.00  0.00    +0.000 C 
ATOM      2  C   UNL     1       4.584   5.178  16.663  0.00  0.00    +0.000 C 
ATOM      3  C   UNL     1       5.843   5.997  16.361  0.00  0.00    +0.000 C 
ATOM      4  C   UNL     1       7.014   5.481  17.185  0.00  0.00    +0.000 C 
ATOM      5  C   UNL     1       6.692   5.545  18.667  0.00  0.00    +0.000 C 
ATOM      6  C   UNL     1       5.432   4.747  18.941  0.00  0.00    +0.000 C 
ATOM      7  O   UNL     1       5.489   3.788  19.711  0.00  0.00    +0.000 OA
ENDROOT
BRANCH   1   8
ATOM      8  C   UNL     1       2.989   4.171  18.455  0.00  0.00    +0.000 A 
ATOM      9  C   UNL     1       2.692   3.134  17.539  0.00  0.00    +0.000 A 
ATOM     10  C   UNL     1       1.762   2.135  17.827  0.00  0.00    +0.000 A 
ATOM     11  C   UNL     1       1.089   2.142  19.041  0.00  0.00    +0.000 A 
ATOM     12  C   UNL     1       1.300   3.187  19.935  0.00  0.00    +0.000 A 
ATOM     13  C   UNL     1       2.213   4.208  19.636  0.00  0.00    +0.000 A 
ATOM     14 CL   UNL     1       2.268   5.528  20.761  0.00  0.00    +0.000 Cl
ENDBRANCH   1   8
BRANCH   1  15
ATOM     15  N   UNL     1       3.771   6.581  18.582  0.00  0.00    +0.000 NA
ATOM     16  H   UNL     1       3.442   6.533  19.551  0.00  0.00    +0.000 HD
BRANCH  15  17
ATOM     17  C   UNL     1       2.699   7.142  17.752  0.00  0.00    +0.000 C 
BRANCH  17  18
ATOM     18  C   UNL     1       2.551   8.663  17.848  0.00  0.00    +0.000 C 
BRANCH  18  19
ATOM     19  C   UNL     1       1.447   9.033  18.854  0.00  0.00    +0.000 C 
BRANCH  19  20
ATOM     20  C   UNL     1       0.822  10.402  18.567  0.00  0.00    +0.000 C 
BRANCH  20  21
ATOM     21  C   UNL     1      -0.501  10.570  19.266  0.00  0.00    +0.000 C 
ATOM     22  O   UNL     1      -0.752  10.229  20.410  0.00  0.00    +0.000 OA
BRANCH  21  23
ATOM     23  O   UNL     1      -1.391  11.119  18.394  0.00  0.00    +0.000 OA
BRANCH  23  24
ATOM     24  C   UNL     1      -1.760  10.239  17.338  0.00  0.00    +0.000 C 
BRANCH  24  25
ATOM     25  C   UNL     1      -2.643  10.899  16.298  0.00  0.00    +0.000 C 
BRANCH  25  27
ATOM     26  C   UNL     1      -3.754  10.131  14.362  0.00  0.00    +0.000 C 
ATOM     27  O   UNL     1      -2.563  10.090  15.124  0.00  0.00    +0.000 OA
ENDBRANCH  25  27
ENDBRANCH  24  25
ENDBRANCH  23  24
ENDBRANCH  21  23
ENDBRANCH  20  21
ENDBRANCH  19  20
ENDBRANCH  18  19
ENDBRANCH  17  18
ENDBRANCH  15  17
ENDBRANCH   1  15
TORSDOF 11
ENDMDL
MODEL 9
REMARK VINA RESULT:      -6.7      1.510      3.576
REMARK  Name = 
REMARK  12 active torsions:
REMARK  status: ('A' for Active; 'I' for Inactive)
REMARK    1  A    between atoms: C_1  and  O_2
REMARK    2  A    between atoms: O_2  and  C_3
REMARK    3  A    between atoms: C_3  and  C_4
REMARK    4  A    between atoms: C_4  and  O_5
REMARK    5  A    between atoms: O_5  and  C_6
REMARK    6  A    between atoms: C_6  and  C_8
REMARK    7  A    between atoms: C_8  and  C_9
REMARK    8  A    between atoms: C_9  and  C_10
REMARK    9  A    between atoms: C_10  and  C_11
REMARK   10  A    between atoms: C_11  and  N_12
REMARK   11  A    between atoms: N_12  and  C_13
REMARK   12  A    between atoms: C_13  and  C_14
REMARK                            x       y       z     vdW  Elec       q    Type
REMARK                         _______ _______ _______ _____ _____    ______ ____
ROOT
ATOM      1  C   UNL     1       3.088   4.601  19.286  0.00  0.00    +0.000 C 
ATOM      2  C   UNL     1       3.674   3.359  20.043  0.00  0.00    +0.000 C 
ATOM      3  C   UNL     1       2.856   2.891  21.251  0.00  0.00    +0.000 C 
ATOM      4  C   UNL     1       1.441   2.531  20.819  0.00  0.00    +0.000 C 
ATOM      5  C   UNL     1       0.767   3.721  20.160  0.00  0.00    +0.000 C 
ATOM      6  C   UNL     1       1.603   4.181  18.982  0.00  0.00    +0.000 C 
ATOM      7  O   UNL     1       1.104   4.167  17.856  0.00  0.00    +0.000 OA
ENDROOT
BRANCH   1   8
ATOM      8  C   UNL     1       3.830   4.898  17.952  0.00  0.00    +0.000 A 
ATOM      9  C   UNL     1       4.147   6.227  17.582  0.00  0.00    +0.000 A 
ATOM     10  C   UNL     1       4.923   6.518  16.460  0.00  0.00    +0.000 A 
ATOM     11  C   UNL     1       5.404   5.489  15.661  0.00  0.00    +0.000 A 
ATOM     12  C   UNL     1       5.049   4.175  15.952  0.00  0.00    +0.000 A 
ATOM     13  C   UNL     1       4.246   3.881  17.062  0.00  0.00    +0.000 A 
ATOM     14 CL   UNL     1       3.751   2.226  17.222  0.00  0.00    +0.000 Cl
ENDBRANCH   1   8
BRANCH   1  15
ATOM     15  N   UNL     1       3.074   5.793  20.203  0.00  0.00    +0.000 NA
ATOM     16  H   UNL     1       3.389   5.472  21.123  0.00  0.00    +0.000 HD
BRANCH  15  17
ATOM     17  C   UNL     1       1.729   6.364  20.340  0.00  0.00    +0.000 C 
BRANCH  17  18
ATOM     18  C   UNL     1       1.664   7.883  20.162  0.00  0.00    +0.000 C 
BRANCH  18  19
ATOM     19  C   UNL     1       1.405   8.573  21.513  0.00  0.00    +0.000 C 
BRANCH  19  20
ATOM     20  C   UNL     1       0.813   9.977  21.355  0.00  0.00    +0.000 C 
BRANCH  20  21
ATOM     21  C   UNL     1      -0.123  10.320  22.483  0.00  0.00    +0.000 C 
ATOM     22  O   UNL     1      -0.033   9.917  23.631  0.00  0.00    +0.000 OA
BRANCH  21  23
ATOM     23  O   UNL     1      -1.120  11.112  22.000  0.00  0.00    +0.000 OA
BRANCH  23  24
ATOM     24  C   UNL     1      -1.652  12.003  22.974  0.00  0.00    +0.000 C 
BRANCH  24  25
ATOM     25  C   UNL     1      -3.109  12.342  22.734  0.00  0.00    +0.000 C 
BRANCH  25  27
ATOM     26  C   UNL     1      -5.029  12.810  24.024  0.00  0.00    +0.000 C 
ATOM     27  O   UNL     1      -3.785  12.138  23.974  0.00  0.00    +0.000 OA
ENDBRANCH  25  27
ENDBRANCH  24  25
ENDBRANCH  23  24
ENDBRANCH  21  23
ENDBRANCH  20  21
ENDBRANCH  19  20
ENDBRANCH  18  19
ENDBRANCH  17  18
ENDBRANCH  15  17
ENDBRANCH   1  15
TORSDOF 11
ENDMDL
