MODEL 1
REMARK VINA RESULT:      -7.8      0.000      0.000
REMARK  Name = 
REMARK  3 active torsions:
REMARK  status: ('A' for Active; 'I' for Inactive)
REMARK    1  A    between atoms: C_1  and  N_2
REMARK    2  A    between atoms: C_7  and  C_9
REMARK    3  A    between atoms: C_17  and  C_19
REMARK                            x       y       z     vdW  Elec       q    Type
REMARK                         _______ _______ _______ _____ _____    ______ ____
ROOT
ATOM      1  C   UNL     1       2.437   8.208  18.324  0.00  0.00    +0.000 A 
ATOM      2  C   UNL     1       3.439   7.804  17.442  0.00  0.00    +0.000 A 
ATOM      3  C   UNL     1       3.899   6.515  17.744  0.00  0.00    +0.000 A 
ATOM      4  C   UNL     1       3.368   6.034  18.902  0.00  0.00    +0.000 A 
ATOM      5  S   UNL     1       2.212   7.025  19.586  0.00  0.00    +0.000 S 
ATOM      6  C   UNL     1       3.922   4.731  19.331  0.00  0.00    +0.000 C 
ATOM      7  C   UNL     1       4.902   4.436  18.154  0.00  0.00    +0.000 C 
ATOM      8  N   UNL     1       4.788   5.591  17.215  0.00  0.00    +0.000 N 
ATOM      9  C   UNL     1       5.406   5.742  15.983  0.00  0.00    +0.000 C 
ATOM     10  O   UNL     1       5.245   6.697  15.234  0.00  0.00    +0.000 OA
ENDROOT
BRANCH   1  17
ATOM     11  C   UNL     1      -0.125   9.509  23.680  0.00  0.00    +0.000 C 
ATOM     12  N   UNL     1       0.580  10.275  22.649  0.00  0.00    +0.000 NA
ATOM     13  C   UNL     1      -0.349  11.168  21.941  0.00  0.00    +0.000 C 
ATOM     14  C   UNL     1       0.149  11.738  20.604  0.00  0.00    +0.000 C 
ATOM     15  C   UNL     1      -0.129  10.808  19.419  0.00  0.00    +0.000 C 
ATOM     16  N   UNL     1       0.675   9.583  19.405  0.00  0.00    +0.000 N 
ATOM     17  C   UNL     1       1.649   9.438  18.396  0.00  0.00    +0.000 C 
ATOM     18  O   UNL     1       1.823  10.349  17.580  0.00  0.00    +0.000 OA
ATOM     19  C   UNL     1       0.594   8.760  20.618  0.00  0.00    +0.000 C 
ATOM     20  C   UNL     1       1.368   9.386  21.786  0.00  0.00    +0.000 C 
ENDBRANCH   1  17
BRANCH   9  21
ATOM     21  C   UNL     1       6.348   4.643  15.584  0.00  0.00    +0.000 C 
ATOM     22  C   UNL     1       6.093   3.768  14.376  0.00  0.00    +0.000 C 
ATOM     23  C   UNL     1       7.169   4.811  14.324  0.00  0.00    +0.000 C 
ENDBRANCH   9  21
TORSDOF 2
ENDMDL
MODEL 2
REMARK VINA RESULT:      -7.7      2.210      3.776
REMARK  Name = 
REMARK  3 active torsions:
REMARK  status: ('A' for Active; 'I' for Inactive)
REMARK    1  A    between atoms: C_1  and  N_2
REMARK    2  A    between atoms: C_7  and  C_9
REMARK    3  A    between atoms: C_17  and  C_19
REMARK                            x       y       z     vdW  Elec       q    Type
REMARK                         _______ _______ _______ _____ _____    ______ ____
ROOT
ATOM      1  C   UNL     1       2.348   8.486  18.249  0.00  0.00    +0.000 A 
ATOM      2  C   UNL     1       1.815   7.378  18.909  0.00  0.00    +0.000 A 
ATOM      3  C   UNL     1       2.586   6.229  18.687  0.00  0.00    +0.000 A 
ATOM      4  C   UNL     1       3.572   6.436  17.773  0.00  0.00    +0.000 A 
ATOM      5  S   UNL     1       3.705   8.019  17.259  0.00  0.00    +0.000 S 
ATOM      6  C   UNL     1       4.332   5.220  17.408  0.00  0.00    +0.000 C 
ATOM      7  C   UNL     1       3.652   4.170  18.340  0.00  0.00    +0.000 C 
ATOM      8  N   UNL     1       2.605   4.907  19.108  0.00  0.00    +0.000 N 
ATOM      9  C   UNL     1       1.794   4.414  20.118  0.00  0.00    +0.000 C 
ATOM     10  O   UNL     1       0.976   5.077  20.743  0.00  0.00    +0.000 OA
ENDROOT
BRANCH   1  17
ATOM     11  C   UNL     1      -0.856  10.528  22.993  0.00  0.00    +0.000 C 
ATOM     12  N   UNL     1       0.229  11.058  22.163  0.00  0.00    +0.000 NA
ATOM     13  C   UNL     1      -0.259  12.152  21.310  0.00  0.00    +0.000 C 
ATOM     14  C   UNL     1       0.645  12.543  20.130  0.00  0.00    +0.000 C 
ATOM     15  C   UNL     1       0.390  11.696  18.879  0.00  0.00    +0.000 C 
ATOM     16  N   UNL     1       0.825  10.301  18.988  0.00  0.00    +0.000 N 
ATOM     17  C   UNL     1       1.917   9.882  18.200  0.00  0.00    +0.000 C 
ATOM     18  O   UNL     1       2.495  10.698  17.475  0.00  0.00    +0.000 OA
ATOM     19  C   UNL     1       0.273   9.554  20.124  0.00  0.00    +0.000 C 
ATOM     20  C   UNL     1       0.918   9.974  21.452  0.00  0.00    +0.000 C 
ENDBRANCH   1  17
BRANCH   9  21
ATOM     21  C   UNL     1       1.947   2.953  20.426  0.00  0.00    +0.000 C 
ATOM     22  C   UNL     1       2.889   2.454  21.501  0.00  0.00    +0.000 C 
ATOM     23  C   UNL     1       1.409   2.426  21.738  0.00  0.00    +0.000 C 
ENDBRANCH   9  21
TORSDOF 2
ENDMDL
MODEL 3
REMARK VINA RESULT:      -7.7      3.421      5.267
REMARK  Name = 
REMARK  3 active torsions:
REMARK  status: ('A' for Active; 'I' for Inactive)
REMARK    1  A    between atoms: C_1  and  N_2
REMARK    2  A    between atoms: C_7  and  C_9
REMARK    3  A    between atoms: C_17  and  C_19
REMARK                            x       y       z     vdW  Elec       q    Type
REMARK                         _______ _______ _______ _____ _____    ______ ____
ROOT
ATOM      1  C   UNL     1       0.328  11.735  19.421  0.00  0.00    +0.000 A 
ATOM      2  C   UNL     1       1.194  10.752  18.943  0.00  0.00    +0.000 A 
ATOM      3  C   UNL     1       1.116   9.582  19.711  0.00  0.00    +0.000 A 
ATOM      4  C   UNL     1       0.332   9.738  20.812  0.00  0.00    +0.000 A 
ATOM      5  S   UNL     1      -0.441  11.215  20.897  0.00  0.00    +0.000 S 
ATOM      6  C   UNL     1       0.321   8.571  21.723  0.00  0.00    +0.000 C 
ATOM      7  C   UNL     1       1.238   7.586  20.934  0.00  0.00    +0.000 C 
ATOM      8  N   UNL     1       1.651   8.302  19.692  0.00  0.00    +0.000 N 
ATOM      9  C   UNL     1       2.402   7.803  18.639  0.00  0.00    +0.000 C 
ATOM     10  O   UNL     1       2.680   8.426  17.621  0.00  0.00    +0.000 OA
ENDROOT
BRANCH   1  17
ATOM     11  C   UNL     1       4.311  16.062  20.954  0.00  0.00    +0.000 C 
ATOM     12  N   UNL     1       3.569  15.712  19.740  0.00  0.00    +0.000 NA
ATOM     13  C   UNL     1       2.527  16.712  19.464  0.00  0.00    +0.000 C 
ATOM     14  C   UNL     1       1.435  16.292  18.468  0.00  0.00    +0.000 C 
ATOM     15  C   UNL     1       0.280  15.537  19.134  0.00  0.00    +0.000 C 
ATOM     16  N   UNL     1       0.622  14.193  19.606  0.00  0.00    +0.000 N 
ATOM     17  C   UNL     1       0.045  13.089  18.946  0.00  0.00    +0.000 C 
ATOM     18  O   UNL     1      -0.697  13.278  17.977  0.00  0.00    +0.000 OA
ATOM     19  C   UNL     1       1.763  14.119  20.527  0.00  0.00    +0.000 C 
ATOM     20  C   UNL     1       3.099  14.323  19.799  0.00  0.00    +0.000 C 
ENDBRANCH   1  17
BRANCH   9  21
ATOM     21  C   UNL     1       2.909   6.400  18.804  0.00  0.00    +0.000 C 
ATOM     22  C   UNL     1       2.247   5.222  18.121  0.00  0.00    +0.000 C 
ATOM     23  C   UNL     1       3.571   5.722  17.624  0.00  0.00    +0.000 C 
ENDBRANCH   9  21
TORSDOF 2
ENDMDL
MODEL 4
REMARK VINA RESULT:      -7.5      6.571      9.021
REMARK  Name = 
REMARK  3 active torsions:
REMARK  status: ('A' for Active; 'I' for Inactive)
REMARK    1  A    between atoms: C_1  and  N_2
REMARK    2  A    between atoms: C_7  and  C_9
REMARK    3  A    between atoms: C_17  and  C_19
REMARK                            x       y       z     vdW  Elec       q    Type
REMARK                         _______ _______ _______ _____ _____    ______ ____
ROOT
ATOM      1  C   UNL     1      -0.263  11.985  19.726  0.00  0.00    +0.000 A 
ATOM      2  C   UNL     1      -1.603  12.345  19.581  0.00  0.00    +0.000 A 
ATOM      3  C   UNL     1      -2.265  11.501  18.678  0.00  0.00    +0.000 A 
ATOM      4  C   UNL     1      -1.415  10.639  18.057  0.00  0.00    +0.000 A 
ATOM      5  S   UNL     1       0.155  10.703  18.621  0.00  0.00    +0.000 S 
ATOM      6  C   UNL     1      -2.045   9.816  17.001  0.00  0.00    +0.000 C 
ATOM      7  C   UNL     1      -3.525  10.297  17.110  0.00  0.00    +0.000 C 
ATOM      8  N   UNL     1      -3.554  11.319  18.197  0.00  0.00    +0.000 N 
ATOM      9  C   UNL     1      -4.662  11.972  18.714  0.00  0.00    +0.000 C 
ATOM     10  O   UNL     1      -4.632  12.777  19.637  0.00  0.00    +0.000 OA
ENDROOT
BRANCH   1  17
ATOM     11  C   UNL     1       2.407  17.060  17.714  0.00  0.00    +0.000 C 
ATOM     12  N   UNL     1       1.940  16.575  19.015  0.00  0.00    +0.000 NA
ATOM     13  C   UNL     1       3.079  16.275  19.895  0.00  0.00    +0.000 C 
ATOM     14  C   UNL     1       2.771  15.410  21.127  0.00  0.00    +0.000 C 
ATOM     15  C   UNL     1       2.839  13.908  20.831  0.00  0.00    +0.000 C 
ATOM     16  N   UNL     1       1.757  13.405  19.980  0.00  0.00    +0.000 N 
ATOM     17  C   UNL     1       0.803  12.542  20.558  0.00  0.00    +0.000 C 
ATOM     18  O   UNL     1       0.881  12.263  21.758  0.00  0.00    +0.000 OA
ATOM     19  C   UNL     1       1.602  14.085  18.689  0.00  0.00    +0.000 C 
ATOM     20  C   UNL     1       0.978  15.478  18.847  0.00  0.00    +0.000 C 
ENDBRANCH   1  17
BRANCH   9  21
ATOM     21  C   UNL     1      -5.974  11.657  18.054  0.00  0.00    +0.000 C 
ATOM     22  C   UNL     1      -6.941  10.648  18.634  0.00  0.00    +0.000 C 
ATOM     23  C   UNL     1      -7.252  12.112  18.724  0.00  0.00    +0.000 C 
ENDBRANCH   9  21
TORSDOF 2
ENDMDL
MODEL 5
REMARK VINA RESULT:      -7.5      2.145      3.258
REMARK  Name = 
REMARK  3 active torsions:
REMARK  status: ('A' for Active; 'I' for Inactive)
REMARK    1  A    between atoms: C_1  and  N_2
REMARK    2  A    between atoms: C_7  and  C_9
REMARK    3  A    between atoms: C_17  and  C_19
REMARK                            x       y       z     vdW  Elec       q    Type
REMARK                         _______ _______ _______ _____ _____    ______ ____
ROOT
ATOM      1  C   UNL     1       1.443   8.574  20.214  0.00  0.00    +0.000 A 
ATOM      2  C   UNL     1       2.382   8.036  19.334  0.00  0.00    +0.000 A 
ATOM      3  C   UNL     1       2.482   6.646  19.477  0.00  0.00    +0.000 A 
ATOM      4  C   UNL     1       1.755   6.181  20.529  0.00  0.00    +0.000 A 
ATOM      5  S   UNL     1       0.829   7.344  21.288  0.00  0.00    +0.000 S 
ATOM      6  C   UNL     1       1.930   4.737  20.800  0.00  0.00    +0.000 C 
ATOM      7  C   UNL     1       2.900   4.345  19.643  0.00  0.00    +0.000 C 
ATOM      8  N   UNL     1       3.154   5.596  18.868  0.00  0.00    +0.000 N 
ATOM      9  C   UNL     1       3.889   5.732  17.701  0.00  0.00    +0.000 C 
ATOM     10  O   UNL     1       4.032   6.780  17.084  0.00  0.00    +0.000 OA
ENDROOT
BRANCH   1  17
ATOM     11  C   UNL     1      -2.614  10.717  16.228  0.00  0.00    +0.000 C 
ATOM     12  N   UNL     1      -2.445  10.787  17.682  0.00  0.00    +0.000 NA
ATOM     13  C   UNL     1      -2.070  12.148  18.095  0.00  0.00    +0.000 C 
ATOM     14  C   UNL     1      -1.491  12.288  19.511  0.00  0.00    +0.000 C 
ATOM     15  C   UNL     1       0.022  12.052  19.562  0.00  0.00    +0.000 C 
ATOM     16  N   UNL     1       0.429  10.663  19.335  0.00  0.00    +0.000 N 
ATOM     17  C   UNL     1       0.983   9.947  20.417  0.00  0.00    +0.000 C 
ATOM     18  O   UNL     1       1.076  10.489  21.523  0.00  0.00    +0.000 OA
ATOM     19  C   UNL     1      -0.052  10.059  18.087  0.00  0.00    +0.000 C 
ATOM     20  C   UNL     1      -1.548   9.724  18.154  0.00  0.00    +0.000 C 
ENDBRANCH   1  17
BRANCH   9  21
ATOM     21  C   UNL     1       4.558   4.485  17.200  0.00  0.00    +0.000 C 
ATOM     22  C   UNL     1       5.091   4.373  15.787  0.00  0.00    +0.000 C 
ATOM     23  C   UNL     1       6.047   4.515  16.934  0.00  0.00    +0.000 C 
ENDBRANCH   9  21
TORSDOF 2
ENDMDL
MODEL 6
REMARK VINA RESULT:      -7.3      6.493      9.933
REMARK  Name = 
REMARK  3 active torsions:
REMARK  status: ('A' for Active; 'I' for Inactive)
REMARK    1  A    between atoms: C_1  and  N_2
REMARK    2  A    between atoms: C_7  and  C_9
REMARK    3  A    between atoms: C_17  and  C_19
REMARK                            x       y       z     vdW  Elec       q    Type
REMARK                         _______ _______ _______ _____ _____    ______ ____
ROOT
ATOM      1  C   UNL     1      -1.523  11.739  18.817  0.00  0.00    +0.000 A 
ATOM      2  C   UNL     1      -2.570  12.090  19.670  0.00  0.00    +0.000 A 
ATOM      3  C   UNL     1      -3.817  11.892  19.060  0.00  0.00    +0.000 A 
ATOM      4  C   UNL     1      -3.702  11.550  17.748  0.00  0.00    +0.000 A 
ATOM      5  S   UNL     1      -2.130  11.317  17.237  0.00  0.00    +0.000 S 
ATOM      6  C   UNL     1      -4.991  11.456  17.028  0.00  0.00    +0.000 C 
ATOM      7  C   UNL     1      -5.988  11.760  18.189  0.00  0.00    +0.000 C 
ATOM      8  N   UNL     1      -5.156  11.987  19.407  0.00  0.00    +0.000 N 
ATOM      9  C   UNL     1      -5.598  12.209  20.702  0.00  0.00    +0.000 C 
ATOM     10  O   UNL     1      -4.867  12.351  21.674  0.00  0.00    +0.000 OA
ENDROOT
BRANCH   1  17
ATOM     11  C   UNL     1       1.073  17.156  19.739  0.00  0.00    +0.000 C 
ATOM     12  N   UNL     1       1.223  15.818  20.316  0.00  0.00    +0.000 NA
ATOM     13  C   UNL     1       2.508  15.223  19.918  0.00  0.00    +0.000 C 
ATOM     14  C   UNL     1       2.641  13.706  20.118  0.00  0.00    +0.000 C 
ATOM     15  C   UNL     1       2.107  12.899  18.929  0.00  0.00    +0.000 C 
ATOM     16  N   UNL     1       0.651  12.936  18.773  0.00  0.00    +0.000 N 
ATOM     17  C   UNL     1      -0.074  11.750  19.009  0.00  0.00    +0.000 C 
ATOM     18  O   UNL     1       0.524  10.732  19.372  0.00  0.00    +0.000 OA
ATOM     19  C   UNL     1       0.060  14.276  18.675  0.00  0.00    +0.000 C 
ATOM     20  C   UNL     1       0.042  14.993  20.032  0.00  0.00    +0.000 C 
ENDBRANCH   1  17
BRANCH   9  21
ATOM     21  C   UNL     1      -7.086  12.296  20.880  0.00  0.00    +0.000 C 
ATOM     22  C   UNL     1      -7.917  11.096  21.282  0.00  0.00    +0.000 C 
ATOM     23  C   UNL     1      -7.659  12.188  22.276  0.00  0.00    +0.000 C 
ENDBRANCH   9  21
TORSDOF 2
ENDMDL
MODEL 7
REMARK VINA RESULT:      -7.3      1.847      2.713
REMARK  Name = 
REMARK  3 active torsions:
REMARK  status: ('A' for Active; 'I' for Inactive)
REMARK    1  A    between atoms: C_1  and  N_2
REMARK    2  A    between atoms: C_7  and  C_9
REMARK    3  A    between atoms: C_17  and  C_19
REMARK                            x       y       z     vdW  Elec       q    Type
REMARK                         _______ _______ _______ _____ _____    ______ ____
ROOT
ATOM      1  C   UNL     1       1.887   7.526  20.158  0.00  0.00    +0.000 A 
ATOM      2  C   UNL     1       2.912   7.278  19.246  0.00  0.00    +0.000 A 
ATOM      3  C   UNL     1       2.906   5.943  18.818  0.00  0.00    +0.000 A 
ATOM      4  C   UNL     1       2.005   5.186  19.500  0.00  0.00    +0.000 A 
ATOM      5  S   UNL     1       1.048   6.051  20.560  0.00  0.00    +0.000 S 
ATOM      6  C   UNL     1       2.051   3.743  19.174  0.00  0.00    +0.000 C 
ATOM      7  C   UNL     1       3.157   3.735  18.074  0.00  0.00    +0.000 C 
ATOM      8  N   UNL     1       3.597   5.152  17.912  0.00  0.00    +0.000 N 
ATOM      9  C   UNL     1       4.504   5.655  16.992  0.00  0.00    +0.000 C 
ATOM     10  O   UNL     1       4.799   6.838  16.878  0.00  0.00    +0.000 OA
ENDROOT
BRANCH   1  17
ATOM     11  C   UNL     1      -1.919  11.225  17.197  0.00  0.00    +0.000 C 
ATOM     12  N   UNL     1      -1.800  10.740  18.574  0.00  0.00    +0.000 NA
ATOM     13  C   UNL     1      -1.376  11.825  19.471  0.00  0.00    +0.000 C 
ATOM     14  C   UNL     1      -0.843  11.396  20.846  0.00  0.00    +0.000 C 
ATOM     15  C   UNL     1       0.655  11.072  20.830  0.00  0.00    +0.000 C 
ATOM     16  N   UNL     1       1.004   9.846  20.107  0.00  0.00    +0.000 N 
ATOM     17  C   UNL     1       1.484   8.749  20.852  0.00  0.00    +0.000 C 
ATOM     18  O   UNL     1       1.563   8.834  22.081  0.00  0.00    +0.000 OA
ATOM     19  C   UNL     1       0.541   9.778  18.716  0.00  0.00    +0.000 C 
ATOM     20  C   UNL     1      -0.971   9.529  18.629  0.00  0.00    +0.000 C 
ENDBRANCH   1  17
BRANCH   9  21
ATOM     21  C   UNL     1       5.164   4.641  16.102  0.00  0.00    +0.000 C 
ATOM     22  C   UNL     1       5.585   4.971  14.686  0.00  0.00    +0.000 C 
ATOM     23  C   UNL     1       6.626   4.820  15.756  0.00  0.00    +0.000 C 
ENDBRANCH   9  21
TORSDOF 2
ENDMDL
MODEL 8
REMARK VINA RESULT:      -7.2      7.255      9.790
REMARK  Name = 
REMARK  3 active torsions:
REMARK  status: ('A' for Active; 'I' for Inactive)
REMARK    1  A    between atoms: C_1  and  N_2
REMARK    2  A    between atoms: C_7  and  C_9
REMARK    3  A    between atoms: C_17  and  C_19
REMARK                            x       y       z     vdW  Elec       q    Type
REMARK                         _______ _______ _______ _____ _____    ______ ____
ROOT
ATOM      1  C   UNL     1      -4.342  12.802  21.482  0.00  0.00    +0.000 A 
ATOM      2  C   UNL     1      -4.453  12.542  20.116  0.00  0.00    +0.000 A 
ATOM      3  C   UNL     1      -3.213  12.203  19.557  0.00  0.00    +0.000 A 
ATOM      4  C   UNL     1      -2.189  12.352  20.441  0.00  0.00    +0.000 A 
ATOM      5  S   UNL     1      -2.673  12.758  21.986  0.00  0.00    +0.000 S 
ATOM      6  C   UNL     1      -0.846  12.131  19.860  0.00  0.00    +0.000 C 
ATOM      7  C   UNL     1      -1.228  11.744  18.398  0.00  0.00    +0.000 C 
ATOM      8  N   UNL     1      -2.718  11.793  18.328  0.00  0.00    +0.000 N 
ATOM      9  C   UNL     1      -3.524  11.448  17.254  0.00  0.00    +0.000 C 
ATOM     10  O   UNL     1      -4.749  11.471  17.265  0.00  0.00    +0.000 OA
ENDROOT
BRANCH   1  17
ATOM     11  C   UNL     1      -6.708  18.386  21.080  0.00  0.00    +0.000 C 
ATOM     12  N   UNL     1      -7.239  17.046  21.348  0.00  0.00    +0.000 NA
ATOM     13  C   UNL     1      -7.656  16.926  22.752  0.00  0.00    +0.000 C 
ATOM     14  C   UNL     1      -7.868  15.496  23.273  0.00  0.00    +0.000 C 
ATOM     15  C   UNL     1      -6.577  14.854  23.792  0.00  0.00    +0.000 C 
ATOM     16  N   UNL     1      -5.599  14.526  22.751  0.00  0.00    +0.000 N 
ATOM     17  C   UNL     1      -5.346  13.165  22.482  0.00  0.00    +0.000 C 
ATOM     18  O   UNL     1      -5.971  12.295  23.096  0.00  0.00    +0.000 OA
ATOM     19  C   UNL     1      -5.200  15.642  21.886  0.00  0.00    +0.000 C 
ATOM     20  C   UNL     1      -6.303  16.013  20.886  0.00  0.00    +0.000 C 
ENDBRANCH   1  17
BRANCH   9  21
ATOM     21  C   UNL     1      -2.806  11.042  16.000  0.00  0.00    +0.000 C 
ATOM     22  C   UNL     1      -2.640   9.590  15.606  0.00  0.00    +0.000 C 
ATOM     23  C   UNL     1      -3.610  10.456  14.860  0.00  0.00    +0.000 C 
ENDBRANCH   9  21
TORSDOF 2
ENDMDL
MODEL 9
REMARK VINA RESULT:      -7.2      1.936      7.493
REMARK  Name = 
REMARK  3 active torsions:
REMARK  status: ('A' for Active; 'I' for Inactive)
REMARK    1  A    between atoms: C_1  and  N_2
REMARK    2  A    between atoms: C_7  and  C_9
REMARK    3  A    between atoms: C_17  and  C_19
REMARK                            x       y       z     vdW  Elec       q    Type
REMARK                         _______ _______ _______ _____ _____    ______ ____
ROOT
ATOM      1  C   UNL     1       2.109   6.902  18.836  0.00  0.00    +0.000 A 
ATOM      2  C   UNL     1       1.825   8.240  18.561  0.00  0.00    +0.000 A 
ATOM      3  C   UNL     1       1.464   8.936  19.723  0.00  0.00    +0.000 A 
ATOM      4  C   UNL     1       1.335   8.114  20.800  0.00  0.00    +0.000 A 
ATOM      5  S   UNL     1       1.771   6.530  20.505  0.00  0.00    +0.000 S 
ATOM      6  C   UNL     1       0.830   8.782  22.020  0.00  0.00    +0.000 C 
ATOM      7  C   UNL     1       0.710  10.251  21.511  0.00  0.00    +0.000 C 
ATOM      8  N   UNL     1       1.154  10.239  20.086  0.00  0.00    +0.000 N 
ATOM      9  C   UNL     1       1.298  11.325  19.237  0.00  0.00    +0.000 C 
ATOM     10  O   UNL     1       1.706  11.260  18.083  0.00  0.00    +0.000 OA
ENDROOT
BRANCH   1  17
ATOM     11  C   UNL     1       8.054   5.640  18.790  0.00  0.00    +0.000 C 
ATOM     12  N   UNL     1       6.822   4.849  18.811  0.00  0.00    +0.000 NA
ATOM     13  C   UNL     1       6.625   4.164  17.524  0.00  0.00    +0.000 C 
ATOM     14  C   UNL     1       5.213   3.619  17.259  0.00  0.00    +0.000 C 
ATOM     15  C   UNL     1       4.278   4.663  16.639  0.00  0.00    +0.000 C 
ATOM     16  N   UNL     1       3.888   5.746  17.547  0.00  0.00    +0.000 N 
ATOM     17  C   UNL     1       2.543   5.808  17.968  0.00  0.00    +0.000 C 
ATOM     18  O   UNL     1       1.747   4.941  17.596  0.00  0.00    +0.000 OA
ATOM     19  C   UNL     1       4.996   6.483  18.164  0.00  0.00    +0.000 C 
ATOM     20  C   UNL     1       5.687   5.663  19.262  0.00  0.00    +0.000 C 
ENDBRANCH   1  17
BRANCH   9  21
ATOM     21  C   UNL     1       0.898  12.656  19.803  0.00  0.00    +0.000 C 
ATOM     22  C   UNL     1       1.914  13.625  20.369  0.00  0.00    +0.000 C 
ATOM     23  C   UNL     1       1.272  13.911  19.044  0.00  0.00    +0.000 C 
ENDBRANCH   9  21
TORSDOF 2
ENDMDL
