MODEL 1
REMARK VINA RESULT:      -8.1      0.000      0.000
REMARK  Name = 
REMARK  5 active torsions:
REMARK  status: ('A' for Active; 'I' for Inactive)
REMARK    1  A    between atoms: C_1  and  C_2
REMARK    2  A    between atoms: C_2  and  C_3
REMARK    3  A    between atoms: C_2  and  C_4
REMARK    4  A    between atoms: C_7  and  C_8
REMARK    5  A    between atoms: C_12  and  N_13
REMARK                            x       y       z     vdW  Elec       q    Type
REMARK                         _______ _______ _______ _____ _____    ______ ____
ROOT
ATOM      1  C   UNL     1       3.035   6.865  18.300  0.00  0.00    +0.000 A 
ATOM      2  N   UNL     1       3.913   7.305  17.420  0.00  0.00    +0.000 NA
ATOM      3  C   UNL     1       4.505   6.210  16.880  0.00  0.00    +0.000 A 
ATOM      4  C   UNL     1       5.454   6.164  15.856  0.00  0.00    +0.000 A 
ATOM      5  C   UNL     1       5.876   4.901  15.427  0.00  0.00    +0.000 A 
ATOM      6  C   UNL     1       5.400   3.725  16.032  0.00  0.00    +0.000 A 
ATOM      7  C   UNL     1       4.470   3.774  17.086  0.00  0.00    +0.000 A 
ATOM      8  C   UNL     1       4.031   5.045  17.469  0.00  0.00    +0.000 A 
ATOM      9  N   UNL     1       3.118   5.491  18.401  0.00  0.00    +0.000 N 
ATOM     10  H   UNL     1       2.597   4.918  19.049  0.00  0.00    +0.000 HD
ENDROOT
BRANCH   1  14
ATOM     11  C   UNL     1       0.579   9.413  20.718  0.00  0.00    +0.000 A 
ATOM     12  C   UNL     1       0.871   9.783  19.391  0.00  0.00    +0.000 A 
ATOM     13  C   UNL     1       1.648   8.962  18.559  0.00  0.00    +0.000 A 
ATOM     14  C   UNL     1       2.150   7.753  19.046  0.00  0.00    +0.000 A 
ATOM     15  C   UNL     1       1.867   7.394  20.369  0.00  0.00    +0.000 A 
ATOM     16  C   UNL     1       1.092   8.203  21.192  0.00  0.00    +0.000 A 
BRANCH  11  18
ATOM     17  C   UNL     1      -0.261   9.775  23.021  0.00  0.00    +0.000 C 
ATOM     18  C   UNL     1      -0.339  10.267  21.574  0.00  0.00    +0.000 C 
ATOM     19  C   UNL     1      -0.037  11.771  21.514  0.00  0.00    +0.000 C 
ENDBRANCH  11  18
ENDBRANCH   1  14
BRANCH   5  20
ATOM     20  N   UNL     1       6.817   4.829  14.307  0.00  0.00    +0.000 N 
ATOM     21  O   UNL     1       6.553   4.070  13.367  0.00  0.00    +0.000 OA
ATOM     22  O   UNL     1       7.839   5.538  14.371  0.00  0.00    +0.000 OA
ENDBRANCH   5  20
TORSDOF 3
ENDMDL
MODEL 2
REMARK VINA RESULT:      -7.9      0.240      1.269
REMARK  Name = 
REMARK  5 active torsions:
REMARK  status: ('A' for Active; 'I' for Inactive)
REMARK    1  A    between atoms: C_1  and  C_2
REMARK    2  A    between atoms: C_2  and  C_3
REMARK    3  A    between atoms: C_2  and  C_4
REMARK    4  A    between atoms: C_7  and  C_8
REMARK    5  A    between atoms: C_12  and  N_13
REMARK                            x       y       z     vdW  Elec       q    Type
REMARK                         _______ _______ _______ _____ _____    ______ ____
ROOT
ATOM      1  C   UNL     1       3.090   6.813  18.387  0.00  0.00    +0.000 A 
ATOM      2  N   UNL     1       3.977   7.250  17.515  0.00  0.00    +0.000 NA
ATOM      3  C   UNL     1       4.526   6.152  16.936  0.00  0.00    +0.000 A 
ATOM      4  C   UNL     1       5.466   6.106  15.905  0.00  0.00    +0.000 A 
ATOM      5  C   UNL     1       5.840   4.844  15.432  0.00  0.00    +0.000 A 
ATOM      6  C   UNL     1       5.327   3.667  16.003  0.00  0.00    +0.000 A 
ATOM      7  C   UNL     1       4.406   3.714  17.065  0.00  0.00    +0.000 A 
ATOM      8  C   UNL     1       4.015   4.987  17.492  0.00  0.00    +0.000 A 
ATOM      9  N   UNL     1       3.125   5.435  18.444  0.00  0.00    +0.000 N 
ATOM     10  H   UNL     1       2.587   4.860  19.078  0.00  0.00    +0.000 HD
ENDROOT
BRANCH   1  14
ATOM     11  C   UNL     1       0.458   9.494  20.450  0.00  0.00    +0.000 A 
ATOM     12  C   UNL     1       0.936   8.345  21.109  0.00  0.00    +0.000 A 
ATOM     13  C   UNL     1       1.821   7.458  20.476  0.00  0.00    +0.000 A 
ATOM     14  C   UNL     1       2.241   7.707  19.168  0.00  0.00    +0.000 A 
ATOM     15  C   UNL     1       1.754   8.845  18.513  0.00  0.00    +0.000 A 
ATOM     16  C   UNL     1       0.883   9.728  19.141  0.00  0.00    +0.000 A 
BRANCH  11  18
ATOM     17  C   UNL     1      -0.417  10.156  22.673  0.00  0.00    +0.000 C 
ATOM     18  C   UNL     1      -0.425  10.491  21.180  0.00  0.00    +0.000 C 
ATOM     19  C   UNL     1      -0.025  11.958  20.970  0.00  0.00    +0.000 C 
ENDBRANCH  11  18
ENDBRANCH   1  14
BRANCH   5  20
ATOM     20  N   UNL     1       6.771   4.775  14.304  0.00  0.00    +0.000 N 
ATOM     21  O   UNL     1       7.770   5.506  14.322  0.00  0.00    +0.000 OA
ATOM     22  O   UNL     1       6.499   3.984  13.383  0.00  0.00    +0.000 OA
ENDBRANCH   5  20
TORSDOF 3
ENDMDL
MODEL 3
REMARK VINA RESULT:      -7.7      0.538      1.128
REMARK  Name = 
REMARK  5 active torsions:
REMARK  status: ('A' for Active; 'I' for Inactive)
REMARK    1  A    between atoms: C_1  and  C_2
REMARK    2  A    between atoms: C_2  and  C_3
REMARK    3  A    between atoms: C_2  and  C_4
REMARK    4  A    between atoms: C_7  and  C_8
REMARK    5  A    between atoms: C_12  and  N_13
REMARK                            x       y       z     vdW  Elec       q    Type
REMARK                         _______ _______ _______ _____ _____    ______ ____
ROOT
ATOM      1  C   UNL     1       2.896   7.103  18.328  0.00  0.00    +0.000 A 
ATOM      2  N   UNL     1       3.868   7.442  17.504  0.00  0.00    +0.000 NA
ATOM      3  C   UNL     1       4.353   6.288  16.980  0.00  0.00    +0.000 A 
ATOM      4  C   UNL     1       5.345   6.137  16.009  0.00  0.00    +0.000 A 
ATOM      5  C   UNL     1       5.635   4.837  15.583  0.00  0.00    +0.000 A 
ATOM      6  C   UNL     1       4.988   3.722  16.142  0.00  0.00    +0.000 A 
ATOM      7  C   UNL     1       4.013   3.872  17.145  0.00  0.00    +0.000 A 
ATOM      8  C   UNL     1       3.710   5.183  17.524  0.00  0.00    +0.000 A 
ATOM      9  N   UNL     1       2.807   5.728  18.411  0.00  0.00    +0.000 N 
ATOM     10  H   UNL     1       2.185   5.216  19.021  0.00  0.00    +0.000 HD
ENDROOT
BRANCH   1  14
ATOM     11  C   UNL     1       0.657   9.932  20.643  0.00  0.00    +0.000 A 
ATOM     12  C   UNL     1       0.928  10.201  19.288  0.00  0.00    +0.000 A 
ATOM     13  C   UNL     1       1.634   9.287  18.490  0.00  0.00    +0.000 A 
ATOM     14  C   UNL     1       2.083   8.085  19.039  0.00  0.00    +0.000 A 
ATOM     15  C   UNL     1       1.821   7.826  20.390  0.00  0.00    +0.000 A 
ATOM     16  C   UNL     1       1.116   8.727  21.180  0.00  0.00    +0.000 A 
BRANCH  11  18
ATOM     17  C   UNL     1      -1.296  11.457  20.578  0.00  0.00    +0.000 C 
ATOM     18  C   UNL     1      -0.187  10.888  21.467  0.00  0.00    +0.000 C 
ATOM     19  C   UNL     1      -0.797  10.262  22.729  0.00  0.00    +0.000 C 
ENDBRANCH  11  18
ENDBRANCH   1  14
BRANCH   5  20
ATOM     20  N   UNL     1       6.622   4.662  14.516  0.00  0.00    +0.000 N 
ATOM     21  O   UNL     1       7.635   5.374  14.531  0.00  0.00    +0.000 OA
ATOM     22  O   UNL     1       6.381   3.806  13.645  0.00  0.00    +0.000 OA
ENDBRANCH   5  20
TORSDOF 3
ENDMDL
MODEL 4
REMARK VINA RESULT:      -7.7      4.653      8.521
REMARK  Name = 
REMARK  5 active torsions:
REMARK  status: ('A' for Active; 'I' for Inactive)
REMARK    1  A    between atoms: C_1  and  C_2
REMARK    2  A    between atoms: C_2  and  C_3
REMARK    3  A    between atoms: C_2  and  C_4
REMARK    4  A    between atoms: C_7  and  C_8
REMARK    5  A    between atoms: C_12  and  N_13
REMARK                            x       y       z     vdW  Elec       q    Type
REMARK                         _______ _______ _______ _____ _____    ______ ____
ROOT
ATOM      1  C   UNL     1       2.367   7.655  18.669  0.00  0.00    +0.000 A 
ATOM      2  N   UNL     1       2.256   7.605  19.982  0.00  0.00    +0.000 NA
ATOM      3  C   UNL     1       1.414   8.607  20.339  0.00  0.00    +0.000 A 
ATOM      4  C   UNL     1       0.937   8.913  21.615  0.00  0.00    +0.000 A 
ATOM      5  C   UNL     1       0.025   9.968  21.724  0.00  0.00    +0.000 A 
ATOM      6  C   UNL     1      -0.363  10.720  20.602  0.00  0.00    +0.000 A 
ATOM      7  C   UNL     1       0.145  10.433  19.322  0.00  0.00    +0.000 A 
ATOM      8  C   UNL     1       1.022   9.349  19.231  0.00  0.00    +0.000 A 
ATOM      9  N   UNL     1       1.675   8.743  18.178  0.00  0.00    +0.000 N 
ATOM     10  H   UNL     1       1.654   9.039  17.213  0.00  0.00    +0.000 HD
ENDROOT
BRANCH   1  14
ATOM     11  C   UNL     1       4.880   4.961  16.477  0.00  0.00    +0.000 A 
ATOM     12  C   UNL     1       3.782   4.456  17.200  0.00  0.00    +0.000 A 
ATOM     13  C   UNL     1       2.920   5.309  17.907  0.00  0.00    +0.000 A 
ATOM     14  C   UNL     1       3.147   6.687  17.903  0.00  0.00    +0.000 A 
ATOM     15  C   UNL     1       4.246   7.184  17.193  0.00  0.00    +0.000 A 
ATOM     16  C   UNL     1       5.096   6.341  16.486  0.00  0.00    +0.000 A 
BRANCH  11  18
ATOM     17  C   UNL     1       5.419   4.254  14.163  0.00  0.00    +0.000 C 
ATOM     18  C   UNL     1       5.747   4.035  15.642  0.00  0.00    +0.000 C 
ATOM     19  C   UNL     1       7.255   4.205  15.875  0.00  0.00    +0.000 C 
ENDBRANCH  11  18
ENDBRANCH   1  14
BRANCH   5  20
ATOM     20  N   UNL     1      -0.541  10.260  23.043  0.00  0.00    +0.000 N 
ATOM     21  O   UNL     1       0.031   9.803  24.041  0.00  0.00    +0.000 OA
ATOM     22  O   UNL     1      -1.575  10.951  23.083  0.00  0.00    +0.000 OA
ENDBRANCH   5  20
TORSDOF 3
ENDMDL
MODEL 5
REMARK VINA RESULT:      -7.7      0.710      1.460
REMARK  Name = 
REMARK  5 active torsions:
REMARK  status: ('A' for Active; 'I' for Inactive)
REMARK    1  A    between atoms: C_1  and  C_2
REMARK    2  A    between atoms: C_2  and  C_3
REMARK    3  A    between atoms: C_2  and  C_4
REMARK    4  A    between atoms: C_7  and  C_8
REMARK    5  A    between atoms: C_12  and  N_13
REMARK                            x       y       z     vdW  Elec       q    Type
REMARK                         _______ _______ _______ _____ _____    ______ ____
ROOT
ATOM      1  C   UNL     1       2.975   7.123  18.269  0.00  0.00    +0.000 A 
ATOM      2  N   UNL     1       3.934   7.445  17.423  0.00  0.00    +0.000 NA
ATOM      3  C   UNL     1       4.414   6.281  16.918  0.00  0.00    +0.000 A 
ATOM      4  C   UNL     1       5.392   6.112  15.936  0.00  0.00    +0.000 A 
ATOM      5  C   UNL     1       5.680   4.803  15.535  0.00  0.00    +0.000 A 
ATOM      6  C   UNL     1       5.044   3.698  16.128  0.00  0.00    +0.000 A 
ATOM      7  C   UNL     1       4.084   3.869  17.142  0.00  0.00    +0.000 A 
ATOM      8  C   UNL     1       3.783   5.188  17.496  0.00  0.00    +0.000 A 
ATOM      9  N   UNL     1       2.892   5.750  18.385  0.00  0.00    +0.000 N 
ATOM     10  H   UNL     1       2.280   5.251  19.015  0.00  0.00    +0.000 HD
ENDROOT
BRANCH   1  14
ATOM     11  C   UNL     1       0.476  10.090  20.093  0.00  0.00    +0.000 A 
ATOM     12  C   UNL     1       0.889   8.972  20.842  0.00  0.00    +0.000 A 
ATOM     13  C   UNL     1       1.730   7.993  20.289  0.00  0.00    +0.000 A 
ATOM     14  C   UNL     1       2.170   8.118  18.970  0.00  0.00    +0.000 A 
ATOM     15  C   UNL     1       1.748   9.225  18.224  0.00  0.00    +0.000 A 
ATOM     16  C   UNL     1       0.921  10.199  18.773  0.00  0.00    +0.000 A 
BRANCH  11  18
ATOM     17  C   UNL     1      -1.558  11.482  19.833  0.00  0.00    +0.000 C 
ATOM     18  C   UNL     1      -0.357  11.185  20.734  0.00  0.00    +0.000 C 
ATOM     19  C   UNL     1      -0.836  10.861  22.156  0.00  0.00    +0.000 C 
ENDBRANCH  11  18
ENDBRANCH   1  14
BRANCH   5  20
ATOM     20  N   UNL     1       6.652   4.606  14.457  0.00  0.00    +0.000 N 
ATOM     21  O   UNL     1       6.416   3.740  13.605  0.00  0.00    +0.000 OA
ATOM     22  O   UNL     1       7.669   5.324  14.464  0.00  0.00    +0.000 OA
ENDBRANCH   5  20
TORSDOF 3
ENDMDL
MODEL 6
REMARK VINA RESULT:      -7.6      6.194      7.124
REMARK  Name = 
REMARK  5 active torsions:
REMARK  status: ('A' for Active; 'I' for Inactive)
REMARK    1  A    between atoms: C_1  and  C_2
REMARK    2  A    between atoms: C_2  and  C_3
REMARK    3  A    between atoms: C_2  and  C_4
REMARK    4  A    between atoms: C_7  and  C_8
REMARK    5  A    between atoms: C_12  and  N_13
REMARK                            x       y       z     vdW  Elec       q    Type
REMARK                         _______ _______ _______ _____ _____    ______ ____
ROOT
ATOM      1  C   UNL     1       8.355   8.871  18.340  0.00  0.00    +0.000 A 
ATOM      2  N   UNL     1       7.522   8.629  17.347  0.00  0.00    +0.000 NA
ATOM      3  C   UNL     1       7.191   7.316  17.430  0.00  0.00    +0.000 A 
ATOM      4  C   UNL     1       6.286   6.608  16.637  0.00  0.00    +0.000 A 
ATOM      5  C   UNL     1       6.068   5.263  16.955  0.00  0.00    +0.000 A 
ATOM      6  C   UNL     1       6.764   4.635  18.001  0.00  0.00    +0.000 A 
ATOM      7  C   UNL     1       7.702   5.341  18.778  0.00  0.00    +0.000 A 
ATOM      8  C   UNL     1       7.872   6.694  18.468  0.00  0.00    +0.000 A 
ATOM      9  N   UNL     1       8.639   7.701  19.014  0.00  0.00    +0.000 N 
ATOM     10  H   UNL     1       9.297   7.606  19.774  0.00  0.00    +0.000 HD
ENDROOT
BRANCH   1  14
ATOM     11  C   UNL     1      10.133  12.658  19.277  0.00  0.00    +0.000 A 
ATOM     12  C   UNL     1       9.391  12.513  18.090  0.00  0.00    +0.000 A 
ATOM     13  C   UNL     1       8.770  11.297  17.762  0.00  0.00    +0.000 A 
ATOM     14  C   UNL     1       8.886  10.202  18.620  0.00  0.00    +0.000 A 
ATOM     15  C   UNL     1       9.635  10.347  19.794  0.00  0.00    +0.000 A 
ATOM     16  C   UNL     1      10.244  11.552  20.124  0.00  0.00    +0.000 A 
BRANCH  11  18
ATOM     17  C   UNL     1      10.360  14.300  21.120  0.00  0.00    +0.000 C 
ATOM     18  C   UNL     1      10.720  14.004  19.662  0.00  0.00    +0.000 C 
ATOM     19  C   UNL     1      12.239  14.109  19.466  0.00  0.00    +0.000 C 
ENDBRANCH  11  18
ENDBRANCH   1  14
BRANCH   5  20
ATOM     20  N   UNL     1       5.071   4.522  16.180  0.00  0.00    +0.000 N 
ATOM     21  O   UNL     1       4.052   4.125  16.760  0.00  0.00    +0.000 OA
ATOM     22  O   UNL     1       5.310   4.326  14.974  0.00  0.00    +0.000 OA
ENDBRANCH   5  20
TORSDOF 3
ENDMDL
MODEL 7
REMARK VINA RESULT:      -7.5      0.905      1.159
REMARK  Name = 
REMARK  5 active torsions:
REMARK  status: ('A' for Active; 'I' for Inactive)
REMARK    1  A    between atoms: C_1  and  C_2
REMARK    2  A    between atoms: C_2  and  C_3
REMARK    3  A    between atoms: C_2  and  C_4
REMARK    4  A    between atoms: C_7  and  C_8
REMARK    5  A    between atoms: C_12  and  N_13
REMARK                            x       y       z     vdW  Elec       q    Type
REMARK                         _______ _______ _______ _____ _____    ______ ____
ROOT
ATOM      1  C   UNL     1       2.710   7.388  18.217  0.00  0.00    +0.000 A 
ATOM      2  N   UNL     1       3.721   7.669  17.418  0.00  0.00    +0.000 NA
ATOM      3  C   UNL     1       4.248   6.481  17.027  0.00  0.00    +0.000 A 
ATOM      4  C   UNL     1       5.293   6.261  16.127  0.00  0.00    +0.000 A 
ATOM      5  C   UNL     1       5.623   4.933  15.837  0.00  0.00    +0.000 A 
ATOM      6  C   UNL     1       4.961   3.861  16.459  0.00  0.00    +0.000 A 
ATOM      7  C   UNL     1       3.931   4.084  17.392  0.00  0.00    +0.000 A 
ATOM      8  C   UNL     1       3.591   5.419  17.634  0.00  0.00    +0.000 A 
ATOM      9  N   UNL     1       2.634   6.025  18.420  0.00  0.00    +0.000 N 
ATOM     10  H   UNL     1       1.987   5.559  19.039  0.00  0.00    +0.000 HD
ENDROOT
BRANCH   1  14
ATOM     11  C   UNL     1       0.321  10.382  20.141  0.00  0.00    +0.000 A 
ATOM     12  C   UNL     1       0.615  10.502  18.769  0.00  0.00    +0.000 A 
ATOM     13  C   UNL     1       1.371   9.528  18.097  0.00  0.00    +0.000 A 
ATOM     14  C   UNL     1       1.848   8.415  18.792  0.00  0.00    +0.000 A 
ATOM     15  C   UNL     1       1.562   8.305  20.159  0.00  0.00    +0.000 A 
ATOM     16  C   UNL     1       0.808   9.265  20.824  0.00  0.00    +0.000 A 
BRANCH  11  18
ATOM     17  C   UNL     1       0.280  12.583  21.278  0.00  0.00    +0.000 C 
ATOM     18  C   UNL     1      -0.575  11.396  20.831  0.00  0.00    +0.000 C 
ATOM     19  C   UNL     1      -1.747  11.888  19.970  0.00  0.00    +0.000 C 
ENDBRANCH  11  18
ENDBRANCH   1  14
BRANCH   5  20
ATOM     20  N   UNL     1       6.668   4.681  14.843  0.00  0.00    +0.000 N 
ATOM     21  O   UNL     1       6.478   3.792  14.004  0.00  0.00    +0.000 OA
ATOM     22  O   UNL     1       7.699   5.378  14.904  0.00  0.00    +0.000 OA
ENDBRANCH   5  20
TORSDOF 3
ENDMDL
MODEL 8
REMARK VINA RESULT:      -7.5      6.102      7.127
REMARK  Name = 
REMARK  5 active torsions:
REMARK  status: ('A' for Active; 'I' for Inactive)
REMARK    1  A    between atoms: C_1  and  C_2
REMARK    2  A    between atoms: C_2  and  C_3
REMARK    3  A    between atoms: C_2  and  C_4
REMARK    4  A    between atoms: C_7  and  C_8
REMARK    5  A    between atoms: C_12  and  N_13
REMARK                            x       y       z     vdW  Elec       q    Type
REMARK                         _______ _______ _______ _____ _____    ______ ____
ROOT
ATOM      1  C   UNL     1       8.374   8.809  18.332  0.00  0.00    +0.000 A 
ATOM      2  N   UNL     1       7.573   8.559  17.315  0.00  0.00    +0.000 NA
ATOM      3  C   UNL     1       7.220   7.252  17.412  0.00  0.00    +0.000 A 
ATOM      4  C   UNL     1       6.332   6.542  16.601  0.00  0.00    +0.000 A 
ATOM      5  C   UNL     1       6.082   5.207  16.937  0.00  0.00    +0.000 A 
ATOM      6  C   UNL     1       6.732   4.591  18.020  0.00  0.00    +0.000 A 
ATOM      7  C   UNL     1       7.652   5.298  18.815  0.00  0.00    +0.000 A 
ATOM      8  C   UNL     1       7.854   6.642  18.486  0.00  0.00    +0.000 A 
ATOM      9  N   UNL     1       8.616   7.649  19.038  0.00  0.00    +0.000 N 
ATOM     10  H   UNL     1       9.246   7.560  19.823  0.00  0.00    +0.000 HD
ENDROOT
BRANCH   1  14
ATOM     11  C   UNL     1       9.731  12.815  19.030  0.00  0.00    +0.000 A 
ATOM     12  C   UNL     1      10.069  11.798  19.942  0.00  0.00    +0.000 A 
ATOM     13  C   UNL     1       9.667  10.469  19.734  0.00  0.00    +0.000 A 
ATOM     14  C   UNL     1       8.915  10.137  18.605  0.00  0.00    +0.000 A 
ATOM     15  C   UNL     1       8.571  11.154  17.707  0.00  0.00    +0.000 A 
ATOM     16  C   UNL     1       8.974  12.469  17.908  0.00  0.00    +0.000 A 
BRANCH  11  18
ATOM     17  C   UNL     1      11.623  14.161  19.896  0.00  0.00    +0.000 C 
ATOM     18  C   UNL     1      10.251  14.229  19.221  0.00  0.00    +0.000 C 
ATOM     19  C   UNL     1      10.344  15.046  17.925  0.00  0.00    +0.000 C 
ENDBRANCH  11  18
ENDBRANCH   1  14
BRANCH   5  20
ATOM     20  N   UNL     1       5.102   4.465  16.142  0.00  0.00    +0.000 N 
ATOM     21  O   UNL     1       5.293   4.360  14.924  0.00  0.00    +0.000 OA
ATOM     22  O   UNL     1       4.123   3.984  16.742  0.00  0.00    +0.000 OA
ENDBRANCH   5  20
TORSDOF 3
ENDMDL
MODEL 9
REMARK VINA RESULT:      -7.3      2.815      4.039
REMARK  Name = 
REMARK  5 active torsions:
REMARK  status: ('A' for Active; 'I' for Inactive)
REMARK    1  A    between atoms: C_1  and  C_2
REMARK    2  A    between atoms: C_2  and  C_3
REMARK    3  A    between atoms: C_2  and  C_4
REMARK    4  A    between atoms: C_7  and  C_8
REMARK    5  A    between atoms: C_12  and  N_13
REMARK                            x       y       z     vdW  Elec       q    Type
REMARK                         _______ _______ _______ _____ _____    ______ ____
ROOT
ATOM      1  C   UNL     1       1.496   7.981  20.417  0.00  0.00    +0.000 A 
ATOM      2  N   UNL     1       1.574   6.735  20.842  0.00  0.00    +0.000 NA
ATOM      3  C   UNL     1       2.329   6.062  19.938  0.00  0.00    +0.000 A 
ATOM      4  C   UNL     1       2.746   4.731  19.989  0.00  0.00    +0.000 A 
ATOM      5  C   UNL     1       3.575   4.276  18.958  0.00  0.00    +0.000 A 
ATOM      6  C   UNL     1       3.938   5.112  17.888  0.00  0.00    +0.000 A 
ATOM      7  C   UNL     1       3.489   6.443  17.819  0.00  0.00    +0.000 A 
ATOM      8  C   UNL     1       2.696   6.887  18.882  0.00  0.00    +0.000 A 
ATOM      9  N   UNL     1       2.120   8.100  19.192  0.00  0.00    +0.000 N 
ATOM     10  H   UNL     1       2.147   8.936  18.626  0.00  0.00    +0.000 HD
ENDROOT
BRANCH   1  14
ATOM     11  C   UNL     1      -0.614  11.156  22.376  0.00  0.00    +0.000 A 
ATOM     12  C   UNL     1      -0.481   9.909  23.017  0.00  0.00    +0.000 A 
ATOM     13  C   UNL     1       0.226   8.854  22.420  0.00  0.00    +0.000 A 
ATOM     14  C   UNL     1       0.812   9.031  21.165  0.00  0.00    +0.000 A 
ATOM     15  C   UNL     1       0.667  10.268  20.526  0.00  0.00    +0.000 A 
ATOM     16  C   UNL     1      -0.027  11.316  21.119  0.00  0.00    +0.000 A 
BRANCH  11  18
ATOM     17  C   UNL     1      -0.989  13.605  22.314  0.00  0.00    +0.000 C 
ATOM     18  C   UNL     1      -1.303  12.315  23.075  0.00  0.00    +0.000 C 
ATOM     19  C   UNL     1      -2.822  12.149  23.221  0.00  0.00    +0.000 C 
ENDBRANCH  11  18
ENDBRANCH   1  14
BRANCH   5  20
ATOM     20  N   UNL     1       4.080   2.904  19.030  0.00  0.00    +0.000 N 
ATOM     21  O   UNL     1       4.824   2.601  19.972  0.00  0.00    +0.000 OA
ATOM     22  O   UNL     1       3.735   2.117  18.130  0.00  0.00    +0.000 OA
ENDBRANCH   5  20
TORSDOF 3
ENDMDL
