MODEL 1
REMARK VINA RESULT:      -7.7      0.000      0.000
REMARK  Name = 
REMARK  5 active torsions:
REMARK  status: ('A' for Active; 'I' for Inactive)
REMARK    1  A    between atoms: C_1  and  C_2
REMARK    2  A    between atoms: N_4  and  C_5
REMARK    3  A    between atoms: C_5  and  C_6
REMARK    4  A    between atoms: C_5  and  C_7
REMARK    5  A    between atoms: N_9  and  C_10
REMARK                            x       y       z     vdW  Elec       q    Type
REMARK                         _______ _______ _______ _____ _____    ______ ____
ROOT
ATOM      1  C   UNL     1       6.483   5.891  18.369  0.00  0.00    +0.000 C 
ATOM      2  O   UNL     1       6.813   5.404  19.449  0.00  0.00    +0.000 OA
ATOM      3  N   UNL     1       5.195   5.938  17.852  0.00  0.00    +0.000 N 
ATOM      4  H   UNL     1       5.099   6.304  16.911  0.00  0.00    +0.000 HD
ENDROOT
BRANCH   3   5
ATOM      5  C   UNL     1       4.024   5.424  18.459  0.00  0.00    +0.000 A 
ATOM      6  C   UNL     1       3.319   6.112  19.461  0.00  0.00    +0.000 A 
ATOM      7  C   UNL     1       2.202   5.547  20.086  0.00  0.00    +0.000 A 
ATOM      8  C   UNL     1       1.794   4.289  19.691  0.00  0.00    +0.000 A 
ATOM      9  C   UNL     1       2.466   3.604  18.677  0.00  0.00    +0.000 A 
ATOM     10  C   UNL     1       3.571   4.162  18.043  0.00  0.00    +0.000 A 
ATOM     11  C   UNL     1       1.880   2.236  18.492  0.00  0.00    +0.000 C 
ATOM     12  C   UNL     1       0.518   2.392  19.186  0.00  0.00    +0.000 C 
ATOM     13  C   UNL     1       0.695   3.458  20.275  0.00  0.00    +0.000 C 
ENDBRANCH   3   5
BRANCH   1  14
ATOM     14  C   UNL     1       7.538   6.571  17.474  0.00  0.00    +0.000 C 
ATOM     15  C   UNL     1       7.542   8.074  17.738  0.00  0.00    +0.000 C 
BRANCH  14  19
ATOM     16  C   UNL     1       6.955   4.786  14.185  0.00  0.00    +0.000 C 
ATOM     17  C   UNL     1       7.384   4.958  15.615  0.00  0.00    +0.000 C 
ATOM     18  O   UNL     1       7.783   4.026  16.298  0.00  0.00    +0.000 OA
ATOM     19  N   UNL     1       7.277   6.262  16.065  0.00  0.00    +0.000 N 
ATOM     20  H   UNL     1       6.582   6.829  15.592  0.00  0.00    +0.000 HD
ENDBRANCH  14  19
ENDBRANCH   1  14
TORSDOF 3
ENDMDL
MODEL 2
REMARK VINA RESULT:      -7.6      2.135      2.966
REMARK  Name = 
REMARK  5 active torsions:
REMARK  status: ('A' for Active; 'I' for Inactive)
REMARK    1  A    between atoms: C_1  and  C_2
REMARK    2  A    between atoms: N_4  and  C_5
REMARK    3  A    between atoms: C_5  and  C_6
REMARK    4  A    between atoms: C_5  and  C_7
REMARK    5  A    between atoms: N_9  and  C_10
REMARK                            x       y       z     vdW  Elec       q    Type
REMARK                         _______ _______ _______ _____ _____    ______ ____
ROOT
ATOM      1  C   UNL     1       6.108   4.230  15.739  0.00  0.00    +0.000 C 
ATOM      2  O   UNL     1       6.918   4.250  16.664  0.00  0.00    +0.000 OA
ATOM      3  N   UNL     1       4.732   4.390  15.852  0.00  0.00    +0.000 N 
ATOM      4  H   UNL     1       4.192   4.270  15.002  0.00  0.00    +0.000 HD
ENDROOT
BRANCH   3   5
ATOM      5  C   UNL     1       4.004   4.591  17.047  0.00  0.00    +0.000 A 
ATOM      6  C   UNL     1       4.104   5.765  17.815  0.00  0.00    +0.000 A 
ATOM      7  C   UNL     1       3.418   5.905  19.027  0.00  0.00    +0.000 A 
ATOM      8  C   UNL     1       2.624   4.861  19.457  0.00  0.00    +0.000 A 
ATOM      9  C   UNL     1       2.492   3.700  18.694  0.00  0.00    +0.000 A 
ATOM     10  C   UNL     1       3.161   3.556  17.483  0.00  0.00    +0.000 A 
ATOM     11  C   UNL     1       1.645   2.694  19.414  0.00  0.00    +0.000 C 
ATOM     12  C   UNL     1       0.937   3.578  20.452  0.00  0.00    +0.000 C 
ATOM     13  C   UNL     1       1.880   4.751  20.751  0.00  0.00    +0.000 C 
ENDBRANCH   3   5
BRANCH   1  14
ATOM     14  C   UNL     1       6.597   4.061  14.287  0.00  0.00    +0.000 C 
ATOM     15  C   UNL     1       7.535   5.210  13.926  0.00  0.00    +0.000 C 
BRANCH  14  19
ATOM     16  C   UNL     1       4.266   3.170  11.439  0.00  0.00    +0.000 C 
ATOM     17  C   UNL     1       5.562   3.271  12.194  0.00  0.00    +0.000 C 
ATOM     18  O   UNL     1       6.599   2.767  11.789  0.00  0.00    +0.000 OA
ATOM     19  N   UNL     1       5.452   3.981  13.376  0.00  0.00    +0.000 N 
ATOM     20  H   UNL     1       4.530   3.984  13.797  0.00  0.00    +0.000 HD
ENDBRANCH  14  19
ENDBRANCH   1  14
TORSDOF 3
ENDMDL
MODEL 3
REMARK VINA RESULT:      -7.3      2.204      3.394
REMARK  Name = 
REMARK  5 active torsions:
REMARK  status: ('A' for Active; 'I' for Inactive)
REMARK    1  A    between atoms: C_1  and  C_2
REMARK    2  A    between atoms: N_4  and  C_5
REMARK    3  A    between atoms: C_5  and  C_6
REMARK    4  A    between atoms: C_5  and  C_7
REMARK    5  A    between atoms: N_9  and  C_10
REMARK                            x       y       z     vdW  Elec       q    Type
REMARK                         _______ _______ _______ _____ _____    ______ ____
ROOT
ATOM      1  C   UNL     1       5.930   4.068  15.815  0.00  0.00    +0.000 C 
ATOM      2  O   UNL     1       6.681   4.277  16.766  0.00  0.00    +0.000 OA
ATOM      3  N   UNL     1       4.552   3.907  15.880  0.00  0.00    +0.000 N 
ATOM      4  H   UNL     1       4.085   3.664  15.014  0.00  0.00    +0.000 HD
ENDROOT
BRANCH   3   5
ATOM      5  C   UNL     1       3.755   3.938  17.048  0.00  0.00    +0.000 A 
ATOM      6  C   UNL     1       3.117   2.797  17.568  0.00  0.00    +0.000 A 
ATOM      7  C   UNL     1       2.283   2.875  18.688  0.00  0.00    +0.000 A 
ATOM      8  C   UNL     1       2.100   4.104  19.288  0.00  0.00    +0.000 A 
ATOM      9  C   UNL     1       2.748   5.242  18.802  0.00  0.00    +0.000 A 
ATOM     10  C   UNL     1       3.587   5.172  17.696  0.00  0.00    +0.000 A 
ATOM     11  C   UNL     1       2.324   6.455  19.574  0.00  0.00    +0.000 C 
ATOM     12  C   UNL     1       1.724   5.819  20.837  0.00  0.00    +0.000 C 
ATOM     13  C   UNL     1       1.191   4.440  20.428  0.00  0.00    +0.000 C 
ENDBRANCH   3   5
BRANCH   1  14
ATOM     14  C   UNL     1       6.496   4.014  14.382  0.00  0.00    +0.000 C 
ATOM     15  C   UNL     1       7.392   5.226  14.139  0.00  0.00    +0.000 C 
BRANCH  14  19
ATOM     16  C   UNL     1       4.341   3.170  11.385  0.00  0.00    +0.000 C 
ATOM     17  C   UNL     1       5.593   3.278  12.209  0.00  0.00    +0.000 C 
ATOM     18  O   UNL     1       6.665   2.823  11.838  0.00  0.00    +0.000 OA
ATOM     19  N   UNL     1       5.401   3.936  13.411  0.00  0.00    +0.000 N 
ATOM     20  H   UNL     1       4.460   3.894  13.784  0.00  0.00    +0.000 HD
ENDBRANCH  14  19
ENDBRANCH   1  14
TORSDOF 3
ENDMDL
MODEL 4
REMARK VINA RESULT:      -7.3      1.376      1.898
REMARK  Name = 
REMARK  5 active torsions:
REMARK  status: ('A' for Active; 'I' for Inactive)
REMARK    1  A    between atoms: C_1  and  C_2
REMARK    2  A    between atoms: N_4  and  C_5
REMARK    3  A    between atoms: C_5  and  C_6
REMARK    4  A    between atoms: C_5  and  C_7
REMARK    5  A    between atoms: N_9  and  C_10
REMARK                            x       y       z     vdW  Elec       q    Type
REMARK                         _______ _______ _______ _____ _____    ______ ____
ROOT
ATOM      1  C   UNL     1       5.747   5.888  17.366  0.00  0.00    +0.000 C 
ATOM      2  O   UNL     1       4.902   6.763  17.183  0.00  0.00    +0.000 OA
ATOM      3  N   UNL     1       5.516   4.627  17.901  0.00  0.00    +0.000 N 
ATOM      4  H   UNL     1       6.333   4.047  18.059  0.00  0.00    +0.000 HD
ENDROOT
BRANCH   3   5
ATOM      5  C   UNL     1       4.276   4.117  18.351  0.00  0.00    +0.000 A 
ATOM      6  C   UNL     1       3.273   3.664  17.476  0.00  0.00    +0.000 A 
ATOM      7  C   UNL     1       2.033   3.226  17.951  0.00  0.00    +0.000 A 
ATOM      8  C   UNL     1       1.809   3.239  19.313  0.00  0.00    +0.000 A 
ATOM      9  C   UNL     1       2.804   3.658  20.199  0.00  0.00    +0.000 A 
ATOM     10  C   UNL     1       4.044   4.085  19.735  0.00  0.00    +0.000 A 
ATOM     11  C   UNL     1       2.288   3.653  21.606  0.00  0.00    +0.000 C 
ATOM     12  C   UNL     1       1.051   2.751  21.474  0.00  0.00    +0.000 C 
ATOM     13  C   UNL     1       0.541   2.907  20.036  0.00  0.00    +0.000 C 
ENDBRANCH   3   5
BRANCH   1  14
ATOM     14  C   UNL     1       7.210   6.125  16.941  0.00  0.00    +0.000 C 
ATOM     15  C   UNL     1       7.671   7.494  17.436  0.00  0.00    +0.000 C 
BRANCH  14  19
ATOM     16  C   UNL     1       7.115   4.849  13.377  0.00  0.00    +0.000 C 
ATOM     17  C   UNL     1       7.069   4.783  14.878  0.00  0.00    +0.000 C 
ATOM     18  O   UNL     1       6.815   3.752  15.482  0.00  0.00    +0.000 OA
ATOM     19  N   UNL     1       7.339   5.996  15.487  0.00  0.00    +0.000 N 
ATOM     20  H   UNL     1       7.126   6.818  14.932  0.00  0.00    +0.000 HD
ENDBRANCH  14  19
ENDBRANCH   1  14
TORSDOF 3
ENDMDL
MODEL 5
REMARK VINA RESULT:      -7.2      1.008      1.008
REMARK  Name = 
REMARK  5 active torsions:
REMARK  status: ('A' for Active; 'I' for Inactive)
REMARK    1  A    between atoms: C_1  and  C_2
REMARK    2  A    between atoms: N_4  and  C_5
REMARK    3  A    between atoms: C_5  and  C_6
REMARK    4  A    between atoms: C_5  and  C_7
REMARK    5  A    between atoms: N_9  and  C_10
REMARK                            x       y       z     vdW  Elec       q    Type
REMARK                         _______ _______ _______ _____ _____    ______ ____
ROOT
ATOM      1  C   UNL     1       5.803   6.344  17.562  0.00  0.00    +0.000 C 
ATOM      2  O   UNL     1       4.972   7.107  17.071  0.00  0.00    +0.000 OA
ATOM      3  N   UNL     1       5.534   5.276  18.409  0.00  0.00    +0.000 N 
ATOM      4  H   UNL     1       6.338   4.790  18.791  0.00  0.00    +0.000 HD
ENDROOT
BRANCH   3   5
ATOM      5  C   UNL     1       4.262   4.873  18.878  0.00  0.00    +0.000 A 
ATOM      6  C   UNL     1       3.547   5.587  19.855  0.00  0.00    +0.000 A 
ATOM      7  C   UNL     1       2.319   5.125  20.343  0.00  0.00    +0.000 A 
ATOM      8  C   UNL     1       1.813   3.945  19.837  0.00  0.00    +0.000 A 
ATOM      9  C   UNL     1       2.496   3.238  18.846  0.00  0.00    +0.000 A 
ATOM     10  C   UNL     1       3.711   3.695  18.347  0.00  0.00    +0.000 A 
ATOM     11  C   UNL     1       1.781   1.960  18.527  0.00  0.00    +0.000 C 
ATOM     12  C   UNL     1       0.386   2.238  19.108  0.00  0.00    +0.000 C 
ATOM     13  C   UNL     1       0.578   3.219  20.271  0.00  0.00    +0.000 C 
ENDBRANCH   3   5
BRANCH   1  14
ATOM     14  C   UNL     1       7.296   6.500  17.212  0.00  0.00    +0.000 C 
ATOM     15  C   UNL     1       7.758   7.915  17.554  0.00  0.00    +0.000 C 
BRANCH  14  19
ATOM     16  C   UNL     1       7.306   4.817  13.820  0.00  0.00    +0.000 C 
ATOM     17  C   UNL     1       7.136   4.942  15.308  0.00  0.00    +0.000 C 
ATOM     18  O   UNL     1       6.699   4.033  15.999  0.00  0.00    +0.000 OA
ATOM     19  N   UNL     1       7.519   6.178  15.800  0.00  0.00    +0.000 N 
ATOM     20  H   UNL     1       7.462   6.945  15.140  0.00  0.00    +0.000 HD
ENDBRANCH  14  19
ENDBRANCH   1  14
TORSDOF 3
ENDMDL
MODEL 6
REMARK VINA RESULT:      -7.2      2.517      3.319
REMARK  Name = 
REMARK  5 active torsions:
REMARK  status: ('A' for Active; 'I' for Inactive)
REMARK    1  A    between atoms: C_1  and  C_2
REMARK    2  A    between atoms: N_4  and  C_5
REMARK    3  A    between atoms: C_5  and  C_6
REMARK    4  A    between atoms: C_5  and  C_7
REMARK    5  A    between atoms: N_9  and  C_10
REMARK                            x       y       z     vdW  Elec       q    Type
REMARK                         _______ _______ _______ _____ _____    ______ ____
ROOT
ATOM      1  C   UNL     1       5.444   4.454  15.482  0.00  0.00    +0.000 C 
ATOM      2  O   UNL     1       5.268   5.648  15.714  0.00  0.00    +0.000 OA
ATOM      3  N   UNL     1       5.058   3.397  16.297  0.00  0.00    +0.000 N 
ATOM      4  H   UNL     1       5.345   2.470  16.001  0.00  0.00    +0.000 HD
ENDROOT
BRANCH   3   5
ATOM      5  C   UNL     1       4.406   3.493  17.549  0.00  0.00    +0.000 A 
ATOM      6  C   UNL     1       5.063   3.899  18.723  0.00  0.00    +0.000 A 
ATOM      7  C   UNL     1       4.405   3.921  19.958  0.00  0.00    +0.000 A 
ATOM      8  C   UNL     1       3.079   3.539  20.003  0.00  0.00    +0.000 A 
ATOM      9  C   UNL     1       2.403   3.160  18.841  0.00  0.00    +0.000 A 
ATOM     10  C   UNL     1       3.047   3.146  17.609  0.00  0.00    +0.000 A 
ATOM     11  C   UNL     1       1.009   2.718  19.168  0.00  0.00    +0.000 C 
ATOM     12  C   UNL     1       0.818   3.322  20.569  0.00  0.00    +0.000 C 
ATOM     13  C   UNL     1       2.209   3.397  21.211  0.00  0.00    +0.000 C 
ENDBRANCH   3   5
BRANCH   1  14
ATOM     14  C   UNL     1       6.106   4.012  14.162  0.00  0.00    +0.000 C 
ATOM     15  C   UNL     1       7.279   4.936  13.844  0.00  0.00    +0.000 C 
BRANCH  14  19
ATOM     16  C   UNL     1       4.121   3.142  11.057  0.00  0.00    +0.000 C 
ATOM     17  C   UNL     1       5.288   3.143  12.005  0.00  0.00    +0.000 C 
ATOM     18  O   UNL     1       6.281   2.453  11.827  0.00  0.00    +0.000 OA
ATOM     19  N   UNL     1       5.114   3.992  13.084  0.00  0.00    +0.000 N 
ATOM     20  H   UNL     1       4.151   4.175  13.343  0.00  0.00    +0.000 HD
ENDBRANCH  14  19
ENDBRANCH   1  14
TORSDOF 3
ENDMDL
MODEL 7
REMARK VINA RESULT:      -7.2      1.517      2.897
REMARK  Name = 
REMARK  5 active torsions:
REMARK  status: ('A' for Active; 'I' for Inactive)
REMARK    1  A    between atoms: C_1  and  C_2
REMARK    2  A    between atoms: N_4  and  C_5
REMARK    3  A    between atoms: C_5  and  C_6
REMARK    4  A    between atoms: C_5  and  C_7
REMARK    5  A    between atoms: N_9  and  C_10
REMARK                            x       y       z     vdW  Elec       q    Type
REMARK                         _______ _______ _______ _____ _____    ______ ____
ROOT
ATOM      1  C   UNL     1       5.455   4.565  16.206  0.00  0.00    +0.000 C 
ATOM      2  O   UNL     1       5.548   3.356  16.003  0.00  0.00    +0.000 OA
ATOM      3  N   UNL     1       4.538   5.185  17.045  0.00  0.00    +0.000 N 
ATOM      4  H   UNL     1       4.540   6.199  17.045  0.00  0.00    +0.000 HD
ENDROOT
BRANCH   3   5
ATOM      5  C   UNL     1       3.530   4.549  17.808  0.00  0.00    +0.000 A 
ATOM      6  C   UNL     1       2.363   4.013  17.237  0.00  0.00    +0.000 A 
ATOM      7  C   UNL     1       1.357   3.448  18.028  0.00  0.00    +0.000 A 
ATOM      8  C   UNL     1       1.535   3.419  19.396  0.00  0.00    +0.000 A 
ATOM      9  C   UNL     1       2.701   3.922  19.978  0.00  0.00    +0.000 A 
ATOM     10  C   UNL     1       3.711   4.475  19.199  0.00  0.00    +0.000 A 
ATOM     11  C   UNL     1       2.615   3.846  21.473  0.00  0.00    +0.000 C 
ATOM     12  C   UNL     1       1.478   2.829  21.662  0.00  0.00    +0.000 C 
ATOM     13  C   UNL     1       0.564   2.954  20.436  0.00  0.00    +0.000 C 
ENDBRANCH   3   5
BRANCH   1  14
ATOM     14  C   UNL     1       6.446   5.539  15.539  0.00  0.00    +0.000 C 
ATOM     15  C   UNL     1       7.114   4.855  14.349  0.00  0.00    +0.000 C 
BRANCH  14  19
ATOM     16  C   UNL     1       8.199   7.424  18.317  0.00  0.00    +0.000 C 
ATOM     17  C   UNL     1       7.163   7.150  17.262  0.00  0.00    +0.000 C 
ATOM     18  O   UNL     1       6.191   7.871  17.092  0.00  0.00    +0.000 OA
ATOM     19  N   UNL     1       7.426   6.011  16.522  0.00  0.00    +0.000 N 
ATOM     20  H   UNL     1       7.981   5.305  16.992  0.00  0.00    +0.000 HD
ENDBRANCH  14  19
ENDBRANCH   1  14
TORSDOF 3
ENDMDL
MODEL 8
REMARK VINA RESULT:      -7.1      2.506      3.157
REMARK  Name = 
REMARK  5 active torsions:
REMARK  status: ('A' for Active; 'I' for Inactive)
REMARK    1  A    between atoms: C_1  and  C_2
REMARK    2  A    between atoms: N_4  and  C_5
REMARK    3  A    between atoms: C_5  and  C_6
REMARK    4  A    between atoms: C_5  and  C_7
REMARK    5  A    between atoms: N_9  and  C_10
REMARK                            x       y       z     vdW  Elec       q    Type
REMARK                         _______ _______ _______ _____ _____    ______ ____
ROOT
ATOM      1  C   UNL     1       5.378   4.381  15.875  0.00  0.00    +0.000 C 
ATOM      2  O   UNL     1       5.676   5.397  16.500  0.00  0.00    +0.000 OA
ATOM      3  N   UNL     1       4.373   3.481  16.208  0.00  0.00    +0.000 N 
ATOM      4  H   UNL     1       4.303   2.649  15.633  0.00  0.00    +0.000 HD
ENDROOT
BRANCH   3   5
ATOM      5  C   UNL     1       3.517   3.553  17.332  0.00  0.00    +0.000 A 
ATOM      6  C   UNL     1       2.317   4.286  17.332  0.00  0.00    +0.000 A 
ATOM      7  C   UNL     1       1.526   4.389  18.482  0.00  0.00    +0.000 A 
ATOM      8  C   UNL     1       1.943   3.744  19.628  0.00  0.00    +0.000 A 
ATOM      9  C   UNL     1       3.118   2.988  19.637  0.00  0.00    +0.000 A 
ATOM     10  C   UNL     1       3.905   2.871  18.496  0.00  0.00    +0.000 A 
ATOM     11  C   UNL     1       3.389   2.459  21.013  0.00  0.00    +0.000 C 
ATOM     12  C   UNL     1       2.010   2.609  21.675  0.00  0.00    +0.000 C 
ATOM     13  C   UNL     1       1.314   3.789  20.985  0.00  0.00    +0.000 C 
ENDBRANCH   3   5
BRANCH   1  14
ATOM     14  C   UNL     1       6.114   4.035  14.566  0.00  0.00    +0.000 C 
ATOM     15  C   UNL     1       7.216   5.061  14.311  0.00  0.00    +0.000 C 
BRANCH  14  19
ATOM     16  C   UNL     1       4.375   3.210  11.304  0.00  0.00    +0.000 C 
ATOM     17  C   UNL     1       5.506   3.307  12.290  0.00  0.00    +0.000 C 
ATOM     18  O   UNL     1       6.613   2.840  12.068  0.00  0.00    +0.000 OA
ATOM     19  N   UNL     1       5.160   3.968  13.455  0.00  0.00    +0.000 N 
ATOM     20  H   UNL     1       4.175   3.936  13.697  0.00  0.00    +0.000 HD
ENDBRANCH  14  19
ENDBRANCH   1  14
TORSDOF 3
ENDMDL
MODEL 9
REMARK VINA RESULT:      -7.0      3.016      4.790
REMARK  Name = 
REMARK  5 active torsions:
REMARK  status: ('A' for Active; 'I' for Inactive)
REMARK    1  A    between atoms: C_1  and  C_2
REMARK    2  A    between atoms: N_4  and  C_5
REMARK    3  A    between atoms: C_5  and  C_6
REMARK    4  A    between atoms: C_5  and  C_7
REMARK    5  A    between atoms: N_9  and  C_10
REMARK                            x       y       z     vdW  Elec       q    Type
REMARK                         _______ _______ _______ _____ _____    ______ ____
ROOT
ATOM      1  C   UNL     1       2.691   4.305  17.706  0.00  0.00    +0.000 C 
ATOM      2  O   UNL     1       1.482   4.147  17.543  0.00  0.00    +0.000 OA
ATOM      3  N   UNL     1       3.296   5.377  18.349  0.00  0.00    +0.000 N 
ATOM      4  H   UNL     1       4.310   5.399  18.333  0.00  0.00    +0.000 HD
ENDROOT
BRANCH   3   5
ATOM      5  C   UNL     1       2.643   6.493  18.922  0.00  0.00    +0.000 A 
ATOM      6  C   UNL     1       2.111   6.481  20.223  0.00  0.00    +0.000 A 
ATOM      7  C   UNL     1       1.415   7.581  20.736  0.00  0.00    +0.000 A 
ATOM      8  C   UNL     1       1.263   8.695  19.936  0.00  0.00    +0.000 A 
ATOM      9  C   UNL     1       1.810   8.734  18.652  0.00  0.00    +0.000 A 
ATOM     10  C   UNL     1       2.513   7.650  18.138  0.00  0.00    +0.000 A 
ATOM     11  C   UNL     1       1.440  10.014  17.964  0.00  0.00    +0.000 C 
ATOM     12  C   UNL     1       1.017  10.888  19.155  0.00  0.00    +0.000 C 
ATOM     13  C   UNL     1       0.486   9.938  20.235  0.00  0.00    +0.000 C 
ENDBRANCH   3   5
BRANCH   1  14
ATOM     14  C   UNL     1       3.683   3.230  17.218  0.00  0.00    +0.000 C 
ATOM     15  C   UNL     1       3.383   1.904  17.912  0.00  0.00    +0.000 C 
BRANCH  14  19
ATOM     16  C   UNL     1       7.189   4.597  16.798  0.00  0.00    +0.000 C 
ATOM     17  C   UNL     1       5.856   4.040  16.382  0.00  0.00    +0.000 C 
ATOM     18  O   UNL     1       5.526   3.932  15.211  0.00  0.00    +0.000 OA
ATOM     19  N   UNL     1       5.060   3.673  17.453  0.00  0.00    +0.000 N 
ATOM     20  H   UNL     1       5.241   4.168  18.319  0.00  0.00    +0.000 HD
ENDBRANCH  14  19
ENDBRANCH   1  14
TORSDOF 3
ENDMDL
