MODEL 1
REMARK VINA RESULT:      -8.9      0.000      0.000
REMARK  Name = 
REMARK  7 active torsions:
REMARK  status: ('A' for Active; 'I' for Inactive)
REMARK    1  A    between atoms: C_1  and  C_2
REMARK    2  A    between atoms: C_2  and  C_3
REMARK    3  A    between atoms: C_3  and  N_4
REMARK    4  A    between atoms: C_3  and  C_14
REMARK    5  A    between atoms: C_5  and  C_7
REMARK    6  A    between atoms: C_17  and  O_18
REMARK    7  A    between atoms: O_18  and  C_19
REMARK                            x       y       z     vdW  Elec       q    Type
REMARK                         _______ _______ _______ _____ _____    ______ ____
ROOT
ATOM      1  C   UNL     1       2.544   2.317  19.402  0.00  0.00    +0.000 C 
ATOM      2  C   UNL     1       1.616   2.995  20.400  0.00  0.00    +0.000 C 
ATOM      3  C   UNL     1       2.002   4.169  21.256  0.00  0.00    +0.000 C 
ATOM      4  C   UNL     1       2.377   5.329  20.309  0.00  0.00    +0.000 C 
ATOM      5  C   UNL     1       1.947   4.874  18.900  0.00  0.00    +0.000 C 
ATOM      6  C   UNL     1       1.599   3.421  18.972  0.00  0.00    +0.000 C 
ENDROOT
BRANCH   1   7
ATOM      7  C   UNL     1       4.041   2.452  19.494  0.00  0.00    +0.000 C 
BRANCH   7   8
ATOM      8  N   UNL     1       4.555   2.924  18.216  0.00  0.00    +0.000 N 
ATOM      9  C   UNL     1       5.475   3.950  18.135  0.00  0.00    +0.000 C 
ATOM     10  O   UNL     1       5.910   4.545  19.123  0.00  0.00    +0.000 OA
ATOM     11  H   UNL     1       4.407   2.338  17.406  0.00  0.00    +0.000 HD
BRANCH   9  12
ATOM     12  C   UNL     1       5.956   4.320  16.774  0.00  0.00    +0.000 A 
ATOM     13  C   UNL     1       7.214   4.896  16.578  0.00  0.00    +0.000 A 
ATOM     14  C   UNL     1       7.676   5.165  15.284  0.00  0.00    +0.000 A 
ATOM     15  C   UNL     1       6.883   4.846  14.182  0.00  0.00    +0.000 A 
ATOM     16 CL   UNL     1       7.479   5.135  12.596  0.00  0.00    +0.000 Cl
ATOM     17  C   UNL     1       5.624   4.274  14.366  0.00  0.00    +0.000 A 
ATOM     18  C   UNL     1       5.162   4.008  15.656  0.00  0.00    +0.000 A 
ENDBRANCH   9  12
ENDBRANCH   7   8
BRANCH   7  20
ATOM     19  C   UNL     1       5.354   1.157  21.290  0.00  0.00    +0.000 C 
ATOM     20  C   UNL     1       4.693   1.123  19.918  0.00  0.00    +0.000 C 
ENDBRANCH   7  20
ENDBRANCH   1   7
BRANCH   4  21
ATOM     21  O   UNL     1       1.668   6.501  20.737  0.00  0.00    +0.000 OA
BRANCH  21  22
ATOM     22  C   UNL     1       1.740   7.622  19.942  0.00  0.00    +0.000 A 
ATOM     23  C   UNL     1       2.368   7.646  18.701  0.00  0.00    +0.000 A 
ATOM     24  C   UNL     1       2.329   8.811  17.964  0.00  0.00    +0.000 A 
ATOM     25  N   UNL     1       1.688   9.928  18.357  0.00  0.00    +0.000 NA
ATOM     26  C   UNL     1       1.046   9.899  19.531  0.00  0.00    +0.000 A 
ATOM     27  C   UNL     1       0.297  11.012  19.883  0.00  0.00    +0.000 A 
ATOM     28  C   UNL     1      -0.428  11.059  21.071  0.00  0.00    +0.000 A 
ATOM     29  C   UNL     1      -0.361   9.987  21.945  0.00  0.00    +0.000 A 
ATOM     30  F   UNL     1      -1.044  10.032  23.096  0.00  0.00    +0.000 F 
ATOM     31  C   UNL     1       0.383   8.857  21.630  0.00  0.00    +0.000 A 
ATOM     32  C   UNL     1       1.063   8.777  20.393  0.00  0.00    +0.000 A 
ENDBRANCH  21  22
ENDBRANCH   4  21
TORSDOF 6
ENDMDL
MODEL 2
REMARK VINA RESULT:      -8.1      1.974      2.612
REMARK  Name = 
REMARK  7 active torsions:
REMARK  status: ('A' for Active; 'I' for Inactive)
REMARK    1  A    between atoms: C_1  and  C_2
REMARK    2  A    between atoms: C_2  and  C_3
REMARK    3  A    between atoms: C_3  and  N_4
REMARK    4  A    between atoms: C_3  and  C_14
REMARK    5  A    between atoms: C_5  and  C_7
REMARK    6  A    between atoms: C_17  and  O_18
REMARK    7  A    between atoms: O_18  and  C_19
REMARK                            x       y       z     vdW  Elec       q    Type
REMARK                         _______ _______ _______ _____ _____    ______ ____
ROOT
ATOM      1  C   UNL     1       4.433   4.403  18.868  0.00  0.00    +0.000 C 
ATOM      2  C   UNL     1       3.438   5.009  19.848  0.00  0.00    +0.000 C 
ATOM      3  C   UNL     1       3.155   6.481  19.970  0.00  0.00    +0.000 C 
ATOM      4  C   UNL     1       2.614   6.962  18.606  0.00  0.00    +0.000 C 
ATOM      5  C   UNL     1       2.350   5.683  17.786  0.00  0.00    +0.000 C 
ATOM      6  C   UNL     1       2.964   4.532  18.518  0.00  0.00    +0.000 C 
ENDROOT
BRANCH   1   7
ATOM      7  C   UNL     1       5.539   5.221  18.255  0.00  0.00    +0.000 C 
BRANCH   7   8
ATOM      8  N   UNL     1       5.844   4.693  16.933  0.00  0.00    +0.000 N 
ATOM      9  C   UNL     1       5.712   5.461  15.793  0.00  0.00    +0.000 C 
ATOM     10  O   UNL     1       5.316   6.628  15.809  0.00  0.00    +0.000 OA
ATOM     11  H   UNL     1       6.374   3.834  16.882  0.00  0.00    +0.000 HD
BRANCH   9  12
ATOM     12  C   UNL     1       6.090   4.822  14.501  0.00  0.00    +0.000 A 
ATOM     13  C   UNL     1       7.315   5.092  13.886  0.00  0.00    +0.000 A 
ATOM     14  C   UNL     1       7.681   4.422  12.712  0.00  0.00    +0.000 A 
ATOM     15  C   UNL     1       6.825   3.472  12.157  0.00  0.00    +0.000 A 
ATOM     16 CL   UNL     1       7.304   2.621  10.743  0.00  0.00    +0.000 Cl
ATOM     17  C   UNL     1       5.597   3.197  12.760  0.00  0.00    +0.000 A 
ATOM     18  C   UNL     1       5.231   3.866  13.929  0.00  0.00    +0.000 A 
ENDBRANCH   9  12
ENDBRANCH   7   8
BRANCH   7  20
ATOM     19  C   UNL     1       7.824   6.285  18.778  0.00  0.00    +0.000 C 
ATOM     20  C   UNL     1       6.783   5.242  19.164  0.00  0.00    +0.000 C 
ENDBRANCH   7  20
ENDBRANCH   1   7
BRANCH   4  21
ATOM     21  O   UNL     1       1.412   7.709  18.842  0.00  0.00    +0.000 OA
BRANCH  21  22
ATOM     22  C   UNL     1       1.512   9.080  18.918  0.00  0.00    +0.000 A 
ATOM     23  C   UNL     1       2.069   9.868  17.917  0.00  0.00    +0.000 A 
ATOM     24  C   UNL     1       2.063  11.238  18.075  0.00  0.00    +0.000 A 
ATOM     25  N   UNL     1       1.519  11.870  19.132  0.00  0.00    +0.000 NA
ATOM     26  C   UNL     1       0.944  11.121  20.079  0.00  0.00    +0.000 A 
ATOM     27  C   UNL     1       0.290  11.777  21.112  0.00  0.00    +0.000 A 
ATOM     28  C   UNL     1      -0.362  11.080  22.124  0.00  0.00    +0.000 A 
ATOM     29  C   UNL     1      -0.315   9.696  22.129  0.00  0.00    +0.000 A 
ATOM     30  F   UNL     1      -0.927   9.019  23.109  0.00  0.00    +0.000 F 
ATOM     31  C   UNL     1       0.336   9.003  21.115  0.00  0.00    +0.000 A 
ATOM     32  C   UNL     1       0.937   9.707  20.047  0.00  0.00    +0.000 A 
ENDBRANCH  21  22
ENDBRANCH   4  21
TORSDOF 6
ENDMDL
MODEL 3
REMARK VINA RESULT:      -7.9      3.902      8.605
REMARK  Name = 
REMARK  7 active torsions:
REMARK  status: ('A' for Active; 'I' for Inactive)
REMARK    1  A    between atoms: C_1  and  C_2
REMARK    2  A    between atoms: C_2  and  C_3
REMARK    3  A    between atoms: C_3  and  N_4
REMARK    4  A    between atoms: C_3  and  C_14
REMARK    5  A    between atoms: C_5  and  C_7
REMARK    6  A    between atoms: C_17  and  O_18
REMARK    7  A    between atoms: O_18  and  C_19
REMARK                            x       y       z     vdW  Elec       q    Type
REMARK                         _______ _______ _______ _____ _____    ______ ____
ROOT
ATOM      1  C   UNL     1      -0.592  10.764  22.559  0.00  0.00    +0.000 C 
ATOM      2  C   UNL     1      -0.779   9.264  22.739  0.00  0.00    +0.000 C 
ATOM      3  C   UNL     1      -0.604   8.249  21.645  0.00  0.00    +0.000 C 
ATOM      4  C   UNL     1       0.856   8.345  21.153  0.00  0.00    +0.000 C 
ATOM      5  C   UNL     1       1.580   9.255  22.167  0.00  0.00    +0.000 C 
ATOM      6  C   UNL     1       0.542   9.883  23.043  0.00  0.00    +0.000 C 
ENDROOT
BRANCH   1   7
ATOM      7  C   UNL     1      -0.660  11.413  21.202  0.00  0.00    +0.000 C 
BRANCH   7   8
ATOM      8  N   UNL     1       0.572  12.154  20.967  0.00  0.00    +0.000 N 
ATOM      9  C   UNL     1       0.989  12.489  19.695  0.00  0.00    +0.000 C 
ATOM     10  O   UNL     1       0.369  12.176  18.677  0.00  0.00    +0.000 OA
ATOM     11  H   UNL     1       0.995  12.620  21.758  0.00  0.00    +0.000 HD
BRANCH   9  12
ATOM     12  C   UNL     1       2.247  13.281  19.584  0.00  0.00    +0.000 A 
ATOM     13  C   UNL     1       2.850  13.519  18.347  0.00  0.00    +0.000 A 
ATOM     14  C   UNL     1       3.988  14.330  18.258  0.00  0.00    +0.000 A 
ATOM     15  C   UNL     1       4.518  14.914  19.407  0.00  0.00    +0.000 A 
ATOM     16 CL   UNL     1       5.886  15.947  19.282  0.00  0.00    +0.000 Cl
ATOM     17  C   UNL     1       3.926  14.681  20.650  0.00  0.00    +0.000 A 
ATOM     18  C   UNL     1       2.793  13.871  20.739  0.00  0.00    +0.000 A 
ENDBRANCH   9  12
ENDBRANCH   7   8
BRANCH   7  20
ATOM     19  C   UNL     1      -2.587  12.624  22.403  0.00  0.00    +0.000 C 
ATOM     20  C   UNL     1      -1.903  12.314  21.078  0.00  0.00    +0.000 C 
ENDBRANCH   7  20
ENDBRANCH   1   7
BRANCH   4  21
ATOM     21  O   UNL     1       1.407   7.020  21.129  0.00  0.00    +0.000 OA
BRANCH  21  22
ATOM     22  C   UNL     1       1.981   6.584  19.955  0.00  0.00    +0.000 A 
ATOM     23  C   UNL     1       2.512   7.438  18.995  0.00  0.00    +0.000 A 
ATOM     24  C   UNL     1       3.114   6.887  17.884  0.00  0.00    +0.000 A 
ATOM     25  N   UNL     1       3.251   5.563  17.682  0.00  0.00    +0.000 NA
ATOM     26  C   UNL     1       2.780   4.736  18.622  0.00  0.00    +0.000 A 
ATOM     27  C   UNL     1       3.019   3.379  18.465  0.00  0.00    +0.000 A 
ATOM     28  C   UNL     1       2.593   2.447  19.408  0.00  0.00    +0.000 A 
ATOM     29  C   UNL     1       1.869   2.882  20.506  0.00  0.00    +0.000 A 
ATOM     30  F   UNL     1       1.443   1.990  21.408  0.00  0.00    +0.000 F 
ATOM     31  C   UNL     1       1.605   4.233  20.695  0.00  0.00    +0.000 A 
ATOM     32  C   UNL     1       2.099   5.187  19.776  0.00  0.00    +0.000 A 
ENDBRANCH  21  22
ENDBRANCH   4  21
TORSDOF 6
ENDMDL
MODEL 4
REMARK VINA RESULT:      -7.9      4.201      6.982
REMARK  Name = 
REMARK  7 active torsions:
REMARK  status: ('A' for Active; 'I' for Inactive)
REMARK    1  A    between atoms: C_1  and  C_2
REMARK    2  A    between atoms: C_2  and  C_3
REMARK    3  A    between atoms: C_3  and  N_4
REMARK    4  A    between atoms: C_3  and  C_14
REMARK    5  A    between atoms: C_5  and  C_7
REMARK    6  A    between atoms: C_17  and  O_18
REMARK    7  A    between atoms: O_18  and  C_19
REMARK                            x       y       z     vdW  Elec       q    Type
REMARK                         _______ _______ _______ _____ _____    ______ ____
ROOT
ATOM      1  C   UNL     1      -0.259   9.463  20.721  0.00  0.00    +0.000 C 
ATOM      2  C   UNL     1      -0.745  10.897  20.572  0.00  0.00    +0.000 C 
ATOM      3  C   UNL     1       0.157  12.087  20.397  0.00  0.00    +0.000 C 
ATOM      4  C   UNL     1       0.960  11.871  19.096  0.00  0.00    +0.000 C 
ATOM      5  C   UNL     1       0.308  10.660  18.398  0.00  0.00    +0.000 C 
ATOM      6  C   UNL     1      -0.640  10.027  19.367  0.00  0.00    +0.000 C 
ENDROOT
BRANCH   1   7
ATOM      7  C   UNL     1       1.148   9.145  21.155  0.00  0.00    +0.000 C 
BRANCH   7   8
ATOM      8  N   UNL     1       1.458   7.769  20.794  0.00  0.00    +0.000 N 
ATOM      9  C   UNL     1       2.102   7.453  19.615  0.00  0.00    +0.000 C 
ATOM     10  O   UNL     1       2.442   8.298  18.785  0.00  0.00    +0.000 OA
ATOM     11  H   UNL     1       1.404   7.070  21.523  0.00  0.00    +0.000 HD
BRANCH   9  12
ATOM     12  C   UNL     1       2.399   6.013  19.373  0.00  0.00    +0.000 A 
ATOM     13  C   UNL     1       1.966   5.022  20.257  0.00  0.00    +0.000 A 
ATOM     14  C   UNL     1       2.190   3.669  19.969  0.00  0.00    +0.000 A 
ATOM     15  C   UNL     1       2.837   3.307  18.789  0.00  0.00    +0.000 A 
ATOM     16 CL   UNL     1       3.065   1.643  18.422  0.00  0.00    +0.000 Cl
ATOM     17  C   UNL     1       3.278   4.289  17.900  0.00  0.00    +0.000 A 
ATOM     18  C   UNL     1       3.058   5.636  18.188  0.00  0.00    +0.000 A 
ENDBRANCH   9  12
ENDBRANCH   7   8
BRANCH   7  20
ATOM     19  C   UNL     1       0.032   9.453  23.455  0.00  0.00    +0.000 C 
ATOM     20  C   UNL     1       1.333   9.396  22.664  0.00  0.00    +0.000 C 
ENDBRANCH   7  20
ENDBRANCH   1   7
BRANCH   4  21
ATOM     21  O   UNL     1       0.859  13.066  18.307  0.00  0.00    +0.000 OA
BRANCH  21  22
ATOM     22  C   UNL     1       1.747  14.086  18.569  0.00  0.00    +0.000 A 
ATOM     23  C   UNL     1       3.128  13.926  18.553  0.00  0.00    +0.000 A 
ATOM     24  C   UNL     1       3.923  15.031  18.773  0.00  0.00    +0.000 A 
ATOM     25  N   UNL     1       3.444  16.273  18.973  0.00  0.00    +0.000 NA
ATOM     26  C   UNL     1       2.117  16.442  18.948  0.00  0.00    +0.000 A 
ATOM     27  C   UNL     1       1.630  17.737  19.045  0.00  0.00    +0.000 A 
ATOM     28  C   UNL     1       0.266  18.011  18.998  0.00  0.00    +0.000 A 
ATOM     29  C   UNL     1      -0.630  16.960  18.901  0.00  0.00    +0.000 A 
ATOM     30  F   UNL     1      -1.944  17.215  18.870  0.00  0.00    +0.000 F 
ATOM     31  C   UNL     1      -0.181  15.648  18.807  0.00  0.00    +0.000 A 
ATOM     32  C   UNL     1       1.205  15.373  18.783  0.00  0.00    +0.000 A 
ENDBRANCH  21  22
ENDBRANCH   4  21
TORSDOF 6
ENDMDL
MODEL 5
REMARK VINA RESULT:      -7.9      3.895      8.608
REMARK  Name = 
REMARK  7 active torsions:
REMARK  status: ('A' for Active; 'I' for Inactive)
REMARK    1  A    between atoms: C_1  and  C_2
REMARK    2  A    between atoms: C_2  and  C_3
REMARK    3  A    between atoms: C_3  and  N_4
REMARK    4  A    between atoms: C_3  and  C_14
REMARK    5  A    between atoms: C_5  and  C_7
REMARK    6  A    between atoms: C_17  and  O_18
REMARK    7  A    between atoms: O_18  and  C_19
REMARK                            x       y       z     vdW  Elec       q    Type
REMARK                         _______ _______ _______ _____ _____    ______ ____
ROOT
ATOM      1  C   UNL     1      -0.518  10.906  22.302  0.00  0.00    +0.000 C 
ATOM      2  C   UNL     1      -0.761   9.426  22.559  0.00  0.00    +0.000 C 
ATOM      3  C   UNL     1      -0.643   8.352  21.513  0.00  0.00    +0.000 C 
ATOM      4  C   UNL     1       0.812   8.366  20.997  0.00  0.00    +0.000 C 
ATOM      5  C   UNL     1       1.586   9.294  21.955  0.00  0.00    +0.000 C 
ATOM      6  C   UNL     1       0.588  10.005  22.813  0.00  0.00    +0.000 C 
ENDROOT
BRANCH   1   7
ATOM      7  C   UNL     1      -0.581  11.491  20.916  0.00  0.00    +0.000 C 
BRANCH   7   8
ATOM      8  N   UNL     1       0.537  12.406  20.734  0.00  0.00    +0.000 N 
ATOM      9  C   UNL     1       1.256  12.454  19.557  0.00  0.00    +0.000 C 
ATOM     10  O   UNL     1       1.019  11.724  18.592  0.00  0.00    +0.000 OA
ATOM     11  H   UNL     1       0.632  13.166  21.394  0.00  0.00    +0.000 HD
BRANCH   9  12
ATOM     12  C   UNL     1       2.354  13.458  19.476  0.00  0.00    +0.000 A 
ATOM     13  C   UNL     1       2.695  14.254  20.573  0.00  0.00    +0.000 A 
ATOM     14  C   UNL     1       3.781  15.135  20.497  0.00  0.00    +0.000 A 
ATOM     15  C   UNL     1       4.534  15.213  19.327  0.00  0.00    +0.000 A 
ATOM     16 CL   UNL     1       5.894  16.263  19.261  0.00  0.00    +0.000 Cl
ATOM     17  C   UNL     1       4.201  14.426  18.224  0.00  0.00    +0.000 A 
ATOM     18  C   UNL     1       3.118  13.549  18.298  0.00  0.00    +0.000 A 
ENDBRANCH   9  12
ENDBRANCH   7   8
BRANCH   7  20
ATOM     19  C   UNL     1      -2.414  12.122  19.222  0.00  0.00    +0.000 C 
ATOM     20  C   UNL     1      -1.934  12.184  20.666  0.00  0.00    +0.000 C 
ENDBRANCH   7  20
ENDBRANCH   1   7
BRANCH   4  21
ATOM     21  O   UNL     1       1.309   7.021  21.031  0.00  0.00    +0.000 OA
BRANCH  21  22
ATOM     22  C   UNL     1       2.086   6.596  19.976  0.00  0.00    +0.000 A 
ATOM     23  C   UNL     1       2.517   7.433  18.953  0.00  0.00    +0.000 A 
ATOM     24  C   UNL     1       3.341   6.912  17.977  0.00  0.00    +0.000 A 
ATOM     25  N   UNL     1       3.784   5.641  17.968  0.00  0.00    +0.000 NA
ATOM     26  C   UNL     1       3.407   4.841  18.972  0.00  0.00    +0.000 A 
ATOM     27  C   UNL     1       3.951   3.566  19.019  0.00  0.00    +0.000 A 
ATOM     28  C   UNL     1       3.640   2.676  20.044  0.00  0.00    +0.000 A 
ATOM     29  C   UNL     1       2.726   3.055  21.013  0.00  0.00    +0.000 A 
ATOM     30  F   UNL     1       2.411   2.199  21.992  0.00  0.00    +0.000 F 
ATOM     31  C   UNL     1       2.155   4.322  20.995  0.00  0.00    +0.000 A 
ATOM     32  C   UNL     1       2.524   5.253  19.998  0.00  0.00    +0.000 A 
ENDBRANCH  21  22
ENDBRANCH   4  21
TORSDOF 6
ENDMDL
MODEL 6
REMARK VINA RESULT:      -7.7      4.314      8.672
REMARK  Name = 
REMARK  7 active torsions:
REMARK  status: ('A' for Active; 'I' for Inactive)
REMARK    1  A    between atoms: C_1  and  C_2
REMARK    2  A    between atoms: C_2  and  C_3
REMARK    3  A    between atoms: C_3  and  N_4
REMARK    4  A    between atoms: C_3  and  C_14
REMARK    5  A    between atoms: C_5  and  C_7
REMARK    6  A    between atoms: C_17  and  O_18
REMARK    7  A    between atoms: O_18  and  C_19
REMARK                            x       y       z     vdW  Elec       q    Type
REMARK                         _______ _______ _______ _____ _____    ______ ____
ROOT
ATOM      1  C   UNL     1       3.373   5.246  20.250  0.00  0.00    +0.000 C 
ATOM      2  C   UNL     1       4.290   4.180  19.669  0.00  0.00    +0.000 C 
ATOM      3  C   UNL     1       3.917   3.264  18.536  0.00  0.00    +0.000 C 
ATOM      4  C   UNL     1       3.613   4.147  17.308  0.00  0.00    +0.000 C 
ATOM      5  C   UNL     1       4.073   5.569  17.690  0.00  0.00    +0.000 C 
ATOM      6  C   UNL     1       4.369   5.578  19.156  0.00  0.00    +0.000 C 
ENDROOT
BRANCH   1   7
ATOM      7  C   UNL     1       1.879   5.192  20.067  0.00  0.00    +0.000 C 
BRANCH   7   8
ATOM      8  N   UNL     1       1.279   6.358  20.699  0.00  0.00    +0.000 N 
ATOM      9  C   UNL     1       1.407   7.624  20.163  0.00  0.00    +0.000 C 
ATOM     10  O   UNL     1       2.043   7.860  19.135  0.00  0.00    +0.000 OA
ATOM     11  H   UNL     1       0.575   6.197  21.406  0.00  0.00    +0.000 HD
BRANCH   9  12
ATOM     12  C   UNL     1       0.716   8.733  20.880  0.00  0.00    +0.000 A 
ATOM     13  C   UNL     1       0.585   8.731  22.271  0.00  0.00    +0.000 A 
ATOM     14  C   UNL     1       0.001   9.820  22.929  0.00  0.00    +0.000 A 
ATOM     15  C   UNL     1      -0.441  10.920  22.196  0.00  0.00    +0.000 A 
ATOM     16 CL   UNL     1      -1.113  12.273  23.016  0.00  0.00    +0.000 Cl
ATOM     17  C   UNL     1      -0.319  10.932  20.805  0.00  0.00    +0.000 A 
ATOM     18  C   UNL     1       0.260   9.846  20.149  0.00  0.00    +0.000 A 
ENDBRANCH   9  12
ENDBRANCH   7   8
BRANCH   7  20
ATOM     19  C   UNL     1       0.651   2.984  19.574  0.00  0.00    +0.000 C 
ATOM     20  C   UNL     1       1.300   3.877  20.623  0.00  0.00    +0.000 C 
ENDBRANCH   7  20
ENDBRANCH   1   7
BRANCH   4  21
ATOM     21  O   UNL     1       4.347   3.625  16.191  0.00  0.00    +0.000 OA
BRANCH  21  22
ATOM     22  C   UNL     1       5.464   4.317  15.776  0.00  0.00    +0.000 A 
ATOM     23  C   UNL     1       6.285   5.038  16.635  0.00  0.00    +0.000 A 
ATOM     24  C   UNL     1       7.411   5.644  16.118  0.00  0.00    +0.000 A 
ATOM     25  N   UNL     1       7.787   5.555  14.829  0.00  0.00    +0.000 NA
ATOM     26  C   UNL     1       7.025   4.827  14.005  0.00  0.00    +0.000 A 
ATOM     27  C   UNL     1       7.472   4.646  12.704  0.00  0.00    +0.000 A 
ATOM     28  C   UNL     1       6.760   3.878  11.787  0.00  0.00    +0.000 A 
ATOM     29  C   UNL     1       5.550   3.322  12.167  0.00  0.00    +0.000 A 
ATOM     30  F   UNL     1       4.853   2.596  11.284  0.00  0.00    +0.000 F 
ATOM     31  C   UNL     1       5.066   3.487  13.459  0.00  0.00    +0.000 A 
ATOM     32  C   UNL     1       5.822   4.205  14.413  0.00  0.00    +0.000 A 
ENDBRANCH  21  22
ENDBRANCH   4  21
TORSDOF 6
ENDMDL
MODEL 7
REMARK VINA RESULT:      -7.7      3.975      8.593
REMARK  Name = 
REMARK  7 active torsions:
REMARK  status: ('A' for Active; 'I' for Inactive)
REMARK    1  A    between atoms: C_1  and  C_2
REMARK    2  A    between atoms: C_2  and  C_3
REMARK    3  A    between atoms: C_3  and  N_4
REMARK    4  A    between atoms: C_3  and  C_14
REMARK    5  A    between atoms: C_5  and  C_7
REMARK    6  A    between atoms: C_17  and  O_18
REMARK    7  A    between atoms: O_18  and  C_19
REMARK                            x       y       z     vdW  Elec       q    Type
REMARK                         _______ _______ _______ _____ _____    ______ ____
ROOT
ATOM      1  C   UNL     1      -0.632  10.643  21.589  0.00  0.00    +0.000 C 
ATOM      2  C   UNL     1      -0.688   9.142  21.833  0.00  0.00    +0.000 C 
ATOM      3  C   UNL     1      -0.164   8.106  20.877  0.00  0.00    +0.000 C 
ATOM      4  C   UNL     1       1.349   8.359  20.706  0.00  0.00    +0.000 C 
ATOM      5  C   UNL     1       1.725   9.396  21.783  0.00  0.00    +0.000 C 
ATOM      6  C   UNL     1       0.456   9.932  22.368  0.00  0.00    +0.000 C 
ENDROOT
BRANCH   1   7
ATOM      7  C   UNL     1      -0.467  11.215  20.206  0.00  0.00    +0.000 C 
BRANCH   7   8
ATOM      8  N   UNL     1       0.536  12.270  20.245  0.00  0.00    +0.000 N 
ATOM      9  C   UNL     1       1.618  12.278  19.388  0.00  0.00    +0.000 C 
ATOM     10  O   UNL     1       1.822  11.396  18.551  0.00  0.00    +0.000 OA
ATOM     11  H   UNL     1       0.306  13.117  20.747  0.00  0.00    +0.000 HD
BRANCH   9  12
ATOM     12  C   UNL     1       2.558  13.429  19.497  0.00  0.00    +0.000 A 
ATOM     13  C   UNL     1       3.108  14.030  18.362  0.00  0.00    +0.000 A 
ATOM     14  C   UNL     1       3.928  15.158  18.485  0.00  0.00    +0.000 A 
ATOM     15  C   UNL     1       4.188  15.695  19.744  0.00  0.00    +0.000 A 
ATOM     16 CL   UNL     1       5.156  17.110  19.881  0.00  0.00    +0.000 Cl
ATOM     17  C   UNL     1       3.647  15.102  20.886  0.00  0.00    +0.000 A 
ATOM     18  C   UNL     1       2.833  13.975  20.764  0.00  0.00    +0.000 A 
ENDBRANCH   9  12
ENDBRANCH   7   8
BRANCH   7  20
ATOM     19  C   UNL     1      -2.297  10.987  18.411  0.00  0.00    +0.000 C 
ATOM     20  C   UNL     1      -1.811  11.724  19.652  0.00  0.00    +0.000 C 
ENDBRANCH   7  20
ENDBRANCH   1   7
BRANCH   4  21
ATOM     21  O   UNL     1       2.034   7.112  20.896  0.00  0.00    +0.000 OA
BRANCH  21  22
ATOM     22  C   UNL     1       2.338   6.368  19.777  0.00  0.00    +0.000 A 
ATOM     23  C   UNL     1       2.941   6.898  18.643  0.00  0.00    +0.000 A 
ATOM     24  C   UNL     1       3.253   6.047  17.603  0.00  0.00    +0.000 A 
ATOM     25  N   UNL     1       3.038   4.719  17.629  0.00  0.00    +0.000 NA
ATOM     26  C   UNL     1       2.496   4.196  18.735  0.00  0.00    +0.000 A 
ATOM     27  C   UNL     1       2.375   2.815  18.803  0.00  0.00    +0.000 A 
ATOM     28  C   UNL     1       1.852   2.182  19.926  0.00  0.00    +0.000 A 
ATOM     29  C   UNL     1       1.394   2.951  20.983  0.00  0.00    +0.000 A 
ATOM     30  F   UNL     1       0.875   2.348  22.060  0.00  0.00    +0.000 F 
ATOM     31  C   UNL     1       1.492   4.337  20.949  0.00  0.00    +0.000 A 
ATOM     32  C   UNL     1       2.089   4.979  19.840  0.00  0.00    +0.000 A 
ENDBRANCH  21  22
ENDBRANCH   4  21
TORSDOF 6
ENDMDL
MODEL 8
REMARK VINA RESULT:      -7.6      4.115      8.281
REMARK  Name = 
REMARK  7 active torsions:
REMARK  status: ('A' for Active; 'I' for Inactive)
REMARK    1  A    between atoms: C_1  and  C_2
REMARK    2  A    between atoms: C_2  and  C_3
REMARK    3  A    between atoms: C_3  and  N_4
REMARK    4  A    between atoms: C_3  and  C_14
REMARK    5  A    between atoms: C_5  and  C_7
REMARK    6  A    between atoms: C_17  and  O_18
REMARK    7  A    between atoms: O_18  and  C_19
REMARK                            x       y       z     vdW  Elec       q    Type
REMARK                         _______ _______ _______ _____ _____    ______ ____
ROOT
ATOM      1  C   UNL     1       3.293   4.230  20.358  0.00  0.00    +0.000 C 
ATOM      2  C   UNL     1       4.086   3.103  19.713  0.00  0.00    +0.000 C 
ATOM      3  C   UNL     1       3.790   2.524  18.357  0.00  0.00    +0.000 C 
ATOM      4  C   UNL     1       3.933   3.664  17.326  0.00  0.00    +0.000 C 
ATOM      5  C   UNL     1       4.570   4.842  18.091  0.00  0.00    +0.000 C 
ATOM      6  C   UNL     1       4.544   4.512  19.550  0.00  0.00    +0.000 C 
ENDROOT
BRANCH   1   7
ATOM      7  C   UNL     1       1.891   4.564  19.921  0.00  0.00    +0.000 C 
BRANCH   7   8
ATOM      8  N   UNL     1       1.577   5.925  20.331  0.00  0.00    +0.000 N 
ATOM      9  C   UNL     1       1.768   7.003  19.490  0.00  0.00    +0.000 C 
ATOM     10  O   UNL     1       2.231   6.896  18.352  0.00  0.00    +0.000 OA
ATOM     11  H   UNL     1       0.999   6.045  21.152  0.00  0.00    +0.000 HD
BRANCH   9  12
ATOM     12  C   UNL     1       1.374   8.343  20.008  0.00  0.00    +0.000 A 
ATOM     13  C   UNL     1       1.210   8.576  21.376  0.00  0.00    +0.000 A 
ATOM     14  C   UNL     1       0.915   9.861  21.845  0.00  0.00    +0.000 A 
ATOM     15  C   UNL     1       0.793  10.920  20.946  0.00  0.00    +0.000 A 
ATOM     16 CL   UNL     1       0.478  12.503  21.536  0.00  0.00    +0.000 Cl
ATOM     17  C   UNL     1       0.950  10.699  19.577  0.00  0.00    +0.000 A 
ATOM     18  C   UNL     1       1.243   9.417  19.108  0.00  0.00    +0.000 A 
ENDBRANCH   9  12
ENDBRANCH   7   8
BRANCH   7  20
ATOM     19  C   UNL     1       1.393   2.734  21.660  0.00  0.00    +0.000 C 
ATOM     20  C   UNL     1       0.878   3.548  20.481  0.00  0.00    +0.000 C 
ENDBRANCH   7  20
ENDBRANCH   1   7
BRANCH   4  21
ATOM     21  O   UNL     1       4.771   3.197  16.259  0.00  0.00    +0.000 OA
BRANCH  21  22
ATOM     22  C   UNL     1       5.762   4.039  15.805  0.00  0.00    +0.000 A 
ATOM     23  C   UNL     1       6.551   4.820  16.641  0.00  0.00    +0.000 A 
ATOM     24  C   UNL     1       7.554   5.583  16.080  0.00  0.00    +0.000 A 
ATOM     25  N   UNL     1       7.841   5.596  14.764  0.00  0.00    +0.000 NA
ATOM     26  C   UNL     1       7.112   4.815  13.959  0.00  0.00    +0.000 A 
ATOM     27  C   UNL     1       7.479   4.747  12.622  0.00  0.00    +0.000 A 
ATOM     28  C   UNL     1       6.799   3.937  11.718  0.00  0.00    +0.000 A 
ATOM     29  C   UNL     1       5.697   3.219  12.151  0.00  0.00    +0.000 A 
ATOM     30  F   UNL     1       5.028   2.450  11.283  0.00  0.00    +0.000 F 
ATOM     31  C   UNL     1       5.295   3.266  13.481  0.00  0.00    +0.000 A 
ATOM     32  C   UNL     1       6.027   4.031  14.417  0.00  0.00    +0.000 A 
ENDBRANCH  21  22
ENDBRANCH   4  21
TORSDOF 6
ENDMDL
MODEL 9
REMARK VINA RESULT:      -7.5      1.993      2.393
REMARK  Name = 
REMARK  7 active torsions:
REMARK  status: ('A' for Active; 'I' for Inactive)
REMARK    1  A    between atoms: C_1  and  C_2
REMARK    2  A    between atoms: C_2  and  C_3
REMARK    3  A    between atoms: C_3  and  N_4
REMARK    4  A    between atoms: C_3  and  C_14
REMARK    5  A    between atoms: C_5  and  C_7
REMARK    6  A    between atoms: C_17  and  O_18
REMARK    7  A    between atoms: O_18  and  C_19
REMARK                            x       y       z     vdW  Elec       q    Type
REMARK                         _______ _______ _______ _____ _____    ______ ____
ROOT
ATOM      1  C   UNL     1       2.267   2.271  20.382  0.00  0.00    +0.000 C 
ATOM      2  C   UNL     1       2.570   3.312  21.450  0.00  0.00    +0.000 C 
ATOM      3  C   UNL     1       3.004   4.722  21.163  0.00  0.00    +0.000 C 
ATOM      4  C   UNL     1       1.878   5.397  20.351  0.00  0.00    +0.000 C 
ATOM      5  C   UNL     1       0.683   4.425  20.405  0.00  0.00    +0.000 C 
ATOM      6  C   UNL     1       1.168   3.130  20.976  0.00  0.00    +0.000 C 
ENDROOT
BRANCH   1   7
ATOM      7  C   UNL     1       2.796   2.401  18.977  0.00  0.00    +0.000 C 
BRANCH   7   8
ATOM      8  N   UNL     1       3.704   3.537  18.914  0.00  0.00    +0.000 N 
ATOM      9  C   UNL     1       4.609   3.691  17.883  0.00  0.00    +0.000 C 
ATOM     10  O   UNL     1       4.726   2.879  16.962  0.00  0.00    +0.000 OA
ATOM     11  H   UNL     1       3.504   4.330  19.508  0.00  0.00    +0.000 HD
BRANCH   9  12
ATOM     12  C   UNL     1       5.460   4.914  17.907  0.00  0.00    +0.000 A 
ATOM     13  C   UNL     1       6.657   4.954  18.625  0.00  0.00    +0.000 A 
ATOM     14  C   UNL     1       7.478   6.087  18.571  0.00  0.00    +0.000 A 
ATOM     15  C   UNL     1       7.106   7.179  17.788  0.00  0.00    +0.000 A 
ATOM     16 CL   UNL     1       8.144   8.546  17.690  0.00  0.00    +0.000 Cl
ATOM     17  C   UNL     1       5.910   7.152  17.069  0.00  0.00    +0.000 A 
ATOM     18  C   UNL     1       5.090   6.024  17.125  0.00  0.00    +0.000 A 
ENDBRANCH   9  12
ENDBRANCH   7   8
BRANCH   7  20
ATOM     19  C   UNL     1       1.505   3.915  17.345  0.00  0.00    +0.000 C 
ATOM     20  C   UNL     1       1.646   2.529  17.961  0.00  0.00    +0.000 C 
ENDBRANCH   7  20
ENDBRANCH   1   7
BRANCH   4  21
ATOM     21  O   UNL     1       1.577   6.657  20.969  0.00  0.00    +0.000 OA
BRANCH  21  22
ATOM     22  C   UNL     1       1.594   7.782  20.175  0.00  0.00    +0.000 A 
ATOM     23  C   UNL     1       2.141   7.814  18.897  0.00  0.00    +0.000 A 
ATOM     24  C   UNL     1       2.050   8.982  18.170  0.00  0.00    +0.000 A 
ATOM     25  N   UNL     1       1.432  10.095  18.609  0.00  0.00    +0.000 NA
ATOM     26  C   UNL     1       0.867  10.058  19.821  0.00  0.00    +0.000 A 
ATOM     27  C   UNL     1       0.138  11.167  20.226  0.00  0.00    +0.000 A 
ATOM     28  C   UNL     1      -0.510  11.205  21.458  0.00  0.00    +0.000 A 
ATOM     29  C   UNL     1      -0.383  10.130  22.321  0.00  0.00    +0.000 A 
ATOM     30  F   UNL     1      -0.990  10.167  23.513  0.00  0.00    +0.000 F 
ATOM     31  C   UNL     1       0.344   9.004  21.953  0.00  0.00    +0.000 A 
ATOM     32  C   UNL     1       0.943   8.933  20.675  0.00  0.00    +0.000 A 
ENDBRANCH  21  22
ENDBRANCH   4  21
TORSDOF 6
ENDMDL
