MODEL 1
REMARK VINA RESULT:      -7.9      0.000      0.000
REMARK  Name = 
REMARK  8 active torsions:
REMARK  status: ('A' for Active; 'I' for Inactive)
REMARK    1  A    between atoms: C_1  and  N_2
REMARK    2  A    between atoms: N_2  and  C_3
REMARK    3  A    between atoms: N_2  and  C_4
REMARK    4  A    between atoms: C_4  and  C_5
REMARK    5  A    between atoms: C_6  and  C_7
REMARK    6  A    between atoms: C_13  and  N_14
REMARK    7  A    between atoms: C_16  and  C_17
REMARK    8  A    between atoms: C_21  and  C_22
REMARK                            x       y       z     vdW  Elec       q    Type
REMARK                         _______ _______ _______ _____ _____    ______ ____
ROOT
ATOM      1  N   UNL     1       2.548   6.771  19.865  0.00  0.00    +0.000 N 
ATOM      2  N   UNL     1       3.757   6.826  19.268  0.00  0.00    +0.000 NA
ATOM      3  C   UNL     1       3.994   5.560  18.867  0.00  0.00    +0.000 A 
ATOM      4  C   UNL     1       2.959   4.678  19.315  0.00  0.00    +0.000 A 
ATOM      5  C   UNL     1       2.642   3.311  19.283  0.00  0.00    +0.000 A 
ATOM      6  N   UNL     1       3.435   2.314  18.732  0.00  0.00    +0.000 N 
ATOM      7  N   UNL     1       1.481   2.900  19.836  0.00  0.00    +0.000 NA
ATOM      8  C   UNL     1       0.676   3.816  20.407  0.00  0.00    +0.000 A 
ATOM      9  N   UNL     1       0.881   5.136  20.516  0.00  0.00    +0.000 NA
ATOM     10  C   UNL     1       2.041   5.503  19.946  0.00  0.00    +0.000 A 
ATOM     11  H   UNL     1       4.433   2.456  18.827  0.00  0.00    +0.000 HD
ATOM     12  H   UNL     1       3.101   1.398  19.013  0.00  0.00    +0.000 HD
ENDROOT
BRANCH   1  19
ATOM     13  C   UNL     1      -0.646  10.437  19.586  0.00  0.00    +0.000 C 
ATOM     14  O   UNL     1      -0.993  11.489  20.124  0.00  0.00    +0.000 OA
ATOM     15  N   UNL     1      -0.167   9.350  20.301  0.00  0.00    +0.000 N 
ATOM     16  C   UNL     1      -0.257   9.379  21.759  0.00  0.00    +0.000 C 
ATOM     17  C   UNL     1       1.128   9.282  22.390  0.00  0.00    +0.000 C 
ATOM     18  C   UNL     1       1.874   8.042  21.893  0.00  0.00    +0.000 C 
ATOM     19  C   UNL     1       1.914   7.990  20.354  0.00  0.00    +0.000 C 
ATOM     20  C   UNL     1       0.512   8.167  19.747  0.00  0.00    +0.000 C 
BRANCH  13  22
ATOM     21  C   UNL     1      -2.014  10.092  17.577  0.00  0.00    +0.000 C 
ATOM     22  C   UNL     1      -0.797  10.273  18.115  0.00  0.00    +0.000 C 
BRANCH  21  23
ATOM     23  C   UNL     1      -2.259   9.749  16.134  0.00  0.00    +0.000 C 
BRANCH  23  25
ATOM     24  C   UNL     1      -3.572  10.120  14.167  0.00  0.00    +0.000 C 
ATOM     25  N   UNL     1      -3.058  10.740  15.395  0.00  0.00    +0.000 NA
ATOM     26  C   UNL     1      -4.186  11.250  16.178  0.00  0.00    +0.000 C 
ENDBRANCH  23  25
ENDBRANCH  21  23
ENDBRANCH  13  22
ENDBRANCH   1  19
BRANCH   3  27
ATOM     27  C   UNL     1       5.190   5.259  18.071  0.00  0.00    +0.000 A 
ATOM     28  C   UNL     1       6.455   5.233  18.677  0.00  0.00    +0.000 A 
ATOM     29  C   UNL     1       7.604   4.981  17.923  0.00  0.00    +0.000 A 
ATOM     30  C   UNL     1       7.503   4.729  16.555  0.00  0.00    +0.000 A 
ATOM     31  C   UNL     1       6.253   4.741  15.925  0.00  0.00    +0.000 A 
ATOM     32  C   UNL     1       5.109   5.034  16.689  0.00  0.00    +0.000 A 
BRANCH  31  33
ATOM     33  C   UNL     1       6.110   4.433  14.454  0.00  0.00    +0.000 C 
ATOM     34  F   UNL     1       6.289   3.116  14.153  0.00  0.00    +0.000 F 
ATOM     35  F   UNL     1       4.874   4.755  13.981  0.00  0.00    +0.000 F 
ATOM     36  F   UNL     1       6.999   5.116  13.683  0.00  0.00    +0.000 F 
ENDBRANCH  31  33
ENDBRANCH   3  27
TORSDOF 6
ENDMDL
MODEL 2
REMARK VINA RESULT:      -7.6      2.636      3.431
REMARK  Name = 
REMARK  8 active torsions:
REMARK  status: ('A' for Active; 'I' for Inactive)
REMARK    1  A    between atoms: C_1  and  N_2
REMARK    2  A    between atoms: N_2  and  C_3
REMARK    3  A    between atoms: N_2  and  C_4
REMARK    4  A    between atoms: C_4  and  C_5
REMARK    5  A    between atoms: C_6  and  C_7
REMARK    6  A    between atoms: C_13  and  N_14
REMARK    7  A    between atoms: C_16  and  C_17
REMARK    8  A    between atoms: C_21  and  C_22
REMARK                            x       y       z     vdW  Elec       q    Type
REMARK                         _______ _______ _______ _____ _____    ______ ____
ROOT
ATOM      1  N   UNL     1       2.510   6.827  19.755  0.00  0.00    +0.000 N 
ATOM      2  N   UNL     1       3.624   7.066  19.031  0.00  0.00    +0.000 NA
ATOM      3  C   UNL     1       3.997   5.853  18.574  0.00  0.00    +0.000 A 
ATOM      4  C   UNL     1       3.160   4.823  19.109  0.00  0.00    +0.000 A 
ATOM      5  C   UNL     1       3.044   3.424  19.077  0.00  0.00    +0.000 A 
ATOM      6  N   UNL     1       3.909   2.562  18.417  0.00  0.00    +0.000 N 
ATOM      7  N   UNL     1       2.025   2.841  19.742  0.00  0.00    +0.000 NA
ATOM      8  C   UNL     1       1.164   3.622  20.421  0.00  0.00    +0.000 A 
ATOM      9  N   UNL     1       1.184   4.957  20.540  0.00  0.00    +0.000 NA
ATOM     10  C   UNL     1       2.207   5.498  19.857  0.00  0.00    +0.000 A 
ATOM     11  H   UNL     1       4.879   2.849  18.407  0.00  0.00    +0.000 HD
ATOM     12  H   UNL     1       3.746   1.604  18.709  0.00  0.00    +0.000 HD
ENDROOT
BRANCH   1  19
ATOM     13  C   UNL     1       0.816  11.392  19.822  0.00  0.00    +0.000 C 
ATOM     14  O   UNL     1       0.205  12.210  20.511  0.00  0.00    +0.000 OA
ATOM     15  N   UNL     1       0.532  10.035  19.840  0.00  0.00    +0.000 N 
ATOM     16  C   UNL     1      -0.657   9.580  20.556  0.00  0.00    +0.000 C 
ATOM     17  C   UNL     1      -0.281   8.618  21.677  0.00  0.00    +0.000 C 
ATOM     18  C   UNL     1       0.542   7.444  21.143  0.00  0.00    +0.000 C 
ATOM     19  C   UNL     1       1.763   7.933  20.341  0.00  0.00    +0.000 C 
ATOM     20  C   UNL     1       1.359   8.959  19.268  0.00  0.00    +0.000 C 
BRANCH  13  22
ATOM     21  C   UNL     1       2.245  13.145  18.867  0.00  0.00    +0.000 C 
ATOM     22  C   UNL     1       1.861  11.858  18.871  0.00  0.00    +0.000 C 
BRANCH  21  23
ATOM     23  C   UNL     1       3.163  13.751  17.842  0.00  0.00    +0.000 C 
BRANCH  23  25
ATOM     24  C   UNL     1       5.339  14.741  17.961  0.00  0.00    +0.000 C 
ATOM     25  N   UNL     1       3.925  14.918  18.314  0.00  0.00    +0.000 NA
ATOM     26  C   UNL     1       3.445  16.175  17.734  0.00  0.00    +0.000 C 
ENDBRANCH  23  25
ENDBRANCH  21  23
ENDBRANCH  13  22
ENDBRANCH   1  19
BRANCH   3  27
ATOM     27  C   UNL     1       5.129   5.741  17.645  0.00  0.00    +0.000 A 
ATOM     28  C   UNL     1       6.363   6.326  17.959  0.00  0.00    +0.000 A 
ATOM     29  C   UNL     1       7.437   6.254  17.068  0.00  0.00    +0.000 A 
ATOM     30  C   UNL     1       7.298   5.576  15.858  0.00  0.00    +0.000 A 
ATOM     31  C   UNL     1       6.079   4.976  15.519  0.00  0.00    +0.000 A 
ATOM     32  C   UNL     1       4.996   5.090  16.410  0.00  0.00    +0.000 A 
BRANCH  31  33
ATOM     33  C   UNL     1       5.911   4.204  14.234  0.00  0.00    +0.000 C 
ATOM     34  F   UNL     1       6.783   4.577  13.255  0.00  0.00    +0.000 F 
ATOM     35  F   UNL     1       6.105   2.867  14.410  0.00  0.00    +0.000 F 
ATOM     36  F   UNL     1       4.669   4.337  13.697  0.00  0.00    +0.000 F 
ENDBRANCH  31  33
ENDBRANCH   3  27
TORSDOF 6
ENDMDL
MODEL 3
REMARK VINA RESULT:      -7.2      4.954      8.317
REMARK  Name = 
REMARK  8 active torsions:
REMARK  status: ('A' for Active; 'I' for Inactive)
REMARK    1  A    between atoms: C_1  and  N_2
REMARK    2  A    between atoms: N_2  and  C_3
REMARK    3  A    between atoms: N_2  and  C_4
REMARK    4  A    between atoms: C_4  and  C_5
REMARK    5  A    between atoms: C_6  and  C_7
REMARK    6  A    between atoms: C_13  and  N_14
REMARK    7  A    between atoms: C_16  and  C_17
REMARK    8  A    between atoms: C_21  and  C_22
REMARK                            x       y       z     vdW  Elec       q    Type
REMARK                         _______ _______ _______ _____ _____    ______ ____
ROOT
ATOM      1  N   UNL     1       4.232   4.826  17.164  0.00  0.00    +0.000 N 
ATOM      2  N   UNL     1       3.790   6.100  17.191  0.00  0.00    +0.000 NA
ATOM      3  C   UNL     1       2.889   6.124  18.194  0.00  0.00    +0.000 A 
ATOM      4  C   UNL     1       2.690   4.815  18.736  0.00  0.00    +0.000 A 
ATOM      5  C   UNL     1       1.902   4.176  19.707  0.00  0.00    +0.000 A 
ATOM      6  N   UNL     1       0.926   4.789  20.481  0.00  0.00    +0.000 N 
ATOM      7  N   UNL     1       2.076   2.854  19.918  0.00  0.00    +0.000 NA
ATOM      8  C   UNL     1       2.992   2.196  19.182  0.00  0.00    +0.000 A 
ATOM      9  N   UNL     1       3.783   2.692  18.220  0.00  0.00    +0.000 NA
ATOM     10  C   UNL     1       3.584   4.009  18.049  0.00  0.00    +0.000 A 
ATOM     11  H   UNL     1       0.411   5.527  20.020  0.00  0.00    +0.000 HD
ATOM     12  H   UNL     1       0.356   4.093  20.951  0.00  0.00    +0.000 HD
ENDROOT
BRANCH   1  19
ATOM     13  C   UNL     1       5.987   3.591  12.791  0.00  0.00    +0.000 C 
ATOM     14  O   UNL     1       6.998   3.202  12.206  0.00  0.00    +0.000 OA
ATOM     15  N   UNL     1       6.032   4.459  13.871  0.00  0.00    +0.000 N 
ATOM     16  C   UNL     1       7.308   5.087  14.210  0.00  0.00    +0.000 C 
ATOM     17  C   UNL     1       7.740   4.711  15.622  0.00  0.00    +0.000 C 
ATOM     18  C   UNL     1       6.652   5.055  16.641  0.00  0.00    +0.000 C 
ATOM     19  C   UNL     1       5.298   4.437  16.247  0.00  0.00    +0.000 C 
ATOM     20  C   UNL     1       4.926   4.772  14.792  0.00  0.00    +0.000 C 
BRANCH  13  22
ATOM     21  C   UNL     1       4.221   3.571  11.085  0.00  0.00    +0.000 C 
ATOM     22  C   UNL     1       4.643   3.183  12.301  0.00  0.00    +0.000 C 
BRANCH  21  23
ATOM     23  C   UNL     1       2.827   3.357  10.565  0.00  0.00    +0.000 C 
BRANCH  23  25
ATOM     24  C   UNL     1       1.746   5.068   9.286  0.00  0.00    +0.000 C 
ATOM     25  N   UNL     1       2.593   3.870   9.207  0.00  0.00    +0.000 NA
ATOM     26  C   UNL     1       3.836   4.214   8.513  0.00  0.00    +0.000 C 
ENDBRANCH  23  25
ENDBRANCH  21  23
ENDBRANCH  13  22
ENDBRANCH   1  19
BRANCH   3  27
ATOM     27  C   UNL     1       2.272   7.397  18.590  0.00  0.00    +0.000 A 
ATOM     28  C   UNL     1       2.154   8.444  17.665  0.00  0.00    +0.000 A 
ATOM     29  C   UNL     1       1.599   9.670  18.040  0.00  0.00    +0.000 A 
ATOM     30  C   UNL     1       1.133   9.861  19.340  0.00  0.00    +0.000 A 
ATOM     31  C   UNL     1       1.231   8.831  20.283  0.00  0.00    +0.000 A 
ATOM     32  C   UNL     1       1.827   7.615  19.902  0.00  0.00    +0.000 A 
BRANCH  31  33
ATOM     33  C   UNL     1       0.700   8.995  21.686  0.00  0.00    +0.000 C 
ATOM     34  F   UNL     1      -0.392   8.223  21.949  0.00  0.00    +0.000 F 
ATOM     35  F   UNL     1       1.625   8.658  22.628  0.00  0.00    +0.000 F 
ATOM     36  F   UNL     1       0.328  10.274  21.963  0.00  0.00    +0.000 F 
ENDBRANCH  31  33
ENDBRANCH   3  27
TORSDOF 6
ENDMDL
MODEL 4
REMARK VINA RESULT:      -7.1      4.565      7.969
REMARK  Name = 
REMARK  8 active torsions:
REMARK  status: ('A' for Active; 'I' for Inactive)
REMARK    1  A    between atoms: C_1  and  N_2
REMARK    2  A    between atoms: N_2  and  C_3
REMARK    3  A    between atoms: N_2  and  C_4
REMARK    4  A    between atoms: C_4  and  C_5
REMARK    5  A    between atoms: C_6  and  C_7
REMARK    6  A    between atoms: C_13  and  N_14
REMARK    7  A    between atoms: C_16  and  C_17
REMARK    8  A    between atoms: C_21  and  C_22
REMARK                            x       y       z     vdW  Elec       q    Type
REMARK                         _______ _______ _______ _____ _____    ______ ____
ROOT
ATOM      1  N   UNL     1       4.011   4.386  17.332  0.00  0.00    +0.000 N 
ATOM      2  N   UNL     1       3.680   5.655  17.648  0.00  0.00    +0.000 NA
ATOM      3  C   UNL     1       2.731   5.530  18.598  0.00  0.00    +0.000 A 
ATOM      4  C   UNL     1       2.389   4.155  18.805  0.00  0.00    +0.000 A 
ATOM      5  C   UNL     1       1.497   3.385  19.568  0.00  0.00    +0.000 A 
ATOM      6  N   UNL     1       0.537   3.891  20.433  0.00  0.00    +0.000 N 
ATOM      7  N   UNL     1       1.545   2.041  19.463  0.00  0.00    +0.000 NA
ATOM      8  C   UNL     1       2.440   1.489  18.622  0.00  0.00    +0.000 A 
ATOM      9  N   UNL     1       3.323   2.117  17.833  0.00  0.00    +0.000 NA
ATOM     10  C   UNL     1       3.248   3.451  17.974  0.00  0.00    +0.000 A 
ATOM     11  H   UNL     1       0.113   4.763  20.145  0.00  0.00    +0.000 HD
ATOM     12  H   UNL     1      -0.116   3.163  20.704  0.00  0.00    +0.000 HD
ENDROOT
BRANCH   1  19
ATOM     13  C   UNL     1       5.811   3.694  12.859  0.00  0.00    +0.000 C 
ATOM     14  O   UNL     1       6.832   3.390  12.241  0.00  0.00    +0.000 OA
ATOM     15  N   UNL     1       5.837   4.431  14.033  0.00  0.00    +0.000 N 
ATOM     16  C   UNL     1       7.100   5.033  14.452  0.00  0.00    +0.000 C 
ATOM     17  C   UNL     1       7.530   4.503  15.815  0.00  0.00    +0.000 C 
ATOM     18  C   UNL     1       6.430   4.710  16.858  0.00  0.00    +0.000 C 
ATOM     19  C   UNL     1       5.088   4.122  16.384  0.00  0.00    +0.000 C 
ATOM     20  C   UNL     1       4.720   4.618  14.976  0.00  0.00    +0.000 C 
BRANCH  13  22
ATOM     21  C   UNL     1       4.253   3.367  10.990  0.00  0.00    +0.000 C 
ATOM     22  C   UNL     1       4.477   3.325  12.315  0.00  0.00    +0.000 C 
BRANCH  21  23
ATOM     23  C   UNL     1       2.904   3.179  10.354  0.00  0.00    +0.000 C 
BRANCH  23  25
ATOM     24  C   UNL     1       1.632   4.957   9.378  0.00  0.00    +0.000 C 
ATOM     25  N   UNL     1       2.688   3.967   9.130  0.00  0.00    +0.000 NA
ATOM     26  C   UNL     1       3.898   4.664   8.689  0.00  0.00    +0.000 C 
ENDBRANCH  23  25
ENDBRANCH  21  23
ENDBRANCH  13  22
ENDBRANCH   1  19
BRANCH   3  27
ATOM     27  C   UNL     1       2.204   6.727  19.266  0.00  0.00    +0.000 A 
ATOM     28  C   UNL     1       1.885   6.694  20.630  0.00  0.00    +0.000 A 
ATOM     29  C   UNL     1       1.352   7.817  21.268  0.00  0.00    +0.000 A 
ATOM     30  C   UNL     1       1.151   8.998  20.556  0.00  0.00    +0.000 A 
ATOM     31  C   UNL     1       1.467   9.063  19.193  0.00  0.00    +0.000 A 
ATOM     32  C   UNL     1       1.967   7.913  18.556  0.00  0.00    +0.000 A 
BRANCH  31  33
ATOM     33  C   UNL     1       1.296  10.339  18.405  0.00  0.00    +0.000 C 
ATOM     34  F   UNL     1       2.247  10.519  17.446  0.00  0.00    +0.000 F 
ATOM     35  F   UNL     1       0.101  10.384  17.753  0.00  0.00    +0.000 F 
ATOM     36  F   UNL     1       1.340  11.452  19.187  0.00  0.00    +0.000 F 
ENDBRANCH  31  33
ENDBRANCH   3  27
TORSDOF 6
ENDMDL
MODEL 5
REMARK VINA RESULT:      -7.0      4.910      8.925
REMARK  Name = 
REMARK  8 active torsions:
REMARK  status: ('A' for Active; 'I' for Inactive)
REMARK    1  A    between atoms: C_1  and  N_2
REMARK    2  A    between atoms: N_2  and  C_3
REMARK    3  A    between atoms: N_2  and  C_4
REMARK    4  A    between atoms: C_4  and  C_5
REMARK    5  A    between atoms: C_6  and  C_7
REMARK    6  A    between atoms: C_13  and  N_14
REMARK    7  A    between atoms: C_16  and  C_17
REMARK    8  A    between atoms: C_21  and  C_22
REMARK                            x       y       z     vdW  Elec       q    Type
REMARK                         _______ _______ _______ _____ _____    ______ ____
ROOT
ATOM      1  N   UNL     1       1.833   6.421  19.979  0.00  0.00    +0.000 N 
ATOM      2  N   UNL     1       1.186   7.054  20.980  0.00  0.00    +0.000 NA
ATOM      3  C   UNL     1       1.081   8.332  20.560  0.00  0.00    +0.000 A 
ATOM      4  C   UNL     1       1.767   8.522  19.318  0.00  0.00    +0.000 A 
ATOM      5  C   UNL     1       2.068   9.557  18.419  0.00  0.00    +0.000 A 
ATOM      6  N   UNL     1       1.730  10.892  18.588  0.00  0.00    +0.000 N 
ATOM      7  N   UNL     1       2.752   9.261  17.294  0.00  0.00    +0.000 NA
ATOM      8  C   UNL     1       3.130   7.987  17.081  0.00  0.00    +0.000 A 
ATOM      9  N   UNL     1       2.918   6.924  17.872  0.00  0.00    +0.000 NA
ATOM     10  C   UNL     1       2.228   7.260  18.974  0.00  0.00    +0.000 A 
ATOM     11  H   UNL     1       1.745  11.223  19.544  0.00  0.00    +0.000 HD
ATOM     12  H   UNL     1       2.230  11.473  17.923  0.00  0.00    +0.000 HD
ENDROOT
BRANCH   1  19
ATOM     13  C   UNL     1       3.746   2.231  18.397  0.00  0.00    +0.000 C 
ATOM     14  O   UNL     1       3.743   1.013  18.578  0.00  0.00    +0.000 OA
ATOM     15  N   UNL     1       3.613   3.143  19.433  0.00  0.00    +0.000 N 
ATOM     16  C   UNL     1       3.664   2.651  20.808  0.00  0.00    +0.000 C 
ATOM     17  C   UNL     1       2.366   2.963  21.544  0.00  0.00    +0.000 C 
ATOM     18  C   UNL     1       2.047   4.458  21.489  0.00  0.00    +0.000 C 
ATOM     19  C   UNL     1       2.052   4.981  20.041  0.00  0.00    +0.000 C 
ATOM     20  C   UNL     1       3.342   4.585  19.302  0.00  0.00    +0.000 C 
BRANCH  13  22
ATOM     21  C   UNL     1       4.905   3.715  16.822  0.00  0.00    +0.000 C 
ATOM     22  C   UNL     1       3.965   2.777  17.031  0.00  0.00    +0.000 C 
BRANCH  21  23
ATOM     23  C   UNL     1       5.092   4.450  15.524  0.00  0.00    +0.000 C 
BRANCH  23  25
ATOM     24  C   UNL     1       7.257   4.734  16.507  0.00  0.00    +0.000 C 
ATOM     25  N   UNL     1       6.400   5.107  15.374  0.00  0.00    +0.000 NA
ATOM     26  C   UNL     1       7.075   4.737  14.127  0.00  0.00    +0.000 C 
ENDBRANCH  23  25
ENDBRANCH  21  23
ENDBRANCH  13  22
ENDBRANCH   1  19
BRANCH   3  27
ATOM     27  C   UNL     1       0.324   9.303  21.361  0.00  0.00    +0.000 A 
ATOM     28  C   UNL     1       0.248   9.164  22.753  0.00  0.00    +0.000 A 
ATOM     29  C   UNL     1      -0.497  10.063  23.522  0.00  0.00    +0.000 A 
ATOM     30  C   UNL     1      -1.158  11.127  22.911  0.00  0.00    +0.000 A 
ATOM     31  C   UNL     1      -1.094  11.295  21.522  0.00  0.00    +0.000 A 
ATOM     32  C   UNL     1      -0.372  10.361  20.758  0.00  0.00    +0.000 A 
BRANCH  31  33
ATOM     33  C   UNL     1      -1.767  12.459  20.838  0.00  0.00    +0.000 C 
ATOM     34  F   UNL     1      -3.035  12.187  20.419  0.00  0.00    +0.000 F 
ATOM     35  F   UNL     1      -1.874  13.543  21.656  0.00  0.00    +0.000 F 
ATOM     36  F   UNL     1      -1.093  12.884  19.735  0.00  0.00    +0.000 F 
ENDBRANCH  31  33
ENDBRANCH   3  27
TORSDOF 6
ENDMDL
MODEL 6
REMARK VINA RESULT:      -6.9      5.430      8.010
REMARK  Name = 
REMARK  8 active torsions:
REMARK  status: ('A' for Active; 'I' for Inactive)
REMARK    1  A    between atoms: C_1  and  N_2
REMARK    2  A    between atoms: N_2  and  C_3
REMARK    3  A    between atoms: N_2  and  C_4
REMARK    4  A    between atoms: C_4  and  C_5
REMARK    5  A    between atoms: C_6  and  C_7
REMARK    6  A    between atoms: C_13  and  N_14
REMARK    7  A    between atoms: C_16  and  C_17
REMARK    8  A    between atoms: C_21  and  C_22
REMARK                            x       y       z     vdW  Elec       q    Type
REMARK                         _______ _______ _______ _____ _____    ______ ____
ROOT
ATOM      1  N   UNL     1       0.751  12.726  20.493  0.00  0.00    +0.000 N 
ATOM      2  N   UNL     1       1.437  11.864  19.713  0.00  0.00    +0.000 NA
ATOM      3  C   UNL     1       1.049  10.644  20.136  0.00  0.00    +0.000 A 
ATOM      4  C   UNL     1       0.183  10.745  21.271  0.00  0.00    +0.000 A 
ATOM      5  C   UNL     1      -0.493   9.905  22.169  0.00  0.00    +0.000 A 
ATOM      6  N   UNL     1      -0.430   8.518  22.175  0.00  0.00    +0.000 N 
ATOM      7  N   UNL     1      -1.268  10.462  23.123  0.00  0.00    +0.000 NA
ATOM      8  C   UNL     1      -1.354  11.804  23.185  0.00  0.00    +0.000 A 
ATOM      9  N   UNL     1      -0.743  12.704  22.400  0.00  0.00    +0.000 NA
ATOM     10  C   UNL     1       0.009  12.108  21.461  0.00  0.00    +0.000 A 
ATOM     11  H   UNL     1       0.465   8.127  21.912  0.00  0.00    +0.000 HD
ATOM     12  H   UNL     1      -0.826   8.148  23.033  0.00  0.00    +0.000 HD
ENDROOT
BRANCH   1  19
ATOM     13  C   UNL     1       3.213  16.866  19.764  0.00  0.00    +0.000 C 
ATOM     14  O   UNL     1       3.085  18.085  19.654  0.00  0.00    +0.000 OA
ATOM     15  N   UNL     1       2.265  15.966  19.299  0.00  0.00    +0.000 N 
ATOM     16  C   UNL     1       1.166  16.471  18.479  0.00  0.00    +0.000 C 
ATOM     17  C   UNL     1      -0.178  16.190  19.140  0.00  0.00    +0.000 C 
ATOM     18  C   UNL     1      -0.340  14.700  19.448  0.00  0.00    +0.000 C 
ATOM     19  C   UNL     1       0.850  14.163  20.264  0.00  0.00    +0.000 C 
ATOM     20  C   UNL     1       2.194  14.529  19.610  0.00  0.00    +0.000 C 
BRANCH  13  22
ATOM     21  C   UNL     1       5.554  16.145  19.599  0.00  0.00    +0.000 C 
ATOM     22  C   UNL     1       4.455  16.301  20.357  0.00  0.00    +0.000 C 
BRANCH  21  23
ATOM     23  C   UNL     1       6.799  15.434  20.052  0.00  0.00    +0.000 C 
BRANCH  23  25
ATOM     24  C   UNL     1       6.630  14.647  17.797  0.00  0.00    +0.000 C 
ATOM     25  N   UNL     1       7.394  14.539  19.047  0.00  0.00    +0.000 NA
ATOM     26  C   UNL     1       8.798  14.856  18.773  0.00  0.00    +0.000 C 
ENDBRANCH  23  25
ENDBRANCH  21  23
ENDBRANCH  13  22
ENDBRANCH   1  19
BRANCH   3  27
ATOM     27  C   UNL     1       1.518   9.444  19.430  0.00  0.00    +0.000 A 
ATOM     28  C   UNL     1       1.827   9.504  18.064  0.00  0.00    +0.000 A 
ATOM     29  C   UNL     1       2.242   8.361  17.374  0.00  0.00    +0.000 A 
ATOM     30  C   UNL     1       2.374   7.147  18.046  0.00  0.00    +0.000 A 
ATOM     31  C   UNL     1       2.078   7.059  19.412  0.00  0.00    +0.000 A 
ATOM     32  C   UNL     1       1.626   8.209  20.084  0.00  0.00    +0.000 A 
BRANCH  31  33
ATOM     33  C   UNL     1       2.250   5.767  20.173  0.00  0.00    +0.000 C 
ATOM     34  F   UNL     1       3.540   5.332  20.226  0.00  0.00    +0.000 F 
ATOM     35  F   UNL     1       1.844   5.878  21.469  0.00  0.00    +0.000 F 
ATOM     36  F   UNL     1       1.532   4.742  19.640  0.00  0.00    +0.000 F 
ENDBRANCH  31  33
ENDBRANCH   3  27
TORSDOF 6
ENDMDL
MODEL 7
REMARK VINA RESULT:      -6.9      4.884      7.323
REMARK  Name = 
REMARK  8 active torsions:
REMARK  status: ('A' for Active; 'I' for Inactive)
REMARK    1  A    between atoms: C_1  and  N_2
REMARK    2  A    between atoms: N_2  and  C_3
REMARK    3  A    between atoms: N_2  and  C_4
REMARK    4  A    between atoms: C_4  and  C_5
REMARK    5  A    between atoms: C_6  and  C_7
REMARK    6  A    between atoms: C_13  and  N_14
REMARK    7  A    between atoms: C_16  and  C_17
REMARK    8  A    between atoms: C_21  and  C_22
REMARK                            x       y       z     vdW  Elec       q    Type
REMARK                         _______ _______ _______ _____ _____    ______ ____
ROOT
ATOM      1  N   UNL     1      -0.157  11.946  20.882  0.00  0.00    +0.000 N 
ATOM      2  N   UNL     1       0.798  11.002  20.742  0.00  0.00    +0.000 NA
ATOM      3  C   UNL     1       0.441  10.323  19.633  0.00  0.00    +0.000 A 
ATOM      4  C   UNL     1      -0.816  10.784  19.130  0.00  0.00    +0.000 A 
ATOM      5  C   UNL     1      -1.721  10.488  18.098  0.00  0.00    +0.000 A 
ATOM      6  N   UNL     1      -1.584   9.456  17.180  0.00  0.00    +0.000 N 
ATOM      7  N   UNL     1      -2.831  11.245  17.970  0.00  0.00    +0.000 NA
ATOM      8  C   UNL     1      -3.035  12.248  18.844  0.00  0.00    +0.000 A 
ATOM      9  N   UNL     1      -2.258  12.611  19.875  0.00  0.00    +0.000 NA
ATOM     10  C   UNL     1      -1.162  11.840  19.960  0.00  0.00    +0.000 A 
ATOM     11  H   UNL     1      -1.150   8.615  17.539  0.00  0.00    +0.000 HD
ATOM     12  H   UNL     1      -2.451   9.312  16.674  0.00  0.00    +0.000 HD
ENDROOT
BRANCH   1  19
ATOM     13  C   UNL     1       1.477  16.109  22.810  0.00  0.00    +0.000 C 
ATOM     14  O   UNL     1       1.491  16.783  23.840  0.00  0.00    +0.000 OA
ATOM     15  N   UNL     1       0.388  15.340  22.430  0.00  0.00    +0.000 N 
ATOM     16  C   UNL     1      -0.860  15.480  23.177  0.00  0.00    +0.000 C 
ATOM     17  C   UNL     1      -1.264  14.154  23.813  0.00  0.00    +0.000 C 
ATOM     18  C   UNL     1      -1.355  13.045  22.763  0.00  0.00    +0.000 C 
ATOM     19  C   UNL     1      -0.056  12.942  21.942  0.00  0.00    +0.000 C 
ATOM     20  C   UNL     1       0.366  14.310  21.378  0.00  0.00    +0.000 C 
BRANCH  13  22
ATOM     21  C   UNL     1       2.604  16.950  20.797  0.00  0.00    +0.000 C 
ATOM     22  C   UNL     1       2.637  16.154  21.879  0.00  0.00    +0.000 C 
BRANCH  21  23
ATOM     23  C   UNL     1       3.643  16.945  19.711  0.00  0.00    +0.000 C 
BRANCH  23  25
ATOM     24  C   UNL     1       3.286  15.803  17.638  0.00  0.00    +0.000 C 
ATOM     25  N   UNL     1       3.106  17.076  18.347  0.00  0.00    +0.000 NA
ATOM     26  C   UNL     1       1.685  17.431  18.334  0.00  0.00    +0.000 C 
ENDBRANCH  23  25
ENDBRANCH  21  23
ENDBRANCH  13  22
ENDBRANCH   1  19
BRANCH   3  27
ATOM     27  C   UNL     1       1.323   9.273  19.105  0.00  0.00    +0.000 A 
ATOM     28  C   UNL     1       2.038   9.481  17.918  0.00  0.00    +0.000 A 
ATOM     29  C   UNL     1       2.855   8.478  17.389  0.00  0.00    +0.000 A 
ATOM     30  C   UNL     1       2.984   7.258  18.052  0.00  0.00    +0.000 A 
ATOM     31  C   UNL     1       2.287   7.024  19.244  0.00  0.00    +0.000 A 
ATOM     32  C   UNL     1       1.440   8.030  19.744  0.00  0.00    +0.000 A 
BRANCH  31  33
ATOM     33  C   UNL     1       2.439   5.729  20.003  0.00  0.00    +0.000 C 
ATOM     34  F   UNL     1       1.842   4.666  19.394  0.00  0.00    +0.000 F 
ATOM     35  F   UNL     1       3.745   5.378  20.163  0.00  0.00    +0.000 F 
ATOM     36  F   UNL     1       1.908   5.787  21.255  0.00  0.00    +0.000 F 
ENDBRANCH  31  33
ENDBRANCH   3  27
TORSDOF 6
ENDMDL
MODEL 8
REMARK VINA RESULT:      -6.9      6.543      9.765
REMARK  Name = 
REMARK  8 active torsions:
REMARK  status: ('A' for Active; 'I' for Inactive)
REMARK    1  A    between atoms: C_1  and  N_2
REMARK    2  A    between atoms: N_2  and  C_3
REMARK    3  A    between atoms: N_2  and  C_4
REMARK    4  A    between atoms: C_4  and  C_5
REMARK    5  A    between atoms: C_6  and  C_7
REMARK    6  A    between atoms: C_13  and  N_14
REMARK    7  A    between atoms: C_16  and  C_17
REMARK    8  A    between atoms: C_21  and  C_22
REMARK                            x       y       z     vdW  Elec       q    Type
REMARK                         _______ _______ _______ _____ _____    ______ ____
ROOT
ATOM      1  N   UNL     1       2.623  13.946  20.083  0.00  0.00    +0.000 N 
ATOM      2  N   UNL     1       3.199  13.516  21.226  0.00  0.00    +0.000 NA
ATOM      3  C   UNL     1       4.161  14.427  21.482  0.00  0.00    +0.000 A 
ATOM      4  C   UNL     1       4.255  15.385  20.423  0.00  0.00    +0.000 A 
ATOM      5  C   UNL     1       5.033  16.498  20.064  0.00  0.00    +0.000 A 
ATOM      6  N   UNL     1       6.116  16.986  20.781  0.00  0.00    +0.000 N 
ATOM      7  N   UNL     1       4.733  17.160  18.927  0.00  0.00    +0.000 NA
ATOM      8  C   UNL     1       3.706  16.722  18.174  0.00  0.00    +0.000 A 
ATOM      9  N   UNL     1       2.910  15.668  18.403  0.00  0.00    +0.000 NA
ATOM     10  C   UNL     1       3.237  15.043  19.547  0.00  0.00    +0.000 A 
ATOM     11  H   UNL     1       6.676  16.284  21.247  0.00  0.00    +0.000 HD
ATOM     12  H   UNL     1       6.639  17.655  20.224  0.00  0.00    +0.000 HD
ENDROOT
BRANCH   1  19
ATOM     13  C   UNL     1       0.362  10.071  18.187  0.00  0.00    +0.000 C 
ATOM     14  O   UNL     1      -0.699   9.691  17.689  0.00  0.00    +0.000 OA
ATOM     15  N   UNL     1       0.419  11.017  19.199  0.00  0.00    +0.000 N 
ATOM     16  C   UNL     1      -0.828  11.439  19.832  0.00  0.00    +0.000 C 
ATOM     17  C   UNL     1      -1.050  12.936  19.650  0.00  0.00    +0.000 C 
ATOM     18  C   UNL     1       0.147  13.738  20.167  0.00  0.00    +0.000 C 
ATOM     19  C   UNL     1       1.464  13.248  19.537  0.00  0.00    +0.000 C 
ATOM     20  C   UNL     1       1.622  11.724  19.671  0.00  0.00    +0.000 C 
BRANCH  13  22
ATOM     21  C   UNL     1       1.916   8.176  18.042  0.00  0.00    +0.000 C 
ATOM     22  C   UNL     1       1.646   9.460  17.751  0.00  0.00    +0.000 C 
BRANCH  21  23
ATOM     23  C   UNL     1       3.244   7.515  17.798  0.00  0.00    +0.000 C 
BRANCH  23  25
ATOM     24  C   UNL     1       2.317   5.337  18.154  0.00  0.00    +0.000 C 
ATOM     25  N   UNL     1       3.429   6.233  18.496  0.00  0.00    +0.000 NA
ATOM     26  C   UNL     1       4.692   5.579  18.146  0.00  0.00    +0.000 C 
ENDBRANCH  23  25
ENDBRANCH  21  23
ENDBRANCH  13  22
ENDBRANCH   1  19
BRANCH   3  27
ATOM     27  C   UNL     1       4.935  14.339  22.727  0.00  0.00    +0.000 A 
ATOM     28  C   UNL     1       4.886  15.380  23.665  0.00  0.00    +0.000 A 
ATOM     29  C   UNL     1       5.644  15.323  24.837  0.00  0.00    +0.000 A 
ATOM     30  C   UNL     1       6.446  14.213  25.100  0.00  0.00    +0.000 A 
ATOM     31  C   UNL     1       6.510  13.155  24.185  0.00  0.00    +0.000 A 
ATOM     32  C   UNL     1       5.770  13.244  22.991  0.00  0.00    +0.000 A 
BRANCH  31  33
ATOM     33  C   UNL     1       7.338  11.924  24.460  0.00  0.00    +0.000 C 
ATOM     34  F   UNL     1       8.407  12.157  25.273  0.00  0.00    +0.000 F 
ATOM     35  F   UNL     1       6.615  10.946  25.072  0.00  0.00    +0.000 F 
ATOM     36  F   UNL     1       7.845  11.366  23.328  0.00  0.00    +0.000 F 
ENDBRANCH  31  33
ENDBRANCH   3  27
TORSDOF 6
ENDMDL
MODEL 9
REMARK VINA RESULT:      -6.8      7.492     11.050
REMARK  Name = 
REMARK  8 active torsions:
REMARK  status: ('A' for Active; 'I' for Inactive)
REMARK    1  A    between atoms: C_1  and  N_2
REMARK    2  A    between atoms: N_2  and  C_3
REMARK    3  A    between atoms: N_2  and  C_4
REMARK    4  A    between atoms: C_4  and  C_5
REMARK    5  A    between atoms: C_6  and  C_7
REMARK    6  A    between atoms: C_13  and  N_14
REMARK    7  A    between atoms: C_16  and  C_17
REMARK    8  A    between atoms: C_21  and  C_22
REMARK                            x       y       z     vdW  Elec       q    Type
REMARK                         _______ _______ _______ _____ _____    ______ ____
ROOT
ATOM      1  N   UNL     1       3.557  14.694  20.729  0.00  0.00    +0.000 N 
ATOM      2  N   UNL     1       3.078  13.454  20.964  0.00  0.00    +0.000 NA
ATOM      3  C   UNL     1       1.884  13.428  20.338  0.00  0.00    +0.000 A 
ATOM      4  C   UNL     1       1.565  14.710  19.788  0.00  0.00    +0.000 A 
ATOM      5  C   UNL     1       0.516  15.338  19.097  0.00  0.00    +0.000 A 
ATOM      6  N   UNL     1      -0.693  14.746  18.761  0.00  0.00    +0.000 N 
ATOM      7  N   UNL     1       0.663  16.627  18.727  0.00  0.00    +0.000 NA
ATOM      8  C   UNL     1       1.805  17.266  19.043  0.00  0.00    +0.000 A 
ATOM      9  N   UNL     1       2.860  16.780  19.712  0.00  0.00    +0.000 NA
ATOM     10  C   UNL     1       2.677  15.494  20.054  0.00  0.00    +0.000 A 
ATOM     11  H   UNL     1      -1.047  14.077  19.433  0.00  0.00    +0.000 HD
ATOM     12  H   UNL     1      -1.361  15.447  18.459  0.00  0.00    +0.000 HD
ENDROOT
BRANCH   1  19
ATOM     13  C   UNL     1       8.344  15.354  20.127  0.00  0.00    +0.000 C 
ATOM     14  O   UNL     1       9.386  15.635  20.722  0.00  0.00    +0.000 OA
ATOM     15  N   UNL     1       7.117  15.904  20.463  0.00  0.00    +0.000 N 
ATOM     16  C   UNL     1       7.084  17.001  21.428  0.00  0.00    +0.000 C 
ATOM     17  C   UNL     1       6.255  16.623  22.650  0.00  0.00    +0.000 C 
ATOM     18  C   UNL     1       4.846  16.182  22.246  0.00  0.00    +0.000 C 
ATOM     19  C   UNL     1       4.891  15.066  21.186  0.00  0.00    +0.000 C 
ATOM     20  C   UNL     1       5.796  15.447  20.002  0.00  0.00    +0.000 C 
BRANCH  13  22
ATOM     21  C   UNL     1       9.032  13.265  19.036  0.00  0.00    +0.000 C 
ATOM     22  C   UNL     1       8.384  14.439  18.955  0.00  0.00    +0.000 C 
BRANCH  21  23
ATOM     23  C   UNL     1       9.275  12.350  17.868  0.00  0.00    +0.000 C 
BRANCH  23  25
ATOM     24  C   UNL     1      11.388  13.062  16.997  0.00  0.00    +0.000 C 
ATOM     25  N   UNL     1      10.681  11.965  17.671  0.00  0.00    +0.000 NA
ATOM     26  C   UNL     1      11.363  11.665  18.932  0.00  0.00    +0.000 C 
ENDBRANCH  23  25
ENDBRANCH  21  23
ENDBRANCH  13  22
ENDBRANCH   1  19
BRANCH   3  27
ATOM     27  C   UNL     1       1.113  12.178  20.289  0.00  0.00    +0.000 A 
ATOM     28  C   UNL     1       0.771  11.606  19.056  0.00  0.00    +0.000 A 
ATOM     29  C   UNL     1       0.010  10.436  18.997  0.00  0.00    +0.000 A 
ATOM     30  C   UNL     1      -0.403   9.809  20.172  0.00  0.00    +0.000 A 
ATOM     31  C   UNL     1      -0.071  10.354  21.418  0.00  0.00    +0.000 A 
ATOM     32  C   UNL     1       0.664  11.552  21.461  0.00  0.00    +0.000 A 
BRANCH  31  33
ATOM     33  C   UNL     1      -0.470   9.676  22.706  0.00  0.00    +0.000 C 
ATOM     34  F   UNL     1       0.557   9.537  23.591  0.00  0.00    +0.000 F 
ATOM     35  F   UNL     1      -1.439  10.366  23.370  0.00  0.00    +0.000 F 
ATOM     36  F   UNL     1      -0.965   8.424  22.511  0.00  0.00    +0.000 F 
ENDBRANCH  31  33
ENDBRANCH   3  27
TORSDOF 6
ENDMDL
