MODEL 1
REMARK VINA RESULT:      -7.7      0.000      0.000
REMARK  Name = 
REMARK  8 active torsions:
REMARK  status: ('A' for Active; 'I' for Inactive)
REMARK    1  A    between atoms: C_2  and  C_3
REMARK    2  A    between atoms: C_3  and  C_4
REMARK    3  A    between atoms: C_4  and  C_5
REMARK    4  A    between atoms: C_5  and  C_6
REMARK    5  A    between atoms: C_13  and  C_14
REMARK    6  A    between atoms: C_14  and  O_15
REMARK    7  A    between atoms: C_17  and  C_18
REMARK    8  A    between atoms: C_18  and  N_19
REMARK                            x       y       z     vdW  Elec       q    Type
REMARK                         _______ _______ _______ _____ _____    ______ ____
ROOT
ATOM      1  O   UNL     1       3.616   7.671  17.538  0.00  0.00    +0.000 OA
ATOM      2  C   UNL     1       2.834   7.128  18.321  0.00  0.00    +0.000 C 
ATOM      3  N   UNL     1       2.762   5.749  18.442  0.00  0.00    +0.000 N 
ATOM      4  C   UNL     1       1.900   5.003  19.366  0.00  0.00    +0.000 C 
ATOM      5  C   UNL     1       2.713   4.028  20.232  0.00  0.00    +0.000 C 
ATOM      6  C   UNL     1       3.624   3.160  19.349  0.00  0.00    +0.000 C 
ATOM      7  C   UNL     1       4.515   4.015  18.428  0.00  0.00    +0.000 C 
ATOM      8  C   UNL     1       3.611   4.925  17.583  0.00  0.00    +0.000 C 
ENDROOT
BRANCH   2   9
ATOM      9  C   UNL     1       1.947   7.970  19.224  0.00  0.00    +0.000 C 
BRANCH   9  10
ATOM     10  C   UNL     1       1.459   9.249  18.541  0.00  0.00    +0.000 C 
BRANCH  10  11
ATOM     11  C   UNL     1       0.293   9.874  19.316  0.00  0.00    +0.000 C 
BRANCH  11  12
ATOM     12  C   UNL     1      -0.653  10.594  18.424  0.00  0.00    +0.000 A 
ATOM     13  C   UNL     1      -1.555  10.044  17.486  0.00  0.00    +0.000 A 
ATOM     14  N   UNL     1      -2.254  10.978  16.841  0.00  0.00    +0.000 NA
ATOM     15  N   UNL     1      -1.801  12.131  17.362  0.00  0.00    +0.000 N 
ATOM     16  C   UNL     1      -0.841  11.953  18.314  0.00  0.00    +0.000 A 
ATOM     17  H   UNL     1      -2.191  13.002  17.020  0.00  0.00    +0.000 HD
ENDBRANCH  11  12
ENDBRANCH  10  11
ENDBRANCH   9  10
ENDBRANCH   2   9
BRANCH   5  18
ATOM     18  C   UNL     1       1.791   3.185  21.117  0.00  0.00    +0.000 C 
BRANCH  18  19
ATOM     19  O   UNL     1       2.471   2.678  22.256  0.00  0.00    +0.000 OA
ATOM     20  H   UNL     1       3.179   2.090  21.940  0.00  0.00    +0.000 HD
ENDBRANCH  18  19
ENDBRANCH   5  18
BRANCH   7  21
ATOM     21  C   UNL     1       5.564   4.888  19.169  0.00  0.00    +0.000 C 
BRANCH  21  22
ATOM     22  N   UNL     1       6.951   4.751  18.682  0.00  0.00    +0.000 NA
ATOM     23  C   UNL     1       7.703   6.001  18.923  0.00  0.00    +0.000 C 
ATOM     24  C   UNL     1       7.356   6.899  17.751  0.00  0.00    +0.000 C 
ATOM     25  C   UNL     1       7.275   5.928  16.588  0.00  0.00    +0.000 C 
ATOM     26  C   UNL     1       7.021   4.562  17.221  0.00  0.00    +0.000 C 
ENDBRANCH  21  22
ENDBRANCH   7  21
TORSDOF 8
ENDMDL
MODEL 2
REMARK VINA RESULT:      -7.5      1.741      1.960
REMARK  Name = 
REMARK  8 active torsions:
REMARK  status: ('A' for Active; 'I' for Inactive)
REMARK    1  A    between atoms: C_2  and  C_3
REMARK    2  A    between atoms: C_3  and  C_4
REMARK    3  A    between atoms: C_4  and  C_5
REMARK    4  A    between atoms: C_5  and  C_6
REMARK    5  A    between atoms: C_13  and  C_14
REMARK    6  A    between atoms: C_14  and  O_15
REMARK    7  A    between atoms: C_17  and  C_18
REMARK    8  A    between atoms: C_18  and  N_19
REMARK                            x       y       z     vdW  Elec       q    Type
REMARK                         _______ _______ _______ _____ _____    ______ ____
ROOT
ATOM      1  O   UNL     1       3.877   7.387  17.165  0.00  0.00    +0.000 OA
ATOM      2  C   UNL     1       3.060   6.985  17.995  0.00  0.00    +0.000 C 
ATOM      3  N   UNL     1       2.948   5.641  18.317  0.00  0.00    +0.000 N 
ATOM      4  C   UNL     1       2.041   5.060  19.315  0.00  0.00    +0.000 C 
ATOM      5  C   UNL     1       2.805   4.207  20.339  0.00  0.00    +0.000 C 
ATOM      6  C   UNL     1       3.716   3.196  19.622  0.00  0.00    +0.000 C 
ATOM      7  C   UNL     1       4.653   3.885  18.612  0.00  0.00    +0.000 C 
ATOM      8  C   UNL     1       3.796   4.679  17.614  0.00  0.00    +0.000 C 
ENDROOT
BRANCH   2   9
ATOM      9  C   UNL     1       2.172   7.972  18.737  0.00  0.00    +0.000 C 
BRANCH   9  10
ATOM     10  C   UNL     1       1.936   9.258  17.945  0.00  0.00    +0.000 C 
BRANCH  10  11
ATOM     11  C   UNL     1       0.545   9.835  18.237  0.00  0.00    +0.000 C 
BRANCH  11  12
ATOM     12  C   UNL     1       0.456  10.426  19.598  0.00  0.00    +0.000 A 
ATOM     13  C   UNL     1       1.134  11.557  20.103  0.00  0.00    +0.000 A 
ATOM     14  N   UNL     1       0.830  11.810  21.376  0.00  0.00    +0.000 NA
ATOM     15  N   UNL     1      -0.044  10.838  21.693  0.00  0.00    +0.000 N 
ATOM     16  C   UNL     1      -0.299   9.984  20.660  0.00  0.00    +0.000 A 
ATOM     17  H   UNL     1      -0.425  10.819  22.632  0.00  0.00    +0.000 HD
ENDBRANCH  11  12
ENDBRANCH  10  11
ENDBRANCH   9  10
ENDBRANCH   2   9
BRANCH   5  18
ATOM     18  C   UNL     1       1.837   3.525  21.311  0.00  0.00    +0.000 C 
BRANCH  18  19
ATOM     19  O   UNL     1       0.637   3.128  20.666  0.00  0.00    +0.000 OA
ATOM     20  H   UNL     1       0.438   2.217  20.946  0.00  0.00    +0.000 HD
ENDBRANCH  18  19
ENDBRANCH   5  18
BRANCH   7  21
ATOM     21  C   UNL     1       5.706   4.833  19.246  0.00  0.00    +0.000 C 
BRANCH  21  22
ATOM     22  N   UNL     1       7.067   4.725  18.687  0.00  0.00    +0.000 NA
ATOM     23  C   UNL     1       7.819   5.975  18.926  0.00  0.00    +0.000 C 
ATOM     24  C   UNL     1       7.405   6.904  17.800  0.00  0.00    +0.000 C 
ATOM     25  C   UNL     1       7.273   5.967  16.615  0.00  0.00    +0.000 C 
ATOM     26  C   UNL     1       7.064   4.580  17.219  0.00  0.00    +0.000 C 
ENDBRANCH  21  22
ENDBRANCH   7  21
TORSDOF 8
ENDMDL
MODEL 3
REMARK VINA RESULT:      -7.5      0.716      1.074
REMARK  Name = 
REMARK  8 active torsions:
REMARK  status: ('A' for Active; 'I' for Inactive)
REMARK    1  A    between atoms: C_2  and  C_3
REMARK    2  A    between atoms: C_3  and  C_4
REMARK    3  A    between atoms: C_4  and  C_5
REMARK    4  A    between atoms: C_5  and  C_6
REMARK    5  A    between atoms: C_13  and  C_14
REMARK    6  A    between atoms: C_14  and  O_15
REMARK    7  A    between atoms: C_17  and  C_18
REMARK    8  A    between atoms: C_18  and  N_19
REMARK                            x       y       z     vdW  Elec       q    Type
REMARK                         _______ _______ _______ _____ _____    ______ ____
ROOT
ATOM      1  O   UNL     1       3.566   7.621  17.575  0.00  0.00    +0.000 OA
ATOM      2  C   UNL     1       2.832   7.079  18.403  0.00  0.00    +0.000 C 
ATOM      3  N   UNL     1       2.807   5.702  18.567  0.00  0.00    +0.000 N 
ATOM      4  C   UNL     1       2.005   4.959  19.546  0.00  0.00    +0.000 C 
ATOM      5  C   UNL     1       2.881   4.035  20.407  0.00  0.00    +0.000 C 
ATOM      6  C   UNL     1       3.783   3.168  19.513  0.00  0.00    +0.000 C 
ATOM      7  C   UNL     1       4.611   4.022  18.534  0.00  0.00    +0.000 C 
ATOM      8  C   UNL     1       3.647   4.878  17.699  0.00  0.00    +0.000 C 
ENDROOT
BRANCH   2   9
ATOM      9  C   UNL     1       1.955   7.921  19.316  0.00  0.00    +0.000 C 
BRANCH   9  10
ATOM     10  C   UNL     1       1.476   9.209  18.646  0.00  0.00    +0.000 C 
BRANCH  10  11
ATOM     11  C   UNL     1       0.404   9.904  19.494  0.00  0.00    +0.000 C 
BRANCH  11  12
ATOM     12  C   UNL     1      -0.196  11.071  18.796  0.00  0.00    +0.000 A 
ATOM     13  C   UNL     1       0.239  12.414  18.812  0.00  0.00    +0.000 A 
ATOM     14  N   UNL     1      -0.539  13.213  18.081  0.00  0.00    +0.000 NA
ATOM     15  N   UNL     1      -1.478  12.383  17.594  0.00  0.00    +0.000 N 
ATOM     16  C   UNL     1      -1.315  11.089  17.995  0.00  0.00    +0.000 A 
ATOM     17  H   UNL     1      -2.199  12.768  16.995  0.00  0.00    +0.000 HD
ENDBRANCH  11  12
ENDBRANCH  10  11
ENDBRANCH   9  10
ENDBRANCH   2   9
BRANCH   5  18
ATOM     18  C   UNL     1       2.020   3.192  21.351  0.00  0.00    +0.000 C 
BRANCH  18  19
ATOM     19  O   UNL     1       0.682   3.082  20.888  0.00  0.00    +0.000 OA
ATOM     20  H   UNL     1       0.638   3.499  20.009  0.00  0.00    +0.000 HD
ENDBRANCH  18  19
ENDBRANCH   5  18
BRANCH   7  21
ATOM     21  C   UNL     1       5.661   4.946  19.206  0.00  0.00    +0.000 C 
BRANCH  21  22
ATOM     22  N   UNL     1       7.033   4.828  18.677  0.00  0.00    +0.000 NA
ATOM     23  C   UNL     1       7.746   6.116  18.811  0.00  0.00    +0.000 C 
ATOM     24  C   UNL     1       7.325   6.925  17.599  0.00  0.00    +0.000 C 
ATOM     25  C   UNL     1       7.238   5.880  16.503  0.00  0.00    +0.000 C 
ATOM     26  C   UNL     1       7.058   4.549  17.229  0.00  0.00    +0.000 C 
ENDBRANCH  21  22
ENDBRANCH   7  21
TORSDOF 8
ENDMDL
MODEL 4
REMARK VINA RESULT:      -7.5      2.598      4.729
REMARK  Name = 
REMARK  8 active torsions:
REMARK  status: ('A' for Active; 'I' for Inactive)
REMARK    1  A    between atoms: C_2  and  C_3
REMARK    2  A    between atoms: C_3  and  C_4
REMARK    3  A    between atoms: C_4  and  C_5
REMARK    4  A    between atoms: C_5  and  C_6
REMARK    5  A    between atoms: C_13  and  C_14
REMARK    6  A    between atoms: C_14  and  O_15
REMARK    7  A    between atoms: C_17  and  C_18
REMARK    8  A    between atoms: C_18  and  N_19
REMARK                            x       y       z     vdW  Elec       q    Type
REMARK                         _______ _______ _______ _____ _____    ______ ____
ROOT
ATOM      1  O   UNL     1       2.211   6.970  19.533  0.00  0.00    +0.000 OA
ATOM      2  C   UNL     1       2.917   7.204  18.550  0.00  0.00    +0.000 C 
ATOM      3  N   UNL     1       3.995   6.398  18.217  0.00  0.00    +0.000 N 
ATOM      4  C   UNL     1       4.873   6.561  17.053  0.00  0.00    +0.000 C 
ATOM      5  C   UNL     1       4.943   5.274  16.216  0.00  0.00    +0.000 C 
ATOM      6  C   UNL     1       5.270   4.069  17.113  0.00  0.00    +0.000 C 
ATOM      7  C   UNL     1       4.290   3.951  18.295  0.00  0.00    +0.000 C 
ATOM      8  C   UNL     1       4.320   5.268  19.087  0.00  0.00    +0.000 C 
ENDROOT
BRANCH   2   9
ATOM      9  C   UNL     1       2.592   8.373  17.634  0.00  0.00    +0.000 C 
BRANCH   9  10
ATOM     10  C   UNL     1       1.230   8.998  17.941  0.00  0.00    +0.000 C 
BRANCH  10  11
ATOM     11  C   UNL     1       1.392  10.403  18.534  0.00  0.00    +0.000 C 
BRANCH  11  12
ATOM     12  C   UNL     1       0.785  10.515  19.887  0.00  0.00    +0.000 A 
ATOM     13  C   UNL     1       0.933  11.562  20.823  0.00  0.00    +0.000 A 
ATOM     14  N   UNL     1       0.256  11.340  21.950  0.00  0.00    +0.000 NA
ATOM     15  N   UNL     1      -0.328  10.147  21.740  0.00  0.00    +0.000 N 
ATOM     16  C   UNL     1      -0.040   9.613  20.518  0.00  0.00    +0.000 A 
ATOM     17  H   UNL     1      -0.908   9.758  22.474  0.00  0.00    +0.000 HD
ENDBRANCH  11  12
ENDBRANCH  10  11
ENDBRANCH   9  10
ENDBRANCH   2   9
BRANCH   5  18
ATOM     18  C   UNL     1       5.941   5.426  15.064  0.00  0.00    +0.000 C 
BRANCH  18  19
ATOM     19  O   UNL     1       7.253   5.696  15.536  0.00  0.00    +0.000 OA
ATOM     20  H   UNL     1       7.795   5.956  14.771  0.00  0.00    +0.000 HD
ENDBRANCH  18  19
ENDBRANCH   5  18
BRANCH   7  21
ATOM     21  C   UNL     1       2.824   3.633  17.894  0.00  0.00    +0.000 C 
BRANCH  21  22
ATOM     22  N   UNL     1       2.223   2.474  18.581  0.00  0.00    +0.000 NA
ATOM     23  C   UNL     1       0.802   2.742  18.888  0.00  0.00    +0.000 C 
ATOM     24  C   UNL     1       0.823   3.528  20.186  0.00  0.00    +0.000 C 
ATOM     25  C   UNL     1       1.963   2.888  20.955  0.00  0.00    +0.000 C 
ATOM     26  C   UNL     1       2.836   2.216  19.897  0.00  0.00    +0.000 C 
ENDBRANCH  21  22
ENDBRANCH   7  21
TORSDOF 8
ENDMDL
MODEL 5
REMARK VINA RESULT:      -7.4      1.971      4.317
REMARK  Name = 
REMARK  8 active torsions:
REMARK  status: ('A' for Active; 'I' for Inactive)
REMARK    1  A    between atoms: C_2  and  C_3
REMARK    2  A    between atoms: C_3  and  C_4
REMARK    3  A    between atoms: C_4  and  C_5
REMARK    4  A    between atoms: C_5  and  C_6
REMARK    5  A    between atoms: C_13  and  C_14
REMARK    6  A    between atoms: C_14  and  O_15
REMARK    7  A    between atoms: C_17  and  C_18
REMARK    8  A    between atoms: C_18  and  N_19
REMARK                            x       y       z     vdW  Elec       q    Type
REMARK                         _______ _______ _______ _____ _____    ______ ____
ROOT
ATOM      1  O   UNL     1       2.086   6.862  19.769  0.00  0.00    +0.000 OA
ATOM      2  C   UNL     1       2.683   7.113  18.720  0.00  0.00    +0.000 C 
ATOM      3  N   UNL     1       3.861   6.468  18.379  0.00  0.00    +0.000 N 
ATOM      4  C   UNL     1       4.629   6.660  17.143  0.00  0.00    +0.000 C 
ATOM      5  C   UNL     1       4.869   5.326  16.417  0.00  0.00    +0.000 C 
ATOM      6  C   UNL     1       5.450   4.285  17.388  0.00  0.00    +0.000 C 
ATOM      7  C   UNL     1       4.575   4.123  18.646  0.00  0.00    +0.000 C 
ATOM      8  C   UNL     1       4.425   5.497  19.316  0.00  0.00    +0.000 C 
ENDROOT
BRANCH   2   9
ATOM      9  C   UNL     1       2.108   8.117  17.733  0.00  0.00    +0.000 C 
BRANCH   9  10
ATOM     10  C   UNL     1       1.951   9.512  18.340  0.00  0.00    +0.000 C 
BRANCH  10  11
ATOM     11  C   UNL     1       0.566   9.680  18.977  0.00  0.00    +0.000 C 
BRANCH  11  12
ATOM     12  C   UNL     1      -0.110  10.927  18.531  0.00  0.00    +0.000 A 
ATOM     13  C   UNL     1       0.315  12.261  18.713  0.00  0.00    +0.000 A 
ATOM     14  N   UNL     1      -0.538  13.145  18.195  0.00  0.00    +0.000 NA
ATOM     15  N   UNL     1      -1.515  12.380  17.680  0.00  0.00    +0.000 N 
ATOM     16  C   UNL     1      -1.304  11.044  17.857  0.00  0.00    +0.000 A 
ATOM     17  H   UNL     1      -2.296  12.836  17.223  0.00  0.00    +0.000 HD
ENDBRANCH  11  12
ENDBRANCH  10  11
ENDBRANCH   9  10
ENDBRANCH   2   9
BRANCH   5  18
ATOM     18  C   UNL     1       5.758   5.528  15.186  0.00  0.00    +0.000 C 
BRANCH  18  19
ATOM     19  O   UNL     1       7.124   5.680  15.541  0.00  0.00    +0.000 OA
ATOM     20  H   UNL     1       7.219   6.539  15.988  0.00  0.00    +0.000 HD
ENDBRANCH  18  19
ENDBRANCH   5  18
BRANCH   7  21
ATOM     21  C   UNL     1       3.166   3.529  18.383  0.00  0.00    +0.000 C 
BRANCH  21  22
ATOM     22  N   UNL     1       2.778   2.416  19.270  0.00  0.00    +0.000 NA
ATOM     23  C   UNL     1       1.309   2.386  19.442  0.00  0.00    +0.000 C 
ATOM     24  C   UNL     1       1.023   3.391  20.541  0.00  0.00    +0.000 C 
ATOM     25  C   UNL     1       2.196   3.210  21.485  0.00  0.00    +0.000 C 
ATOM     26  C   UNL     1       3.299   2.577  20.640  0.00  0.00    +0.000 C 
ENDBRANCH  21  22
ENDBRANCH   7  21
TORSDOF 8
ENDMDL
MODEL 6
REMARK VINA RESULT:      -7.3      2.220      2.569
REMARK  Name = 
REMARK  8 active torsions:
REMARK  status: ('A' for Active; 'I' for Inactive)
REMARK    1  A    between atoms: C_2  and  C_3
REMARK    2  A    between atoms: C_3  and  C_4
REMARK    3  A    between atoms: C_4  and  C_5
REMARK    4  A    between atoms: C_5  and  C_6
REMARK    5  A    between atoms: C_13  and  C_14
REMARK    6  A    between atoms: C_14  and  O_15
REMARK    7  A    between atoms: C_17  and  C_18
REMARK    8  A    between atoms: C_18  and  N_19
REMARK                            x       y       z     vdW  Elec       q    Type
REMARK                         _______ _______ _______ _____ _____    ______ ____
ROOT
ATOM      1  O   UNL     1       3.205   7.863  18.163  0.00  0.00    +0.000 OA
ATOM      2  C   UNL     1       2.570   7.220  19.002  0.00  0.00    +0.000 C 
ATOM      3  N   UNL     1       2.550   5.834  18.997  0.00  0.00    +0.000 N 
ATOM      4  C   UNL     1       1.864   4.973  19.967  0.00  0.00    +0.000 C 
ATOM      5  C   UNL     1       2.827   3.953  20.594  0.00  0.00    +0.000 C 
ATOM      6  C   UNL     1       3.604   3.206  19.497  0.00  0.00    +0.000 C 
ATOM      7  C   UNL     1       4.316   4.177  18.536  0.00  0.00    +0.000 C 
ATOM      8  C   UNL     1       3.267   5.127  17.937  0.00  0.00    +0.000 C 
ENDROOT
BRANCH   2   9
ATOM      9  C   UNL     1       1.821   7.940  20.112  0.00  0.00    +0.000 C 
BRANCH   9  10
ATOM     10  C   UNL     1       0.930   9.066  19.585  0.00  0.00    +0.000 C 
BRANCH  10  11
ATOM     11  C   UNL     1       1.104  10.340  20.420  0.00  0.00    +0.000 C 
BRANCH  11  12
ATOM     12  C   UNL     1       0.241  10.342  21.630  0.00  0.00    +0.000 A 
ATOM     13  C   UNL     1      -0.555  11.395  22.131  0.00  0.00    +0.000 A 
ATOM     14  N   UNL     1      -1.199  11.063  23.249  0.00  0.00    +0.000 NA
ATOM     15  N   UNL     1      -0.817   9.793  23.470  0.00  0.00    +0.000 N 
ATOM     16  C   UNL     1       0.046   9.317  22.528  0.00  0.00    +0.000 A 
ATOM     17  H   UNL     1      -1.184   9.313  24.284  0.00  0.00    +0.000 HD
ENDBRANCH  11  12
ENDBRANCH  10  11
ENDBRANCH   9  10
ENDBRANCH   2   9
BRANCH   5  18
ATOM     18  C   UNL     1       2.078   2.996  21.525  0.00  0.00    +0.000 C 
BRANCH  18  19
ATOM     19  O   UNL     1       0.716   2.853  21.149  0.00  0.00    +0.000 OA
ATOM     20  H   UNL     1       0.207   3.540  21.613  0.00  0.00    +0.000 HD
ENDBRANCH  18  19
ENDBRANCH   5  18
BRANCH   7  21
ATOM     21  C   UNL     1       5.451   5.015  19.184  0.00  0.00    +0.000 C 
BRANCH  21  22
ATOM     22  N   UNL     1       6.803   4.760  18.650  0.00  0.00    +0.000 NA
ATOM     23  C   UNL     1       7.670   5.936  18.873  0.00  0.00    +0.000 C 
ATOM     24  C   UNL     1       7.366   6.872  17.717  0.00  0.00    +0.000 C 
ATOM     25  C   UNL     1       7.161   5.921  16.553  0.00  0.00    +0.000 C 
ATOM     26  C   UNL     1       6.807   4.578  17.186  0.00  0.00    +0.000 C 
ENDBRANCH  21  22
ENDBRANCH   7  21
TORSDOF 8
ENDMDL
MODEL 7
REMARK VINA RESULT:      -7.1      2.091      4.347
REMARK  Name = 
REMARK  8 active torsions:
REMARK  status: ('A' for Active; 'I' for Inactive)
REMARK    1  A    between atoms: C_2  and  C_3
REMARK    2  A    between atoms: C_3  and  C_4
REMARK    3  A    between atoms: C_4  and  C_5
REMARK    4  A    between atoms: C_5  and  C_6
REMARK    5  A    between atoms: C_13  and  C_14
REMARK    6  A    between atoms: C_14  and  O_15
REMARK    7  A    between atoms: C_17  and  C_18
REMARK    8  A    between atoms: C_18  and  N_19
REMARK                            x       y       z     vdW  Elec       q    Type
REMARK                         _______ _______ _______ _____ _____    ______ ____
ROOT
ATOM      1  O   UNL     1       2.178   6.815  19.860  0.00  0.00    +0.000 OA
ATOM      2  C   UNL     1       2.751   7.071  18.800  0.00  0.00    +0.000 C 
ATOM      3  N   UNL     1       3.889   6.387  18.401  0.00  0.00    +0.000 N 
ATOM      4  C   UNL     1       4.625   6.583  17.146  0.00  0.00    +0.000 C 
ATOM      5  C   UNL     1       4.783   5.263  16.375  0.00  0.00    +0.000 C 
ATOM      6  C   UNL     1       5.349   4.170  17.297  0.00  0.00    +0.000 C 
ATOM      7  C   UNL     1       4.509   4.007  18.578  0.00  0.00    +0.000 C 
ATOM      8  C   UNL     1       4.440   5.366  19.291  0.00  0.00    +0.000 C 
ENDROOT
BRANCH   2   9
ATOM      9  C   UNL     1       2.190   8.128  17.861  0.00  0.00    +0.000 C 
BRANCH   9  10
ATOM     10  C   UNL     1       1.537   9.291  18.610  0.00  0.00    +0.000 C 
BRANCH  10  11
ATOM     11  C   UNL     1       0.232   9.719  17.928  0.00  0.00    +0.000 C 
BRANCH  11  12
ATOM     12  C   UNL     1      -0.602  10.584  18.802  0.00  0.00    +0.000 A 
ATOM     13  C   UNL     1      -1.758  11.317  18.455  0.00  0.00    +0.000 A 
ATOM     14  N   UNL     1      -2.259  12.001  19.484  0.00  0.00    +0.000 NA
ATOM     15  N   UNL     1      -1.423  11.710  20.496  0.00  0.00    +0.000 N 
ATOM     16  C   UNL     1      -0.414  10.865  20.136  0.00  0.00    +0.000 A 
ATOM     17  H   UNL     1      -1.601  12.123  21.404  0.00  0.00    +0.000 HD
ENDBRANCH  11  12
ENDBRANCH  10  11
ENDBRANCH   9  10
ENDBRANCH   2   9
BRANCH   5  18
ATOM     18  C   UNL     1       5.640   5.463  15.122  0.00  0.00    +0.000 C 
BRANCH  18  19
ATOM     19  O   UNL     1       5.929   4.231  14.479  0.00  0.00    +0.000 OA
ATOM     20  H   UNL     1       6.186   3.592  15.166  0.00  0.00    +0.000 HD
ENDBRANCH  18  19
ENDBRANCH   5  18
BRANCH   7  21
ATOM     21  C   UNL     1       3.067   3.482  18.345  0.00  0.00    +0.000 C 
BRANCH  21  22
ATOM     22  N   UNL     1       2.628   2.421  19.272  0.00  0.00    +0.000 NA
ATOM     23  C   UNL     1       1.166   2.498  19.482  0.00  0.00    +0.000 C 
ATOM     24  C   UNL     1       0.980   3.549  20.560  0.00  0.00    +0.000 C 
ATOM     25  C   UNL     1       2.163   3.311  21.479  0.00  0.00    +0.000 C 
ATOM     26  C   UNL     1       3.197   2.582  20.624  0.00  0.00    +0.000 C 
ENDBRANCH  21  22
ENDBRANCH   7  21
TORSDOF 8
ENDMDL
MODEL 8
REMARK VINA RESULT:      -7.0      2.225      2.486
REMARK  Name = 
REMARK  8 active torsions:
REMARK  status: ('A' for Active; 'I' for Inactive)
REMARK    1  A    between atoms: C_2  and  C_3
REMARK    2  A    between atoms: C_3  and  C_4
REMARK    3  A    between atoms: C_4  and  C_5
REMARK    4  A    between atoms: C_5  and  C_6
REMARK    5  A    between atoms: C_13  and  C_14
REMARK    6  A    between atoms: C_14  and  O_15
REMARK    7  A    between atoms: C_17  and  C_18
REMARK    8  A    between atoms: C_18  and  N_19
REMARK                            x       y       z     vdW  Elec       q    Type
REMARK                         _______ _______ _______ _____ _____    ______ ____
ROOT
ATOM      1  O   UNL     1       2.544   7.764  18.912  0.00  0.00    +0.000 OA
ATOM      2  C   UNL     1       2.126   6.922  19.708  0.00  0.00    +0.000 C 
ATOM      3  N   UNL     1       2.266   5.563  19.474  0.00  0.00    +0.000 N 
ATOM      4  C   UNL     1       1.843   4.480  20.370  0.00  0.00    +0.000 C 
ATOM      5  C   UNL     1       3.004   3.521  20.681  0.00  0.00    +0.000 C 
ATOM      6  C   UNL     1       3.682   3.062  19.379  0.00  0.00    +0.000 C 
ATOM      7  C   UNL     1       4.119   4.254  18.508  0.00  0.00    +0.000 C 
ATOM      8  C   UNL     1       2.887   5.128  18.224  0.00  0.00    +0.000 C 
ENDROOT
BRANCH   2   9
ATOM      9  C   UNL     1       1.480   7.357  21.014  0.00  0.00    +0.000 C 
BRANCH   9  10
ATOM     10  C   UNL     1       1.328   8.875  21.117  0.00  0.00    +0.000 C 
BRANCH  10  11
ATOM     11  C   UNL     1      -0.146   9.286  21.028  0.00  0.00    +0.000 C 
BRANCH  11  12
ATOM     12  C   UNL     1      -0.414  10.573  21.724  0.00  0.00    +0.000 A 
ATOM     13  C   UNL     1      -1.037  10.772  22.975  0.00  0.00    +0.000 A 
ATOM     14  N   UNL     1      -1.129  12.062  23.301  0.00  0.00    +0.000 NA
ATOM     15  N   UNL     1      -0.565  12.694  22.257  0.00  0.00    +0.000 N 
ATOM     16  C   UNL     1      -0.123  11.844  21.286  0.00  0.00    +0.000 A 
ATOM     17  H   UNL     1      -0.517  13.706  22.273  0.00  0.00    +0.000 HD
ENDBRANCH  11  12
ENDBRANCH  10  11
ENDBRANCH   9  10
ENDBRANCH   2   9
BRANCH   5  18
ATOM     18  C   UNL     1       2.524   2.342  21.531  0.00  0.00    +0.000 C 
BRANCH  18  19
ATOM     19  O   UNL     1       1.334   2.653  22.240  0.00  0.00    +0.000 OA
ATOM     20  H   UNL     1       0.605   2.159  21.825  0.00  0.00    +0.000 HD
ENDBRANCH  18  19
ENDBRANCH   5  18
BRANCH   7  21
ATOM     21  C   UNL     1       5.236   5.136  19.128  0.00  0.00    +0.000 C 
BRANCH  21  22
ATOM     22  N   UNL     1       6.612   4.771  18.740  0.00  0.00    +0.000 NA
ATOM     23  C   UNL     1       7.538   5.885  19.035  0.00  0.00    +0.000 C 
ATOM     24  C   UNL     1       7.425   6.815  17.841  0.00  0.00    +0.000 C 
ATOM     25  C   UNL     1       7.268   5.858  16.675  0.00  0.00    +0.000 C 
ATOM     26  C   UNL     1       6.752   4.558  17.288  0.00  0.00    +0.000 C 
ENDBRANCH  21  22
ENDBRANCH   7  21
TORSDOF 8
ENDMDL
MODEL 9
REMARK VINA RESULT:      -7.0      3.922      6.963
REMARK  Name = 
REMARK  8 active torsions:
REMARK  status: ('A' for Active; 'I' for Inactive)
REMARK    1  A    between atoms: C_2  and  C_3
REMARK    2  A    between atoms: C_3  and  C_4
REMARK    3  A    between atoms: C_4  and  C_5
REMARK    4  A    between atoms: C_5  and  C_6
REMARK    5  A    between atoms: C_13  and  C_14
REMARK    6  A    between atoms: C_14  and  O_15
REMARK    7  A    between atoms: C_17  and  C_18
REMARK    8  A    between atoms: C_18  and  N_19
REMARK                            x       y       z     vdW  Elec       q    Type
REMARK                         _______ _______ _______ _____ _____    ______ ____
ROOT
ATOM      1  O   UNL     1       7.783   4.455  18.207  0.00  0.00    +0.000 OA
ATOM      2  C   UNL     1       7.151   5.510  18.122  0.00  0.00    +0.000 C 
ATOM      3  N   UNL     1       5.872   5.553  17.588  0.00  0.00    +0.000 N 
ATOM      4  C   UNL     1       5.018   6.742  17.478  0.00  0.00    +0.000 C 
ATOM      5  C   UNL     1       3.648   6.513  18.135  0.00  0.00    +0.000 C 
ATOM      6  C   UNL     1       3.017   5.209  17.618  0.00  0.00    +0.000 C 
ATOM      7  C   UNL     1       3.963   4.006  17.793  0.00  0.00    +0.000 C 
ATOM      8  C   UNL     1       5.285   4.317  17.074  0.00  0.00    +0.000 C 
ENDROOT
BRANCH   2   9
ATOM      9  C   UNL     1       7.745   6.804  18.655  0.00  0.00    +0.000 C 
BRANCH   9  10
ATOM     10  C   UNL     1       8.215   7.737  17.539  0.00  0.00    +0.000 C 
BRANCH  10  11
ATOM     11  C   UNL     1       7.732   9.172  17.783  0.00  0.00    +0.000 C 
BRANCH  11  12
ATOM     12  C   UNL     1       8.788  10.025  18.389  0.00  0.00    +0.000 A 
ATOM     13  C   UNL     1       9.204  10.069  19.738  0.00  0.00    +0.000 A 
ATOM     14  N   UNL     1      10.173  10.961  19.945  0.00  0.00    +0.000 NA
ATOM     15  N   UNL     1      10.381  11.493  18.728  0.00  0.00    +0.000 N 
ATOM     16  C   UNL     1       9.575  10.965  17.764  0.00  0.00    +0.000 A 
ATOM     17  H   UNL     1      11.089  12.212  18.630  0.00  0.00    +0.000 HD
ENDBRANCH  11  12
ENDBRANCH  10  11
ENDBRANCH   9  10
ENDBRANCH   2   9
BRANCH   5  18
ATOM     18  C   UNL     1       2.732   7.722  17.922  0.00  0.00    +0.000 C 
BRANCH  18  19
ATOM     19  O   UNL     1       2.087   8.112  19.124  0.00  0.00    +0.000 OA
ATOM     20  H   UNL     1       1.624   7.333  19.478  0.00  0.00    +0.000 HD
ENDBRANCH  18  19
ENDBRANCH   5  18
BRANCH   7  21
ATOM     21  C   UNL     1       4.264   3.626  19.268  0.00  0.00    +0.000 C 
BRANCH  21  22
ATOM     22  N   UNL     1       3.639   2.373  19.733  0.00  0.00    +0.000 NA
ATOM     23  C   UNL     1       2.298   2.216  19.131  0.00  0.00    +0.000 C 
ATOM     24  C   UNL     1       1.373   3.032  20.015  0.00  0.00    +0.000 C 
ATOM     25  C   UNL     1       1.935   2.801  21.404  0.00  0.00    +0.000 C 
ATOM     26  C   UNL     1       3.385   2.375  21.186  0.00  0.00    +0.000 C 
ENDBRANCH  21  22
ENDBRANCH   7  21
TORSDOF 8
ENDMDL
