MODEL 1
REMARK VINA RESULT:      -8.6      0.000      0.000
REMARK  Name = 
REMARK  4 active torsions:
REMARK  status: ('A' for Active; 'I' for Inactive)
REMARK    1  A    between atoms: C_4  and  C_5
REMARK    2  A    between atoms: C_9  and  N_10
REMARK    3  A    between atoms: C_15  and  O_16
REMARK    4  A    between atoms: O_16  and  C_17
REMARK                            x       y       z     vdW  Elec       q    Type
REMARK                         _______ _______ _______ _____ _____    ______ ____
ROOT
ATOM      1  N   UNL     1       5.048   3.614  19.281  0.00  0.00    +0.000 N 
ATOM      2  C   UNL     1       3.698   3.713  19.634  0.00  0.00    +0.000 A 
ATOM      3  N   UNL     1       3.123   2.599  20.115  0.00  0.00    +0.000 NA
ATOM      4  C   UNL     1       1.847   2.699  20.529  0.00  0.00    +0.000 A 
ATOM      5  C   UNL     1       1.156   3.881  20.560  0.00  0.00    +0.000 A 
ATOM      6  C   UNL     1       1.848   4.975  20.111  0.00  0.00    +0.000 A 
ATOM      7  N   UNL     1       3.089   4.910  19.615  0.00  0.00    +0.000 NA
ATOM      8  H   UNL     1       5.540   3.351  20.121  0.00  0.00    +0.000 HD
ENDROOT
BRANCH   1  13
ATOM      9  C   UNL     1       6.610   4.990  16.160  0.00  0.00    +0.000 A 
ATOM     10  C   UNL     1       7.365   6.029  16.736  0.00  0.00    +0.000 A 
ATOM     11  C   UNL     1       7.354   6.265  18.111  0.00  0.00    +0.000 A 
ATOM     12  C   UNL     1       6.576   5.464  18.946  0.00  0.00    +0.000 A 
ATOM     13  C   UNL     1       5.775   4.451  18.415  0.00  0.00    +0.000 A 
ATOM     14  C   UNL     1       5.803   4.224  17.026  0.00  0.00    +0.000 A 
BRANCH   9  18
ATOM     15  C   UNL     1       6.927   4.170  11.934  0.00  0.00    +0.000 A 
ATOM     16  C   UNL     1       7.761   5.106  12.530  0.00  0.00    +0.000 A 
ATOM     17  C   UNL     1       7.661   5.356  13.902  0.00  0.00    +0.000 A 
ATOM     18  C   UNL     1       6.715   4.692  14.711  0.00  0.00    +0.000 A 
ATOM     19  C   UNL     1       5.892   3.740  14.081  0.00  0.00    +0.000 A 
ATOM     20  C   UNL     1       5.997   3.481  12.710  0.00  0.00    +0.000 A 
ENDBRANCH   9  18
ENDBRANCH   1  13
BRANCH   6  21
ATOM     21  O   UNL     1       1.207   6.206  20.142  0.00  0.00    +0.000 OA
BRANCH  21  22
ATOM     22  C   UNL     1       2.113   7.320  20.250  0.00  0.00    +0.000 C 
ATOM     23  C   UNL     1       1.563   8.302  21.294  0.00  0.00    +0.000 C 
ATOM     24  C   UNL     1       0.335   9.063  20.798  0.00  0.00    +0.000 C 
ATOM     25  N   UNL     1       0.546   9.735  19.517  0.00  0.00    +0.000 NA
ATOM     26  C   UNL     1       1.043   8.818  18.492  0.00  0.00    +0.000 C 
ATOM     27  C   UNL     1       2.296   8.060  18.920  0.00  0.00    +0.000 C 
ATOM     28  H   UNL     1       1.199  10.507  19.633  0.00  0.00    +0.000 HD
ENDBRANCH  21  22
ENDBRANCH   6  21
TORSDOF 4
ENDMDL
MODEL 2
REMARK VINA RESULT:      -8.2      3.031      8.152
REMARK  Name = 
REMARK  4 active torsions:
REMARK  status: ('A' for Active; 'I' for Inactive)
REMARK    1  A    between atoms: C_4  and  C_5
REMARK    2  A    between atoms: C_9  and  N_10
REMARK    3  A    between atoms: C_15  and  O_16
REMARK    4  A    between atoms: O_16  and  C_17
REMARK                            x       y       z     vdW  Elec       q    Type
REMARK                         _______ _______ _______ _____ _____    ______ ____
ROOT
ATOM      1  N   UNL     1       2.623   8.877  17.820  0.00  0.00    +0.000 N 
ATOM      2  C   UNL     1       3.232   7.618  17.792  0.00  0.00    +0.000 A 
ATOM      3  N   UNL     1       4.079   7.387  16.777  0.00  0.00    +0.000 NA
ATOM      4  C   UNL     1       4.730   6.209  16.778  0.00  0.00    +0.000 A 
ATOM      5  C   UNL     1       4.632   5.296  17.795  0.00  0.00    +0.000 A 
ATOM      6  C   UNL     1       3.794   5.650  18.819  0.00  0.00    +0.000 A 
ATOM      7  N   UNL     1       3.066   6.772  18.822  0.00  0.00    +0.000 NA
ATOM      8  H   UNL     1       3.371   9.550  17.883  0.00  0.00    +0.000 HD
ENDROOT
BRANCH   1  13
ATOM      9  C   UNL     1      -0.892  10.032  18.444  0.00  0.00    +0.000 A 
ATOM     10  C   UNL     1      -0.837  10.146  19.845  0.00  0.00    +0.000 A 
ATOM     11  C   UNL     1       0.326   9.848  20.557  0.00  0.00    +0.000 A 
ATOM     12  C   UNL     1       1.465   9.420  19.878  0.00  0.00    +0.000 A 
ATOM     13  C   UNL     1       1.444   9.247  18.493  0.00  0.00    +0.000 A 
ATOM     14  C   UNL     1       0.265   9.558  17.791  0.00  0.00    +0.000 A 
BRANCH   9  18
ATOM     15  C   UNL     1      -4.443  11.248  16.313  0.00  0.00    +0.000 A 
ATOM     16  C   UNL     1      -4.241  11.653  17.627  0.00  0.00    +0.000 A 
ATOM     17  C   UNL     1      -3.081  11.265  18.304  0.00  0.00    +0.000 A 
ATOM     18  C   UNL     1      -2.103  10.451  17.698  0.00  0.00    +0.000 A 
ATOM     19  C   UNL     1      -2.330  10.066  16.362  0.00  0.00    +0.000 A 
ATOM     20  C   UNL     1      -3.485  10.461  15.678  0.00  0.00    +0.000 A 
ENDBRANCH   9  18
ENDBRANCH   1  13
BRANCH   6  21
ATOM     21  O   UNL     1       3.673   4.774  19.890  0.00  0.00    +0.000 OA
BRANCH  21  22
ATOM     22  C   UNL     1       3.243   3.455  19.506  0.00  0.00    +0.000 C 
ATOM     23  C   UNL     1       1.790   3.535  19.016  0.00  0.00    +0.000 C 
ATOM     24  C   UNL     1       0.797   3.769  20.153  0.00  0.00    +0.000 C 
ATOM     25  N   UNL     1       0.923   2.803  21.243  0.00  0.00    +0.000 NA
ATOM     26  C   UNL     1       2.292   2.725  21.751  0.00  0.00    +0.000 C 
ATOM     27  C   UNL     1       3.323   2.451  20.660  0.00  0.00    +0.000 C 
ATOM     28  H   UNL     1       0.620   1.884  20.928  0.00  0.00    +0.000 HD
ENDBRANCH  21  22
ENDBRANCH   6  21
TORSDOF 4
ENDMDL
MODEL 3
REMARK VINA RESULT:      -8.1      2.169      8.267
REMARK  Name = 
REMARK  4 active torsions:
REMARK  status: ('A' for Active; 'I' for Inactive)
REMARK    1  A    between atoms: C_4  and  C_5
REMARK    2  A    between atoms: C_9  and  N_10
REMARK    3  A    between atoms: C_15  and  O_16
REMARK    4  A    between atoms: O_16  and  C_17
REMARK                            x       y       z     vdW  Elec       q    Type
REMARK                         _______ _______ _______ _____ _____    ______ ____
ROOT
ATOM      1  N   UNL     1       1.689   5.538  20.638  0.00  0.00    +0.000 N 
ATOM      2  C   UNL     1       2.603   4.542  20.282  0.00  0.00    +0.000 A 
ATOM      3  N   UNL     1       2.688   3.486  21.106  0.00  0.00    +0.000 NA
ATOM      4  C   UNL     1       3.508   2.485  20.736  0.00  0.00    +0.000 A 
ATOM      5  C   UNL     1       4.175   2.461  19.540  0.00  0.00    +0.000 A 
ATOM      6  C   UNL     1       3.975   3.553  18.737  0.00  0.00    +0.000 A 
ATOM      7  N   UNL     1       3.233   4.607  19.097  0.00  0.00    +0.000 NA
ATOM      8  H   UNL     1       0.784   5.094  20.664  0.00  0.00    +0.000 HD
ENDROOT
BRANCH   1  13
ATOM      9  C   UNL     1       0.955   9.216  20.539  0.00  0.00    +0.000 A 
ATOM     10  C   UNL     1       1.495   9.511  19.273  0.00  0.00    +0.000 A 
ATOM     11  C   UNL     1       2.084   8.523  18.482  0.00  0.00    +0.000 A 
ATOM     12  C   UNL     1       2.151   7.211  18.947  0.00  0.00    +0.000 A 
ATOM     13  C   UNL     1       1.670   6.880  20.215  0.00  0.00    +0.000 A 
ATOM     14  C   UNL     1       1.074   7.888  20.996  0.00  0.00    +0.000 A 
BRANCH   9  18
ATOM     15  C   UNL     1      -1.153  12.217  22.816  0.00  0.00    +0.000 A 
ATOM     16  C   UNL     1      -1.201  10.883  23.201  0.00  0.00    +0.000 A 
ATOM     17  C   UNL     1      -0.504   9.920  22.465  0.00  0.00    +0.000 A 
ATOM     18  C   UNL     1       0.243  10.258  21.318  0.00  0.00    +0.000 A 
ATOM     19  C   UNL     1       0.282  11.619  20.959  0.00  0.00    +0.000 A 
ATOM     20  C   UNL     1      -0.407  12.586  21.699  0.00  0.00    +0.000 A 
ENDBRANCH   9  18
ENDBRANCH   1  13
BRANCH   6  21
ATOM     21  O   UNL     1       4.606   3.573  17.501  0.00  0.00    +0.000 OA
BRANCH  21  22
ATOM     22  C   UNL     1       5.003   4.893  17.083  0.00  0.00    +0.000 C 
ATOM     23  C   UNL     1       5.263   4.872  15.570  0.00  0.00    +0.000 C 
ATOM     24  C   UNL     1       6.546   4.128  15.202  0.00  0.00    +0.000 C 
ATOM     25  N   UNL     1       7.722   4.609  15.923  0.00  0.00    +0.000 NA
ATOM     26  C   UNL     1       7.516   4.614  17.370  0.00  0.00    +0.000 C 
ATOM     27  C   UNL     1       6.268   5.380  17.797  0.00  0.00    +0.000 C 
ATOM     28  H   UNL     1       7.964   5.547  15.607  0.00  0.00    +0.000 HD
ENDBRANCH  21  22
ENDBRANCH   6  21
TORSDOF 4
ENDMDL
MODEL 4
REMARK VINA RESULT:      -8.0      2.956      5.668
REMARK  Name = 
REMARK  4 active torsions:
REMARK  status: ('A' for Active; 'I' for Inactive)
REMARK    1  A    between atoms: C_4  and  C_5
REMARK    2  A    between atoms: C_9  and  N_10
REMARK    3  A    between atoms: C_15  and  O_16
REMARK    4  A    between atoms: O_16  and  C_17
REMARK                            x       y       z     vdW  Elec       q    Type
REMARK                         _______ _______ _______ _____ _____    ______ ____
ROOT
ATOM      1  N   UNL     1       1.854   8.148  21.116  0.00  0.00    +0.000 N 
ATOM      2  C   UNL     1       0.912   9.151  20.871  0.00  0.00    +0.000 A 
ATOM      3  N   UNL     1       0.684  10.014  21.873  0.00  0.00    +0.000 NA
ATOM      4  C   UNL     1      -0.165  11.029  21.627  0.00  0.00    +0.000 A 
ATOM      5  C   UNL     1      -0.723  11.262  20.398  0.00  0.00    +0.000 A 
ATOM      6  C   UNL     1      -0.379  10.365  19.421  0.00  0.00    +0.000 A 
ATOM      7  N   UNL     1       0.395   9.296  19.639  0.00  0.00    +0.000 NA
ATOM      8  H   UNL     1       2.722   8.621  21.319  0.00  0.00    +0.000 HD
ENDROOT
BRANCH   1  13
ATOM      9  C   UNL     1       3.006   5.577  18.638  0.00  0.00    +0.000 A 
ATOM     10  C   UNL     1       2.150   4.522  19.007  0.00  0.00    +0.000 A 
ATOM     11  C   UNL     1       1.225   4.660  20.043  0.00  0.00    +0.000 A 
ATOM     12  C   UNL     1       1.140   5.863  20.742  0.00  0.00    +0.000 A 
ATOM     13  C   UNL     1       2.000   6.921  20.442  0.00  0.00    +0.000 A 
ATOM     14  C   UNL     1       2.922   6.766  19.390  0.00  0.00    +0.000 A 
BRANCH   9  18
ATOM     15  C   UNL     1       5.614   5.231  15.216  0.00  0.00    +0.000 A 
ATOM     16  C   UNL     1       5.277   6.482  15.717  0.00  0.00    +0.000 A 
ATOM     17  C   UNL     1       4.443   6.584  16.834  0.00  0.00    +0.000 A 
ATOM     18  C   UNL     1       3.909   5.444  17.469  0.00  0.00    +0.000 A 
ATOM     19  C   UNL     1       4.277   4.190  16.946  0.00  0.00    +0.000 A 
ATOM     20  C   UNL     1       5.120   4.085  15.835  0.00  0.00    +0.000 A 
ENDBRANCH   9  18
ENDBRANCH   1  13
BRANCH   6  21
ATOM     21  O   UNL     1      -0.895  10.564  18.147  0.00  0.00    +0.000 OA
BRANCH  21  22
ATOM     22  C   UNL     1      -2.079   9.789  17.881  0.00  0.00    +0.000 C 
ATOM     23  C   UNL     1      -2.255   9.665  16.361  0.00  0.00    +0.000 C 
ATOM     24  C   UNL     1      -2.697  10.974  15.710  0.00  0.00    +0.000 C 
ATOM     25  N   UNL     1      -3.891  11.553  16.323  0.00  0.00    +0.000 NA
ATOM     26  C   UNL     1      -3.744  11.711  17.769  0.00  0.00    +0.000 C 
ATOM     27  C   UNL     1      -3.341  10.421  18.477  0.00  0.00    +0.000 C 
ATOM     28  H   UNL     1      -4.702  10.971  16.122  0.00  0.00    +0.000 HD
ENDBRANCH  21  22
ENDBRANCH   6  21
TORSDOF 4
ENDMDL
MODEL 5
REMARK VINA RESULT:      -8.0      2.196      8.120
REMARK  Name = 
REMARK  4 active torsions:
REMARK  status: ('A' for Active; 'I' for Inactive)
REMARK    1  A    between atoms: C_4  and  C_5
REMARK    2  A    between atoms: C_9  and  N_10
REMARK    3  A    between atoms: C_15  and  O_16
REMARK    4  A    between atoms: O_16  and  C_17
REMARK                            x       y       z     vdW  Elec       q    Type
REMARK                         _______ _______ _______ _____ _____    ______ ____
ROOT
ATOM      1  N   UNL     1       1.765   5.502  20.434  0.00  0.00    +0.000 N 
ATOM      2  C   UNL     1       2.770   4.563  20.180  0.00  0.00    +0.000 A 
ATOM      3  N   UNL     1       2.791   3.481  20.973  0.00  0.00    +0.000 NA
ATOM      4  C   UNL     1       3.705   2.533  20.692  0.00  0.00    +0.000 A 
ATOM      5  C   UNL     1       4.535   2.587  19.604  0.00  0.00    +0.000 A 
ATOM      6  C   UNL     1       4.394   3.699  18.816  0.00  0.00    +0.000 A 
ATOM      7  N   UNL     1       3.556   4.703  19.100  0.00  0.00    +0.000 NA
ATOM      8  H   UNL     1       0.889   5.015  20.316  0.00  0.00    +0.000 HD
ENDROOT
BRANCH   1  13
ATOM      9  C   UNL     1       1.004   9.176  20.456  0.00  0.00    +0.000 A 
ATOM     10  C   UNL     1       1.546   9.516  19.202  0.00  0.00    +0.000 A 
ATOM     11  C   UNL     1       2.144   8.560  18.381  0.00  0.00    +0.000 A 
ATOM     12  C   UNL     1       2.220   7.233  18.801  0.00  0.00    +0.000 A 
ATOM     13  C   UNL     1       1.737   6.857  20.056  0.00  0.00    +0.000 A 
ATOM     14  C   UNL     1       1.132   7.833  20.869  0.00  0.00    +0.000 A 
BRANCH   9  18
ATOM     15  C   UNL     1      -1.061  12.146  22.810  0.00  0.00    +0.000 A 
ATOM     16  C   UNL     1      -0.322  12.525  21.696  0.00  0.00    +0.000 A 
ATOM     17  C   UNL     1       0.332  11.554  20.932  0.00  0.00    +0.000 A 
ATOM     18  C   UNL     1       0.282  10.186  21.267  0.00  0.00    +0.000 A 
ATOM     19  C   UNL     1      -0.484   9.831  22.394  0.00  0.00    +0.000 A 
ATOM     20  C   UNL     1      -1.148  10.800  23.155  0.00  0.00    +0.000 A 
ENDBRANCH   9  18
ENDBRANCH   1  13
BRANCH   6  21
ATOM     21  O   UNL     1       5.192   3.797  17.683  0.00  0.00    +0.000 OA
BRANCH  21  22
ATOM     22  C   UNL     1       4.918   4.967  16.890  0.00  0.00    +0.000 C 
ATOM     23  C   UNL     1       5.256   4.658  15.425  0.00  0.00    +0.000 C 
ATOM     24  C   UNL     1       6.760   4.567  15.173  0.00  0.00    +0.000 C 
ATOM     25  N   UNL     1       7.498   5.739  15.638  0.00  0.00    +0.000 NA
ATOM     26  C   UNL     1       7.220   6.043  17.041  0.00  0.00    +0.000 C 
ATOM     27  C   UNL     1       5.730   6.186  17.341  0.00  0.00    +0.000 C 
ATOM     28  H   UNL     1       7.270   6.546  15.060  0.00  0.00    +0.000 HD
ENDBRANCH  21  22
ENDBRANCH   6  21
TORSDOF 4
ENDMDL
MODEL 6
REMARK VINA RESULT:      -7.9      3.192      8.356
REMARK  Name = 
REMARK  4 active torsions:
REMARK  status: ('A' for Active; 'I' for Inactive)
REMARK    1  A    between atoms: C_4  and  C_5
REMARK    2  A    between atoms: C_9  and  N_10
REMARK    3  A    between atoms: C_15  and  O_16
REMARK    4  A    between atoms: O_16  and  C_17
REMARK                            x       y       z     vdW  Elec       q    Type
REMARK                         _______ _______ _______ _____ _____    ______ ____
ROOT
ATOM      1  N   UNL     1       2.441   9.351  18.193  0.00  0.00    +0.000 N 
ATOM      2  C   UNL     1       2.939   8.052  18.049  0.00  0.00    +0.000 A 
ATOM      3  N   UNL     1       3.897   7.878  17.125  0.00  0.00    +0.000 NA
ATOM      4  C   UNL     1       4.438   6.650  17.027  0.00  0.00    +0.000 A 
ATOM      5  C   UNL     1       4.123   5.619  17.871  0.00  0.00    +0.000 A 
ATOM      6  C   UNL     1       3.183   5.911  18.825  0.00  0.00    +0.000 A 
ATOM      7  N   UNL     1       2.560   7.092  18.909  0.00  0.00    +0.000 NA
ATOM      8  H   UNL     1       3.228   9.927  18.452  0.00  0.00    +0.000 HD
ENDROOT
BRANCH   1  13
ATOM      9  C   UNL     1      -1.141  10.421  18.512  0.00  0.00    +0.000 A 
ATOM     10  C   UNL     1      -1.163  10.693  19.893  0.00  0.00    +0.000 A 
ATOM     11  C   UNL     1      -0.030  10.526  20.689  0.00  0.00    +0.000 A 
ATOM     12  C   UNL     1       1.158  10.072  20.118  0.00  0.00    +0.000 A 
ATOM     13  C   UNL     1       1.216   9.745  18.762  0.00  0.00    +0.000 A 
ATOM     14  C   UNL     1       0.065   9.926  17.973  0.00  0.00    +0.000 A 
BRANCH   9  18
ATOM     15  C   UNL     1      -4.560  11.249  16.012  0.00  0.00    +0.000 A 
ATOM     16  C   UNL     1      -3.452  10.595  15.489  0.00  0.00    +0.000 A 
ATOM     17  C   UNL     1      -2.354  10.319  16.309  0.00  0.00    +0.000 A 
ATOM     18  C   UNL     1      -2.326  10.703  17.666  0.00  0.00    +0.000 A 
ATOM     19  C   UNL     1      -3.468  11.354  18.170  0.00  0.00    +0.000 A 
ATOM     20  C   UNL     1      -4.572  11.623  17.354  0.00  0.00    +0.000 A 
ENDBRANCH   9  18
ENDBRANCH   1  13
BRANCH   6  21
ATOM     21  O   UNL     1       2.841   4.912  19.726  0.00  0.00    +0.000 OA
BRANCH  21  22
ATOM     22  C   UNL     1       1.510   4.398  19.532  0.00  0.00    +0.000 C 
ATOM     23  C   UNL     1       1.231   3.337  20.606  0.00  0.00    +0.000 C 
ATOM     24  C   UNL     1       2.005   2.041  20.370  0.00  0.00    +0.000 C 
ATOM     25  N   UNL     1       1.813   1.486  19.032  0.00  0.00    +0.000 NA
ATOM     26  C   UNL     1       2.099   2.465  17.984  0.00  0.00    +0.000 C 
ATOM     27  C   UNL     1       1.319   3.767  18.149  0.00  0.00    +0.000 C 
ATOM     28  H   UNL     1       0.859   1.144  18.931  0.00  0.00    +0.000 HD
ENDBRANCH  21  22
ENDBRANCH   6  21
TORSDOF 4
ENDMDL
MODEL 7
REMARK VINA RESULT:      -7.8      4.719      7.366
REMARK  Name = 
REMARK  4 active torsions:
REMARK  status: ('A' for Active; 'I' for Inactive)
REMARK    1  A    between atoms: C_4  and  C_5
REMARK    2  A    between atoms: C_9  and  N_10
REMARK    3  A    between atoms: C_15  and  O_16
REMARK    4  A    between atoms: O_16  and  C_17
REMARK                            x       y       z     vdW  Elec       q    Type
REMARK                         _______ _______ _______ _____ _____    ______ ____
ROOT
ATOM      1  N   UNL     1       1.459   9.724  20.645  0.00  0.00    +0.000 N 
ATOM      2  C   UNL     1       0.281  10.478  20.678  0.00  0.00    +0.000 A 
ATOM      3  N   UNL     1       0.045  11.167  21.805  0.00  0.00    +0.000 NA
ATOM      4  C   UNL     1      -1.045  11.956  21.824  0.00  0.00    +0.000 A 
ATOM      5  C   UNL     1      -1.855  12.147  20.735  0.00  0.00    +0.000 A 
ATOM      6  C   UNL     1      -1.495  11.451  19.611  0.00  0.00    +0.000 A 
ATOM      7  N   UNL     1      -0.468  10.595  19.570  0.00  0.00    +0.000 NA
ATOM      8  H   UNL     1       2.216  10.379  20.770  0.00  0.00    +0.000 HD
ENDROOT
BRANCH   1  13
ATOM      9  C   UNL     1       2.208   6.231  19.497  0.00  0.00    +0.000 A 
ATOM     10  C   UNL     1       2.529   6.509  18.155  0.00  0.00    +0.000 A 
ATOM     11  C   UNL     1       2.495   7.809  17.650  0.00  0.00    +0.000 A 
ATOM     12  C   UNL     1       2.131   8.867  18.481  0.00  0.00    +0.000 A 
ATOM     13  C   UNL     1       1.760   8.635  19.806  0.00  0.00    +0.000 A 
ATOM     14  C   UNL     1       1.806   7.318  20.301  0.00  0.00    +0.000 A 
BRANCH   9  18
ATOM     15  C   UNL     1       2.641   2.222  21.037  0.00  0.00    +0.000 A 
ATOM     16  C   UNL     1       3.635   2.778  20.242  0.00  0.00    +0.000 A 
ATOM     17  C   UNL     1       3.492   4.082  19.758  0.00  0.00    +0.000 A 
ATOM     18  C   UNL     1       2.349   4.859  20.041  0.00  0.00    +0.000 A 
ATOM     19  C   UNL     1       1.365   4.273  20.859  0.00  0.00    +0.000 A 
ATOM     20  C   UNL     1       1.509   2.971  21.352  0.00  0.00    +0.000 A 
ENDBRANCH   9  18
ENDBRANCH   1  13
BRANCH   6  21
ATOM     21  O   UNL     1      -2.264  11.625  18.467  0.00  0.00    +0.000 OA
BRANCH  21  22
ATOM     22  C   UNL     1      -2.994  10.444  18.084  0.00  0.00    +0.000 C 
ATOM     23  C   UNL     1      -2.454   9.948  16.735  0.00  0.00    +0.000 C 
ATOM     24  C   UNL     1      -2.863  10.848  15.570  0.00  0.00    +0.000 C 
ATOM     25  N   UNL     1      -4.303  11.084  15.496  0.00  0.00    +0.000 NA
ATOM     26  C   UNL     1      -4.844  11.585  16.759  0.00  0.00    +0.000 C 
ATOM     27  C   UNL     1      -4.499  10.699  17.954  0.00  0.00    +0.000 C 
ATOM     28  H   UNL     1      -4.783  10.225  15.234  0.00  0.00    +0.000 HD
ENDBRANCH  21  22
ENDBRANCH   6  21
TORSDOF 4
ENDMDL
MODEL 8
REMARK VINA RESULT:      -7.7      1.104      1.711
REMARK  Name = 
REMARK  4 active torsions:
REMARK  status: ('A' for Active; 'I' for Inactive)
REMARK    1  A    between atoms: C_4  and  C_5
REMARK    2  A    between atoms: C_9  and  N_10
REMARK    3  A    between atoms: C_15  and  O_16
REMARK    4  A    between atoms: O_16  and  C_17
REMARK                            x       y       z     vdW  Elec       q    Type
REMARK                         _______ _______ _______ _____ _____    ______ ____
ROOT
ATOM      1  N   UNL     1       4.643   4.489  19.169  0.00  0.00    +0.000 N 
ATOM      2  C   UNL     1       3.422   5.027  19.585  0.00  0.00    +0.000 A 
ATOM      3  N   UNL     1       2.536   4.165  20.108  0.00  0.00    +0.000 NA
ATOM      4  C   UNL     1       1.386   4.679  20.581  0.00  0.00    +0.000 A 
ATOM      5  C   UNL     1       1.127   6.023  20.631  0.00  0.00    +0.000 A 
ATOM      6  C   UNL     1       2.118   6.828  20.135  0.00  0.00    +0.000 A 
ATOM      7  N   UNL     1       3.242   6.359  19.581  0.00  0.00    +0.000 NA
ATOM      8  H   UNL     1       5.062   4.076  19.988  0.00  0.00    +0.000 HD
ENDROOT
BRANCH   1  13
ATOM      9  C   UNL     1       6.530   5.154  15.995  0.00  0.00    +0.000 A 
ATOM     10  C   UNL     1       7.508   6.029  16.503  0.00  0.00    +0.000 A 
ATOM     11  C   UNL     1       7.538   6.387  17.851  0.00  0.00    +0.000 A 
ATOM     12  C   UNL     1       6.579   5.878  18.726  0.00  0.00    +0.000 A 
ATOM     13  C   UNL     1       5.562   5.043  18.258  0.00  0.00    +0.000 A 
ATOM     14  C   UNL     1       5.551   4.688  16.897  0.00  0.00    +0.000 A 
BRANCH   9  18
ATOM     15  C   UNL     1       6.682   3.895  11.869  0.00  0.00    +0.000 A 
ATOM     16  C   UNL     1       7.626   4.784  12.365  0.00  0.00    +0.000 A 
ATOM     17  C   UNL     1       7.577   5.176  13.706  0.00  0.00    +0.000 A 
ATOM     18  C   UNL     1       6.577   4.706  14.582  0.00  0.00    +0.000 A 
ATOM     19  C   UNL     1       5.641   3.796  14.053  0.00  0.00    +0.000 A 
ATOM     20  C   UNL     1       5.694   3.395  12.714  0.00  0.00    +0.000 A 
ENDBRANCH   9  18
ENDBRANCH   1  13
BRANCH   6  21
ATOM     21  O   UNL     1       1.922   8.202  20.182  0.00  0.00    +0.000 OA
BRANCH  21  22
ATOM     22  C   UNL     1       0.827   8.653  19.362  0.00  0.00    +0.000 C 
ATOM     23  C   UNL     1       1.366   8.993  17.965  0.00  0.00    +0.000 C 
ATOM     24  C   UNL     1       2.196  10.276  17.950  0.00  0.00    +0.000 C 
ATOM     25  N   UNL     1       1.501  11.423  18.531  0.00  0.00    +0.000 NA
ATOM     26  C   UNL     1       1.000  11.139  19.875  0.00  0.00    +0.000 C 
ATOM     27  C   UNL     1       0.130   9.888  19.940  0.00  0.00    +0.000 C 
ATOM     28  H   UNL     1       0.730  11.703  17.929  0.00  0.00    +0.000 HD
ENDBRANCH  21  22
ENDBRANCH   6  21
TORSDOF 4
ENDMDL
MODEL 9
REMARK VINA RESULT:      -7.7      2.232      8.105
REMARK  Name = 
REMARK  4 active torsions:
REMARK  status: ('A' for Active; 'I' for Inactive)
REMARK    1  A    between atoms: C_4  and  C_5
REMARK    2  A    between atoms: C_9  and  N_10
REMARK    3  A    between atoms: C_15  and  O_16
REMARK    4  A    between atoms: O_16  and  C_17
REMARK                            x       y       z     vdW  Elec       q    Type
REMARK                         _______ _______ _______ _____ _____    ______ ____
ROOT
ATOM      1  N   UNL     1       1.865   5.612  20.667  0.00  0.00    +0.000 N 
ATOM      2  C   UNL     1       2.728   4.617  20.198  0.00  0.00    +0.000 A 
ATOM      3  N   UNL     1       2.937   3.574  21.017  0.00  0.00    +0.000 NA
ATOM      4  C   UNL     1       3.706   2.572  20.549  0.00  0.00    +0.000 A 
ATOM      5  C   UNL     1       4.198   2.535  19.272  0.00  0.00    +0.000 A 
ATOM      6  C   UNL     1       3.877   3.614  18.490  0.00  0.00    +0.000 A 
ATOM      7  N   UNL     1       3.185   4.668  18.936  0.00  0.00    +0.000 NA
ATOM      8  H   UNL     1       0.976   5.162  20.826  0.00  0.00    +0.000 HD
ENDROOT
BRANCH   1  13
ATOM      9  C   UNL     1       0.968   9.254  20.556  0.00  0.00    +0.000 A 
ATOM     10  C   UNL     1       1.458   9.558  19.271  0.00  0.00    +0.000 A 
ATOM     11  C   UNL     1       2.065   8.589  18.472  0.00  0.00    +0.000 A 
ATOM     12  C   UNL     1       2.203   7.285  18.947  0.00  0.00    +0.000 A 
ATOM     13  C   UNL     1       1.775   6.948  20.232  0.00  0.00    +0.000 A 
ATOM     14  C   UNL     1       1.159   7.936  21.021  0.00  0.00    +0.000 A 
BRANCH   9  18
ATOM     15  C   UNL     1      -1.202  12.184  22.865  0.00  0.00    +0.000 A 
ATOM     16  C   UNL     1      -1.230  10.844  23.230  0.00  0.00    +0.000 A 
ATOM     17  C   UNL     1      -0.513   9.904  22.484  0.00  0.00    +0.000 A 
ATOM     18  C   UNL     1       0.235  10.272  21.346  0.00  0.00    +0.000 A 
ATOM     19  C   UNL     1       0.254  11.638  21.008  0.00  0.00    +0.000 A 
ATOM     20  C   UNL     1      -0.454  12.583  21.759  0.00  0.00    +0.000 A 
ENDBRANCH   9  18
ENDBRANCH   1  13
BRANCH   6  21
ATOM     21  O   UNL     1       4.328   3.620  17.177  0.00  0.00    +0.000 OA
BRANCH  21  22
ATOM     22  C   UNL     1       5.694   4.057  17.042  0.00  0.00    +0.000 C 
ATOM     23  C   UNL     1       5.777   5.539  17.436  0.00  0.00    +0.000 C 
ATOM     24  C   UNL     1       5.146   6.462  16.395  0.00  0.00    +0.000 C 
ATOM     25  N   UNL     1       5.666   6.255  15.045  0.00  0.00    +0.000 NA
ATOM     26  C   UNL     1       5.574   4.857  14.629  0.00  0.00    +0.000 C 
ATOM     27  C   UNL     1       6.226   3.892  15.615  0.00  0.00    +0.000 C 
ATOM     28  H   UNL     1       6.635   6.566  14.995  0.00  0.00    +0.000 HD
ENDBRANCH  21  22
ENDBRANCH   6  21
TORSDOF 4
ENDMDL
