MODEL 1
REMARK VINA RESULT:      -6.6      0.000      0.000
REMARK  Name = 
REMARK  9 active torsions:
REMARK  status: ('A' for Active; 'I' for Inactive)
REMARK    1  A    between atoms: N_1  and  C_2
REMARK    2  A    between atoms: N_10  and  C_11
REMARK    3  A    between atoms: C_11  and  C_12
REMARK    4  A    between atoms: C_12  and  C_13
REMARK    5  A    between atoms: C_12  and  O_15
REMARK    6  A    between atoms: C_13  and  O_14
REMARK    7  A    between atoms: O_15  and  P_16
REMARK    8  A    between atoms: P_16  and  O_18
REMARK    9  A    between atoms: P_16  and  O_19
REMARK                            x       y       z     vdW  Elec       q    Type
REMARK                         _______ _______ _______ _____ _____    ______ ____
ROOT
ATOM      1  C   UNL     1       6.555   6.270  16.809  0.00  0.00    +0.000 A 
ATOM      2  N   UNL     1       7.274   5.359  16.118  0.00  0.00    +0.000 NA
ATOM      3  C   UNL     1       6.688   4.180  15.808  0.00  0.00    +0.000 A 
ATOM      4  N   UNL     1       5.438   3.757  16.110  0.00  0.00    +0.000 NA
ATOM      5  C   UNL     1       4.763   4.706  16.780  0.00  0.00    +0.000 A 
ATOM      6  C   UNL     1       5.223   5.964  17.139  0.00  0.00    +0.000 A 
ATOM      7  N   UNL     1       4.234   6.680  17.785  0.00  0.00    +0.000 NA
ATOM      8  C   UNL     1       3.210   5.857  17.852  0.00  0.00    +0.000 A 
ATOM      9  N   UNL     1       3.488   4.641  17.278  0.00  0.00    +0.000 N 
ENDROOT
BRANCH   1  10
ATOM     10  N   UNL     1       7.178   7.459  17.163  0.00  0.00    +0.000 N 
ATOM     11  H   UNL     1       7.047   8.195  16.483  0.00  0.00    +0.000 HD
ATOM     12  H   UNL     1       7.099   7.690  18.146  0.00  0.00    +0.000 HD
ENDBRANCH   1  10
BRANCH   9  13
ATOM     13  C   UNL     1       2.636   3.468  17.334  0.00  0.00    +0.000 C 
BRANCH  13  14
ATOM     14  C   UNL     1       2.713   2.680  18.650  0.00  0.00    +0.000 C 
BRANCH  14  15
ATOM     15  C   UNL     1       3.872   1.668  18.603  0.00  0.00    +0.000 C 
BRANCH  15  16
ATOM     16  O   UNL     1       4.892   2.037  19.533  0.00  0.00    +0.000 OA
ATOM     17  H   UNL     1       5.739   1.795  19.113  0.00  0.00    +0.000 HD
ENDBRANCH  15  16
ENDBRANCH  14  15
BRANCH  14  18
ATOM     18  O   UNL     1       2.982   3.480  19.810  0.00  0.00    +0.000 OA
BRANCH  18  19
ATOM     19  P   UNL     1       1.891   3.928  20.878  0.00  0.00    +0.000 P 
ATOM     20  O   UNL     1       1.749   5.396  21.076  0.00  0.00    +0.000 OA
BRANCH  19  21
ATOM     21  O   UNL     1       0.522   3.289  20.373  0.00  0.00    +0.000 OA
ATOM     22  H   UNL     1       0.484   2.349  20.637  0.00  0.00    +0.000 HD
ENDBRANCH  19  21
BRANCH  19  23
ATOM     23  O   UNL     1       2.177   3.155  22.241  0.00  0.00    +0.000 OA
ATOM     24  H   UNL     1       3.122   3.236  22.473  0.00  0.00    +0.000 HD
ENDBRANCH  19  23
ENDBRANCH  18  19
ENDBRANCH  14  18
ENDBRANCH  13  14
ENDBRANCH   9  13
TORSDOF 9
ENDMDL
MODEL 2
REMARK VINA RESULT:      -6.5      1.594      2.357
REMARK  Name = 
REMARK  9 active torsions:
REMARK  status: ('A' for Active; 'I' for Inactive)
REMARK    1  A    between atoms: N_1  and  C_2
REMARK    2  A    between atoms: N_10  and  C_11
REMARK    3  A    between atoms: C_11  and  C_12
REMARK    4  A    between atoms: C_12  and  C_13
REMARK    5  A    between atoms: C_12  and  O_15
REMARK    6  A    between atoms: C_13  and  O_14
REMARK    7  A    between atoms: O_15  and  P_16
REMARK    8  A    between atoms: P_16  and  O_18
REMARK    9  A    between atoms: P_16  and  O_19
REMARK                            x       y       z     vdW  Elec       q    Type
REMARK                         _______ _______ _______ _____ _____    ______ ____
ROOT
ATOM      1  C   UNL     1       7.449   7.122  17.753  0.00  0.00    +0.000 A 
ATOM      2  N   UNL     1       8.118   6.741  18.863  0.00  0.00    +0.000 NA
ATOM      3  C   UNL     1       7.779   5.569  19.445  0.00  0.00    +0.000 A 
ATOM      4  N   UNL     1       6.821   4.689  19.071  0.00  0.00    +0.000 NA
ATOM      5  C   UNL     1       6.201   5.107  17.955  0.00  0.00    +0.000 A 
ATOM      6  C   UNL     1       6.461   6.265  17.237  0.00  0.00    +0.000 A 
ATOM      7  N   UNL     1       5.649   6.342  16.122  0.00  0.00    +0.000 NA
ATOM      8  C   UNL     1       4.885   5.274  16.186  0.00  0.00    +0.000 A 
ATOM      9  N   UNL     1       5.164   4.506  17.290  0.00  0.00    +0.000 N 
ENDROOT
BRANCH   1  10
ATOM     10  N   UNL     1       7.771   8.347  17.186  0.00  0.00    +0.000 N 
ATOM     11  H   UNL     1       6.965   8.854  16.848  0.00  0.00    +0.000 HD
ATOM     12  H   UNL     1       8.488   8.859  17.688  0.00  0.00    +0.000 HD
ENDBRANCH   1  10
BRANCH   9  13
ATOM     13  C   UNL     1       4.395   3.360  17.737  0.00  0.00    +0.000 C 
BRANCH  13  14
ATOM     14  C   UNL     1       3.121   3.708  18.522  0.00  0.00    +0.000 C 
BRANCH  14  15
ATOM     15  C   UNL     1       1.880   3.140  17.812  0.00  0.00    +0.000 C 
BRANCH  15  16
ATOM     16  O   UNL     1       1.635   1.798  18.236  0.00  0.00    +0.000 OA
ATOM     17  H   UNL     1       1.596   1.261  17.422  0.00  0.00    +0.000 HD
ENDBRANCH  15  16
ENDBRANCH  14  15
BRANCH  14  18
ATOM     18  O   UNL     1       3.065   3.151  19.844  0.00  0.00    +0.000 OA
BRANCH  18  19
ATOM     19  P   UNL     1       2.167   3.715  21.030  0.00  0.00    +0.000 P 
ATOM     20  O   UNL     1       2.375   3.072  22.356  0.00  0.00    +0.000 OA
BRANCH  19  21
ATOM     21  O   UNL     1       2.492   5.272  21.098  0.00  0.00    +0.000 OA
ATOM     22  H   UNL     1       2.346   5.597  22.008  0.00  0.00    +0.000 HD
ENDBRANCH  19  21
BRANCH  19  23
ATOM     23  O   UNL     1       0.643   3.676  20.567  0.00  0.00    +0.000 OA
ATOM     24  H   UNL     1       0.256   2.806  20.779  0.00  0.00    +0.000 HD
ENDBRANCH  19  23
ENDBRANCH  18  19
ENDBRANCH  14  18
ENDBRANCH  13  14
ENDBRANCH   9  13
TORSDOF 9
ENDMDL
MODEL 3
REMARK VINA RESULT:      -6.5      1.658      2.312
REMARK  Name = 
REMARK  9 active torsions:
REMARK  status: ('A' for Active; 'I' for Inactive)
REMARK    1  A    between atoms: N_1  and  C_2
REMARK    2  A    between atoms: N_10  and  C_11
REMARK    3  A    between atoms: C_11  and  C_12
REMARK    4  A    between atoms: C_12  and  C_13
REMARK    5  A    between atoms: C_12  and  O_15
REMARK    6  A    between atoms: C_13  and  O_14
REMARK    7  A    between atoms: O_15  and  P_16
REMARK    8  A    between atoms: P_16  and  O_18
REMARK    9  A    between atoms: P_16  and  O_19
REMARK                            x       y       z     vdW  Elec       q    Type
REMARK                         _______ _______ _______ _____ _____    ______ ____
ROOT
ATOM      1  C   UNL     1       7.558   7.257  17.767  0.00  0.00    +0.000 A 
ATOM      2  N   UNL     1       8.143   6.809  18.900  0.00  0.00    +0.000 NA
ATOM      3  C   UNL     1       7.679   5.665  19.452  0.00  0.00    +0.000 A 
ATOM      4  N   UNL     1       6.666   4.875  19.026  0.00  0.00    +0.000 NA
ATOM      5  C   UNL     1       6.132   5.356  17.890  0.00  0.00    +0.000 A 
ATOM      6  C   UNL     1       6.523   6.493  17.199  0.00  0.00    +0.000 A 
ATOM      7  N   UNL     1       5.770   6.651  16.051  0.00  0.00    +0.000 NA
ATOM      8  C   UNL     1       4.914   5.652  16.069  0.00  0.00    +0.000 A 
ATOM      9  N   UNL     1       5.078   4.853  17.174  0.00  0.00    +0.000 N 
ENDROOT
BRANCH   1  10
ATOM     10  N   UNL     1       8.009   8.454  17.231  0.00  0.00    +0.000 N 
ATOM     11  H   UNL     1       7.956   9.226  17.880  0.00  0.00    +0.000 HD
ATOM     12  H   UNL     1       8.838   8.363  16.655  0.00  0.00    +0.000 HD
ENDBRANCH   1  10
BRANCH   9  13
ATOM     13  C   UNL     1       4.194   3.774  17.573  0.00  0.00    +0.000 C 
BRANCH  13  14
ATOM     14  C   UNL     1       3.117   4.170  18.595  0.00  0.00    +0.000 C 
BRANCH  14  15
ATOM     15  C   UNL     1       1.772   4.417  17.890  0.00  0.00    +0.000 C 
BRANCH  15  16
ATOM     16  O   UNL     1       1.079   3.183  17.694  0.00  0.00    +0.000 OA
ATOM     17  H   UNL     1       1.553   2.520  18.231  0.00  0.00    +0.000 HD
ENDBRANCH  15  16
ENDBRANCH  14  15
BRANCH  14  18
ATOM     18  O   UNL     1       2.828   3.164  19.577  0.00  0.00    +0.000 OA
BRANCH  18  19
ATOM     19  P   UNL     1       2.140   3.439  20.985  0.00  0.00    +0.000 P 
ATOM     20  O   UNL     1       2.186   4.848  21.460  0.00  0.00    +0.000 OA
BRANCH  19  21
ATOM     21  O   UNL     1       0.635   2.944  20.819  0.00  0.00    +0.000 OA
ATOM     22  H   UNL     1       0.616   1.968  20.770  0.00  0.00    +0.000 HD
ENDBRANCH  19  21
BRANCH  19  23
ATOM     23  O   UNL     1       2.749   2.419  22.046  0.00  0.00    +0.000 OA
ATOM     24  H   UNL     1       3.032   1.602  21.593  0.00  0.00    +0.000 HD
ENDBRANCH  19  23
ENDBRANCH  18  19
ENDBRANCH  14  18
ENDBRANCH  13  14
ENDBRANCH   9  13
TORSDOF 9
ENDMDL
MODEL 4
REMARK VINA RESULT:      -6.4      3.706      5.584
REMARK  Name = 
REMARK  9 active torsions:
REMARK  status: ('A' for Active; 'I' for Inactive)
REMARK    1  A    between atoms: N_1  and  C_2
REMARK    2  A    between atoms: N_10  and  C_11
REMARK    3  A    between atoms: C_11  and  C_12
REMARK    4  A    between atoms: C_12  and  C_13
REMARK    5  A    between atoms: C_12  and  O_15
REMARK    6  A    between atoms: C_13  and  O_14
REMARK    7  A    between atoms: O_15  and  P_16
REMARK    8  A    between atoms: P_16  and  O_18
REMARK    9  A    between atoms: P_16  and  O_19
REMARK                            x       y       z     vdW  Elec       q    Type
REMARK                         _______ _______ _______ _____ _____    ______ ____
ROOT
ATOM      1  C   UNL     1       2.331   2.782  21.156  0.00  0.00    +0.000 A 
ATOM      2  N   UNL     1       3.397   2.062  21.568  0.00  0.00    +0.000 NA
ATOM      3  C   UNL     1       4.502   2.050  20.789  0.00  0.00    +0.000 A 
ATOM      4  N   UNL     1       4.702   2.668  19.602  0.00  0.00    +0.000 NA
ATOM      5  C   UNL     1       3.620   3.382  19.249  0.00  0.00    +0.000 A 
ATOM      6  C   UNL     1       2.435   3.512  19.959  0.00  0.00    +0.000 A 
ATOM      7  N   UNL     1       1.562   4.358  19.303  0.00  0.00    +0.000 NA
ATOM      8  C   UNL     1       2.190   4.702  18.200  0.00  0.00    +0.000 A 
ATOM      9  N   UNL     1       3.430   4.119  18.109  0.00  0.00    +0.000 N 
ENDROOT
BRANCH   1  10
ATOM     10  N   UNL     1       1.185   2.755  21.939  0.00  0.00    +0.000 N 
ATOM     11  H   UNL     1       0.334   2.853  21.402  0.00  0.00    +0.000 HD
ATOM     12  H   UNL     1       1.210   2.069  22.684  0.00  0.00    +0.000 HD
ENDBRANCH   1  10
BRANCH   9  13
ATOM     13  C   UNL     1       4.299   4.161  16.948  0.00  0.00    +0.000 C 
BRANCH  13  14
ATOM     14  C   UNL     1       5.391   5.240  17.001  0.00  0.00    +0.000 C 
BRANCH  14  15
ATOM     15  C   UNL     1       4.829   6.597  16.543  0.00  0.00    +0.000 C 
BRANCH  15  16
ATOM     16  O   UNL     1       5.267   6.894  15.216  0.00  0.00    +0.000 OA
ATOM     17  H   UNL     1       5.557   7.826  15.230  0.00  0.00    +0.000 HD
ENDBRANCH  15  16
ENDBRANCH  14  15
BRANCH  14  18
ATOM     18  O   UNL     1       5.917   5.494  18.312  0.00  0.00    +0.000 OA
BRANCH  18  19
ATOM     19  P   UNL     1       7.463   5.497  18.687  0.00  0.00    +0.000 P 
ATOM     20  O   UNL     1       8.287   4.445  18.031  0.00  0.00    +0.000 OA
BRANCH  19  21
ATOM     21  O   UNL     1       7.985   6.951  18.299  0.00  0.00    +0.000 OA
ATOM     22  H   UNL     1       7.895   7.083  17.335  0.00  0.00    +0.000 HD
ENDBRANCH  19  21
BRANCH  19  23
ATOM     23  O   UNL     1       7.593   5.470  20.274  0.00  0.00    +0.000 OA
ATOM     24  H   UNL     1       7.181   4.657  20.625  0.00  0.00    +0.000 HD
ENDBRANCH  19  23
ENDBRANCH  18  19
ENDBRANCH  14  18
ENDBRANCH  13  14
ENDBRANCH   9  13
TORSDOF 9
ENDMDL
MODEL 5
REMARK VINA RESULT:      -6.4      3.546      5.468
REMARK  Name = 
REMARK  9 active torsions:
REMARK  status: ('A' for Active; 'I' for Inactive)
REMARK    1  A    between atoms: N_1  and  C_2
REMARK    2  A    between atoms: N_10  and  C_11
REMARK    3  A    between atoms: C_11  and  C_12
REMARK    4  A    between atoms: C_12  and  C_13
REMARK    5  A    between atoms: C_12  and  O_15
REMARK    6  A    between atoms: C_13  and  O_14
REMARK    7  A    between atoms: O_15  and  P_16
REMARK    8  A    between atoms: P_16  and  O_18
REMARK    9  A    between atoms: P_16  and  O_19
REMARK                            x       y       z     vdW  Elec       q    Type
REMARK                         _______ _______ _______ _____ _____    ______ ____
ROOT
ATOM      1  C   UNL     1       1.651   2.960  20.114  0.00  0.00    +0.000 A 
ATOM      2  N   UNL     1       1.722   1.917  19.258  0.00  0.00    +0.000 NA
ATOM      3  C   UNL     1       2.380   2.090  18.089  0.00  0.00    +0.000 A 
ATOM      4  N   UNL     1       2.994   3.203  17.626  0.00  0.00    +0.000 NA
ATOM      5  C   UNL     1       2.909   4.202  18.521  0.00  0.00    +0.000 A 
ATOM      6  C   UNL     1       2.295   4.160  19.765  0.00  0.00    +0.000 A 
ATOM      7  N   UNL     1       2.442   5.365  20.423  0.00  0.00    +0.000 NA
ATOM      8  C   UNL     1       3.096   6.134  19.579  0.00  0.00    +0.000 A 
ATOM      9  N   UNL     1       3.382   5.482  18.404  0.00  0.00    +0.000 N 
ENDROOT
BRANCH   1  10
ATOM     10  N   UNL     1       0.936   2.789  21.291  0.00  0.00    +0.000 N 
ATOM     11  H   UNL     1       0.401   1.932  21.311  0.00  0.00    +0.000 HD
ATOM     12  H   UNL     1       1.441   3.063  22.125  0.00  0.00    +0.000 HD
ENDBRANCH   1  10
BRANCH   9  13
ATOM     13  C   UNL     1       3.941   6.096  17.215  0.00  0.00    +0.000 C 
BRANCH  13  14
ATOM     14  C   UNL     1       5.327   5.572  16.812  0.00  0.00    +0.000 C 
BRANCH  14  15
ATOM     15  C   UNL     1       5.571   5.796  15.309  0.00  0.00    +0.000 C 
BRANCH  15  16
ATOM     16  O   UNL     1       6.937   5.539  14.983  0.00  0.00    +0.000 OA
ATOM     17  H   UNL     1       6.977   4.602  14.709  0.00  0.00    +0.000 HD
ENDBRANCH  15  16
ENDBRANCH  14  15
BRANCH  14  18
ATOM     18  O   UNL     1       6.426   6.232  17.456  0.00  0.00    +0.000 OA
BRANCH  18  19
ATOM     19  P   UNL     1       7.367   5.570  18.555  0.00  0.00    +0.000 P 
ATOM     20  O   UNL     1       8.135   4.376  18.110  0.00  0.00    +0.000 OA
BRANCH  19  21
ATOM     21  O   UNL     1       8.349   6.735  19.022  0.00  0.00    +0.000 OA
ATOM     22  H   UNL     1       7.997   7.597  18.724  0.00  0.00    +0.000 HD
ENDBRANCH  19  21
BRANCH  19  23
ATOM     23  O   UNL     1       6.493   5.283  19.855  0.00  0.00    +0.000 OA
ATOM     24  H   UNL     1       5.576   5.071  19.595  0.00  0.00    +0.000 HD
ENDBRANCH  19  23
ENDBRANCH  18  19
ENDBRANCH  14  18
ENDBRANCH  13  14
ENDBRANCH   9  13
TORSDOF 9
ENDMDL
MODEL 6
REMARK VINA RESULT:      -6.4      1.622      2.352
REMARK  Name = 
REMARK  9 active torsions:
REMARK  status: ('A' for Active; 'I' for Inactive)
REMARK    1  A    between atoms: N_1  and  C_2
REMARK    2  A    between atoms: N_10  and  C_11
REMARK    3  A    between atoms: C_11  and  C_12
REMARK    4  A    between atoms: C_12  and  C_13
REMARK    5  A    between atoms: C_12  and  O_15
REMARK    6  A    between atoms: C_13  and  O_14
REMARK    7  A    between atoms: O_15  and  P_16
REMARK    8  A    between atoms: P_16  and  O_18
REMARK    9  A    between atoms: P_16  and  O_19
REMARK                            x       y       z     vdW  Elec       q    Type
REMARK                         _______ _______ _______ _____ _____    ______ ____
ROOT
ATOM      1  C   UNL     1       7.524   7.306  17.778  0.00  0.00    +0.000 A 
ATOM      2  N   UNL     1       8.224   6.878  18.851  0.00  0.00    +0.000 NA
ATOM      3  C   UNL     1       7.910   5.675  19.384  0.00  0.00    +0.000 A 
ATOM      4  N   UNL     1       6.951   4.805  18.990  0.00  0.00    +0.000 NA
ATOM      5  C   UNL     1       6.299   5.270  17.911  0.00  0.00    +0.000 A 
ATOM      6  C   UNL     1       6.531   6.465  17.245  0.00  0.00    +0.000 A 
ATOM      7  N   UNL     1       5.691   6.588  16.155  0.00  0.00    +0.000 NA
ATOM      8  C   UNL     1       4.939   5.510  16.185  0.00  0.00    +0.000 A 
ATOM      9  N   UNL     1       5.253   4.691  17.243  0.00  0.00    +0.000 N 
ENDROOT
BRANCH   1  10
ATOM     10  N   UNL     1       7.821   8.561  17.265  0.00  0.00    +0.000 N 
ATOM     11  H   UNL     1       8.796   8.807  17.355  0.00  0.00    +0.000 HD
ATOM     12  H   UNL     1       7.347   8.775  16.396  0.00  0.00    +0.000 HD
ENDBRANCH   1  10
BRANCH   9  13
ATOM     13  C   UNL     1       4.505   3.517  17.651  0.00  0.00    +0.000 C 
BRANCH  13  14
ATOM     14  C   UNL     1       3.164   3.815  18.338  0.00  0.00    +0.000 C 
BRANCH  14  15
ATOM     15  C   UNL     1       1.999   3.236  17.517  0.00  0.00    +0.000 C 
BRANCH  15  16
ATOM     16  O   UNL     1       1.941   1.817  17.667  0.00  0.00    +0.000 OA
ATOM     17  H   UNL     1       2.453   1.611  18.473  0.00  0.00    +0.000 HD
ENDBRANCH  15  16
ENDBRANCH  14  15
BRANCH  14  18
ATOM     18  O   UNL     1       3.015   3.226  19.637  0.00  0.00    +0.000 OA
BRANCH  18  19
ATOM     19  P   UNL     1       2.113   3.817  20.807  0.00  0.00    +0.000 P 
ATOM     20  O   UNL     1       0.644   3.765  20.577  0.00  0.00    +0.000 OA
BRANCH  19  21
ATOM     21  O   UNL     1       2.514   2.987  22.106  0.00  0.00    +0.000 OA
ATOM     22  H   UNL     1       3.354   3.332  22.468  0.00  0.00    +0.000 HD
ENDBRANCH  19  21
BRANCH  19  23
ATOM     23  O   UNL     1       2.626   5.289  21.138  0.00  0.00    +0.000 OA
ATOM     24  H   UNL     1       3.496   5.243  21.577  0.00  0.00    +0.000 HD
ENDBRANCH  19  23
ENDBRANCH  18  19
ENDBRANCH  14  18
ENDBRANCH  13  14
ENDBRANCH   9  13
TORSDOF 9
ENDMDL
MODEL 7
REMARK VINA RESULT:      -6.4      1.514      2.319
REMARK  Name = 
REMARK  9 active torsions:
REMARK  status: ('A' for Active; 'I' for Inactive)
REMARK    1  A    between atoms: N_1  and  C_2
REMARK    2  A    between atoms: N_10  and  C_11
REMARK    3  A    between atoms: C_11  and  C_12
REMARK    4  A    between atoms: C_12  and  C_13
REMARK    5  A    between atoms: C_12  and  O_15
REMARK    6  A    between atoms: C_13  and  O_14
REMARK    7  A    between atoms: O_15  and  P_16
REMARK    8  A    between atoms: P_16  and  O_18
REMARK    9  A    between atoms: P_16  and  O_19
REMARK                            x       y       z     vdW  Elec       q    Type
REMARK                         _______ _______ _______ _____ _____    ______ ____
ROOT
ATOM      1  C   UNL     1       6.584   6.355  16.655  0.00  0.00    +0.000 A 
ATOM      2  N   UNL     1       7.135   5.289  16.035  0.00  0.00    +0.000 NA
ATOM      3  C   UNL     1       6.391   4.166  15.907  0.00  0.00    +0.000 A 
ATOM      4  N   UNL     1       5.128   3.940  16.338  0.00  0.00    +0.000 NA
ATOM      5  C   UNL     1       4.624   5.035  16.930  0.00  0.00    +0.000 A 
ATOM      6  C   UNL     1       5.255   6.258  17.104  0.00  0.00    +0.000 A 
ATOM      7  N   UNL     1       4.411   7.161  17.721  0.00  0.00    +0.000 NA
ATOM      8  C   UNL     1       3.306   6.486  17.952  0.00  0.00    +0.000 A 
ATOM      9  N   UNL     1       3.393   5.188  17.512  0.00  0.00    +0.000 N 
ENDROOT
BRANCH   1  10
ATOM     10  N   UNL     1       7.368   7.488  16.822  0.00  0.00    +0.000 N 
ATOM     11  H   UNL     1       7.150   8.223  16.164  0.00  0.00    +0.000 HD
ATOM     12  H   UNL     1       7.532   7.738  17.790  0.00  0.00    +0.000 HD
ENDBRANCH   1  10
BRANCH   9  13
ATOM     13  C   UNL     1       2.416   4.146  17.764  0.00  0.00    +0.000 C 
BRANCH  13  14
ATOM     14  C   UNL     1       2.083   3.921  19.247  0.00  0.00    +0.000 C 
BRANCH  14  15
ATOM     15  C   UNL     1       1.147   2.710  19.410  0.00  0.00    +0.000 C 
BRANCH  15  16
ATOM     16  O   UNL     1       0.951   2.061  18.153  0.00  0.00    +0.000 OA
ATOM     17  H   UNL     1       0.594   1.176  18.360  0.00  0.00    +0.000 HD
ENDBRANCH  15  16
ENDBRANCH  14  15
BRANCH  14  18
ATOM     18  O   UNL     1       3.215   3.614  20.073  0.00  0.00    +0.000 OA
BRANCH  18  19
ATOM     19  P   UNL     1       4.275   2.466  19.773  0.00  0.00    +0.000 P 
ATOM     20  O   UNL     1       3.841   1.426  18.802  0.00  0.00    +0.000 OA
BRANCH  19  21
ATOM     21  O   UNL     1       5.575   3.223  19.250  0.00  0.00    +0.000 OA
ATOM     22  H   UNL     1       5.374   3.672  18.405  0.00  0.00    +0.000 HD
ENDBRANCH  19  21
BRANCH  19  23
ATOM     23  O   UNL     1       4.745   1.844  21.162  0.00  0.00    +0.000 OA
ATOM     24  H   UNL     1       4.421   2.398  21.898  0.00  0.00    +0.000 HD
ENDBRANCH  19  23
ENDBRANCH  18  19
ENDBRANCH  14  18
ENDBRANCH  13  14
ENDBRANCH   9  13
TORSDOF 9
ENDMDL
MODEL 8
REMARK VINA RESULT:      -6.3      3.451      5.484
REMARK  Name = 
REMARK  9 active torsions:
REMARK  status: ('A' for Active; 'I' for Inactive)
REMARK    1  A    between atoms: N_1  and  C_2
REMARK    2  A    between atoms: N_10  and  C_11
REMARK    3  A    between atoms: C_11  and  C_12
REMARK    4  A    between atoms: C_12  and  C_13
REMARK    5  A    between atoms: C_12  and  O_15
REMARK    6  A    between atoms: C_13  and  O_14
REMARK    7  A    between atoms: O_15  and  P_16
REMARK    8  A    between atoms: P_16  and  O_18
REMARK    9  A    between atoms: P_16  and  O_19
REMARK                            x       y       z     vdW  Elec       q    Type
REMARK                         _______ _______ _______ _____ _____    ______ ____
ROOT
ATOM      1  C   UNL     1       1.395   4.096  19.925  0.00  0.00    +0.000 A 
ATOM      2  N   UNL     1       1.356   5.286  20.564  0.00  0.00    +0.000 NA
ATOM      3  C   UNL     1       2.234   6.244  20.189  0.00  0.00    +0.000 A 
ATOM      4  N   UNL     1       3.193   6.181  19.236  0.00  0.00    +0.000 NA
ATOM      5  C   UNL     1       3.176   4.986  18.623  0.00  0.00    +0.000 A 
ATOM      6  C   UNL     1       2.319   3.925  18.879  0.00  0.00    +0.000 A 
ATOM      7  N   UNL     1       2.574   2.872  18.022  0.00  0.00    +0.000 NA
ATOM      8  C   UNL     1       3.590   3.271  17.290  0.00  0.00    +0.000 A 
ATOM      9  N   UNL     1       4.006   4.535  17.630  0.00  0.00    +0.000 N 
ENDROOT
BRANCH   1  10
ATOM     10  N   UNL     1       0.522   3.102  20.345  0.00  0.00    +0.000 N 
ATOM     11  H   UNL     1       0.559   2.271  19.772  0.00  0.00    +0.000 HD
ATOM     12  H   UNL     1       0.473   2.993  21.351  0.00  0.00    +0.000 HD
ENDBRANCH   1  10
BRANCH   9  13
ATOM     13  C   UNL     1       5.198   5.194  17.130  0.00  0.00    +0.000 C 
BRANCH  13  14
ATOM     14  C   UNL     1       6.407   4.268  16.928  0.00  0.00    +0.000 C 
BRANCH  14  15
ATOM     15  C   UNL     1       7.111   4.586  15.597  0.00  0.00    +0.000 C 
BRANCH  15  16
ATOM     16  O   UNL     1       7.445   5.974  15.530  0.00  0.00    +0.000 OA
ATOM     17  H   UNL     1       7.422   6.300  16.450  0.00  0.00    +0.000 HD
ENDBRANCH  15  16
ENDBRANCH  14  15
BRANCH  14  18
ATOM     18  O   UNL     1       7.436   4.404  17.919  0.00  0.00    +0.000 OA
BRANCH  18  19
ATOM     19  P   UNL     1       7.540   5.600  18.963  0.00  0.00    +0.000 P 
ATOM     20  O   UNL     1       7.744   6.952  18.376  0.00  0.00    +0.000 OA
BRANCH  19  21
ATOM     21  O   UNL     1       6.185   5.545  19.800  0.00  0.00    +0.000 OA
ATOM     22  H   UNL     1       5.830   4.635  19.785  0.00  0.00    +0.000 HD
ENDBRANCH  19  21
BRANCH  19  23
ATOM     23  O   UNL     1       8.653   5.229  20.040  0.00  0.00    +0.000 OA
ATOM     24  H   UNL     1       9.069   4.379  19.803  0.00  0.00    +0.000 HD
ENDBRANCH  19  23
ENDBRANCH  18  19
ENDBRANCH  14  18
ENDBRANCH  13  14
ENDBRANCH   9  13
TORSDOF 9
ENDMDL
MODEL 9
REMARK VINA RESULT:      -6.3      0.581      1.194
REMARK  Name = 
REMARK  9 active torsions:
REMARK  status: ('A' for Active; 'I' for Inactive)
REMARK    1  A    between atoms: N_1  and  C_2
REMARK    2  A    between atoms: N_10  and  C_11
REMARK    3  A    between atoms: C_11  and  C_12
REMARK    4  A    between atoms: C_12  and  C_13
REMARK    5  A    between atoms: C_12  and  O_15
REMARK    6  A    between atoms: C_13  and  O_14
REMARK    7  A    between atoms: O_15  and  P_16
REMARK    8  A    between atoms: P_16  and  O_18
REMARK    9  A    between atoms: P_16  and  O_19
REMARK                            x       y       z     vdW  Elec       q    Type
REMARK                         _______ _______ _______ _____ _____    ______ ____
ROOT
ATOM      1  C   UNL     1       6.662   6.308  16.698  0.00  0.00    +0.000 A 
ATOM      2  N   UNL     1       7.225   5.452  15.818  0.00  0.00    +0.000 NA
ATOM      3  C   UNL     1       6.506   4.379  15.417  0.00  0.00    +0.000 A 
ATOM      4  N   UNL     1       5.258   4.015  15.793  0.00  0.00    +0.000 NA
ATOM      5  C   UNL     1       4.740   4.907  16.653  0.00  0.00    +0.000 A 
ATOM      6  C   UNL     1       5.345   6.063  17.125  0.00  0.00    +0.000 A 
ATOM      7  N   UNL     1       4.493   6.754  17.965  0.00  0.00    +0.000 NA
ATOM      8  C   UNL     1       3.410   6.011  18.031  0.00  0.00    +0.000 A 
ATOM      9  N   UNL     1       3.518   4.871  17.273  0.00  0.00    +0.000 N 
ENDROOT
BRANCH   1  10
ATOM     10  N   UNL     1       7.422   7.383  17.138  0.00  0.00    +0.000 N 
ATOM     11  H   UNL     1       7.348   7.541  18.134  0.00  0.00    +0.000 HD
ATOM     12  H   UNL     1       8.336   7.448  16.705  0.00  0.00    +0.000 HD
ENDBRANCH   1  10
BRANCH   9  13
ATOM     13  C   UNL     1       2.572   3.772  17.263  0.00  0.00    +0.000 C 
BRANCH  13  14
ATOM     14  C   UNL     1       2.800   2.717  18.356  0.00  0.00    +0.000 C 
BRANCH  14  15
ATOM     15  C   UNL     1       3.927   1.753  17.945  0.00  0.00    +0.000 C 
BRANCH  15  16
ATOM     16  O   UNL     1       4.035   0.685  18.888  0.00  0.00    +0.000 OA
ATOM     17  H   UNL     1       4.428  -0.064  18.402  0.00  0.00    +0.000 HD
ENDBRANCH  15  16
ENDBRANCH  14  15
BRANCH  14  18
ATOM     18  O   UNL     1       3.225   3.249  19.619  0.00  0.00    +0.000 OA
BRANCH  18  19
ATOM     19  P   UNL     1       2.292   3.415  20.897  0.00  0.00    +0.000 P 
ATOM     20  O   UNL     1       2.649   2.573  22.070  0.00  0.00    +0.000 OA
BRANCH  19  21
ATOM     21  O   UNL     1       2.361   4.963  21.267  0.00  0.00    +0.000 OA
ATOM     22  H   UNL     1       1.865   5.480  20.603  0.00  0.00    +0.000 HD
ENDBRANCH  19  21
BRANCH  19  23
ATOM     23  O   UNL     1       0.779   3.214  20.440  0.00  0.00    +0.000 OA
ATOM     24  H   UNL     1       0.380   2.476  20.940  0.00  0.00    +0.000 HD
ENDBRANCH  19  23
ENDBRANCH  18  19
ENDBRANCH  14  18
ENDBRANCH  13  14
ENDBRANCH   9  13
TORSDOF 9
ENDMDL
