MODEL 1
REMARK VINA RESULT:      -8.0      0.000      0.000
REMARK  Name = 
REMARK  5 active torsions:
REMARK  status: ('A' for Active; 'I' for Inactive)
REMARK    1  A    between atoms: C_2  and  C_3
REMARK    2  A    between atoms: C_5  and  O_6
REMARK    3  A    between atoms: O_6  and  C_7
REMARK    4  A    between atoms: C_7  and  C_8
REMARK    5  A    between atoms: C_12  and  C_13
REMARK                            x       y       z     vdW  Elec       q    Type
REMARK                         _______ _______ _______ _____ _____    ______ ____
ROOT
ATOM      1  C   UNL     1       5.431   4.325  18.970  0.00  0.00    +0.000 A 
ATOM      2  C   UNL     1       5.208   4.767  17.674  0.00  0.00    +0.000 A 
ATOM      3  C   UNL     1       6.011   5.800  17.187  0.00  0.00    +0.000 A 
ATOM      4  C   UNL     1       7.032   6.356  17.982  0.00  0.00    +0.000 A 
ATOM      5  C   UNL     1       7.125   5.861  19.278  0.00  0.00    +0.000 A 
ATOM      6  N   UNL     1       6.364   4.872  19.787  0.00  0.00    +0.000 NA
ENDROOT
BRANCH   1   8
ATOM      7  O   UNL     1       5.125   2.223  20.025  0.00  0.00    +0.000 OA
ATOM      8  C   UNL     1       4.592   3.219  19.546  0.00  0.00    +0.000 C 
ATOM      9  N   UNL     1       3.226   3.359  19.459  0.00  0.00    +0.000 N 
ATOM     10  C   UNL     1       2.179   2.468  19.941  0.00  0.00    +0.000 C 
ATOM     11  C   UNL     1       1.188   3.558  19.471  0.00  0.00    +0.000 C 
ATOM     12  F   UNL     1       0.127   3.796  20.274  0.00  0.00    +0.000 F 
ATOM     13  F   UNL     1       0.696   3.407  18.215  0.00  0.00    +0.000 F 
ATOM     14  C   UNL     1       2.372   4.537  19.600  0.00  0.00    +0.000 C 
ENDBRANCH   1   8
BRANCH   4  15
ATOM     15  C   UNL     1       7.960   7.456  17.513  0.00  0.00    +0.000 C 
ATOM     16  C   UNL     1       7.521   8.903  17.594  0.00  0.00    +0.000 C 
ATOM     17  C   UNL     1       8.587   8.399  18.512  0.00  0.00    +0.000 C 
ENDBRANCH   4  15
BRANCH   3  18
ATOM     18  O   UNL     1       5.928   6.290  15.911  0.00  0.00    +0.000 OA
BRANCH  18  19
ATOM     19  C   UNL     1       5.378   5.435  14.903  0.00  0.00    +0.000 C 
BRANCH  19  20
ATOM     20  C   UNL     1       6.460   4.505  14.351  0.00  0.00    +0.000 C 
ATOM     21  F   UNL     1       7.704   5.020  14.465  0.00  0.00    +0.000 F 
ATOM     22  F   UNL     1       6.454   3.321  15.006  0.00  0.00    +0.000 F 
ATOM     23  F   UNL     1       6.251   4.242  13.040  0.00  0.00    +0.000 F 
ENDBRANCH  19  20
ENDBRANCH  18  19
ENDBRANCH   3  18
TORSDOF 5
ENDMDL
MODEL 2
REMARK VINA RESULT:      -7.8      1.161      1.487
REMARK  Name = 
REMARK  5 active torsions:
REMARK  status: ('A' for Active; 'I' for Inactive)
REMARK    1  A    between atoms: C_2  and  C_3
REMARK    2  A    between atoms: C_5  and  O_6
REMARK    3  A    between atoms: O_6  and  C_7
REMARK    4  A    between atoms: C_7  and  C_8
REMARK    5  A    between atoms: C_12  and  C_13
REMARK                            x       y       z     vdW  Elec       q    Type
REMARK                         _______ _______ _______ _____ _____    ______ ____
ROOT
ATOM      1  C   UNL     1       4.640   3.777  18.098  0.00  0.00    +0.000 A 
ATOM      2  C   UNL     1       4.573   4.438  16.880  0.00  0.00    +0.000 A 
ATOM      3  C   UNL     1       5.517   5.434  16.623  0.00  0.00    +0.000 A 
ATOM      4  C   UNL     1       6.521   5.736  17.562  0.00  0.00    +0.000 A 
ATOM      5  C   UNL     1       6.455   5.037  18.762  0.00  0.00    +0.000 A 
ATOM      6  N   UNL     1       5.555   4.076  19.051  0.00  0.00    +0.000 NA
ENDROOT
BRANCH   1   8
ATOM      7  O   UNL     1       3.680   1.623  17.839  0.00  0.00    +0.000 OA
ATOM      8  C   UNL     1       3.646   2.700  18.428  0.00  0.00    +0.000 C 
ATOM      9  N   UNL     1       2.686   3.000  19.367  0.00  0.00    +0.000 N 
ATOM     10  C   UNL     1       1.621   2.157  19.892  0.00  0.00    +0.000 C 
ATOM     11  C   UNL     1       1.306   3.337  20.841  0.00  0.00    +0.000 C 
ATOM     12  F   UNL     1       0.979   3.019  22.113  0.00  0.00    +0.000 F 
ATOM     13  F   UNL     1       0.361   4.210  20.406  0.00  0.00    +0.000 F 
ATOM     14  C   UNL     1       2.765   3.777  20.603  0.00  0.00    +0.000 C 
ENDBRANCH   1   8
BRANCH   4  15
ATOM     15  C   UNL     1       7.596   6.780  17.342  0.00  0.00    +0.000 C 
ATOM     16  C   UNL     1       7.303   8.238  17.628  0.00  0.00    +0.000 C 
ATOM     17  C   UNL     1       8.231   7.478  18.520  0.00  0.00    +0.000 C 
ENDBRANCH   4  15
BRANCH   3  18
ATOM     18  O   UNL     1       5.592   6.124  15.442  0.00  0.00    +0.000 OA
BRANCH  18  19
ATOM     19  C   UNL     1       5.421   5.386  14.227  0.00  0.00    +0.000 C 
BRANCH  19  20
ATOM     20  C   UNL     1       6.663   4.537  13.947  0.00  0.00    +0.000 C 
ATOM     21  F   UNL     1       6.628   3.334  14.562  0.00  0.00    +0.000 F 
ATOM     22  F   UNL     1       6.794   4.305  12.619  0.00  0.00    +0.000 F 
ATOM     23  F   UNL     1       7.787   5.168  14.359  0.00  0.00    +0.000 F 
ENDBRANCH  19  20
ENDBRANCH  18  19
ENDBRANCH   3  18
TORSDOF 5
ENDMDL
MODEL 3
REMARK VINA RESULT:      -7.4      3.266      6.544
REMARK  Name = 
REMARK  5 active torsions:
REMARK  status: ('A' for Active; 'I' for Inactive)
REMARK    1  A    between atoms: C_2  and  C_3
REMARK    2  A    between atoms: C_5  and  O_6
REMARK    3  A    between atoms: O_6  and  C_7
REMARK    4  A    between atoms: C_7  and  C_8
REMARK    5  A    between atoms: C_12  and  C_13
REMARK                            x       y       z     vdW  Elec       q    Type
REMARK                         _______ _______ _______ _____ _____    ______ ____
ROOT
ATOM      1  C   UNL     1       5.381   5.615  17.441  0.00  0.00    +0.000 A 
ATOM      2  C   UNL     1       4.313   6.500  17.397  0.00  0.00    +0.000 A 
ATOM      3  C   UNL     1       3.332   6.391  18.385  0.00  0.00    +0.000 A 
ATOM      4  C   UNL     1       3.442   5.431  19.408  0.00  0.00    +0.000 A 
ATOM      5  C   UNL     1       4.533   4.574  19.318  0.00  0.00    +0.000 A 
ATOM      6  N   UNL     1       5.495   4.641  18.375  0.00  0.00    +0.000 NA
ENDROOT
BRANCH   1   8
ATOM      7  O   UNL     1       7.453   6.386  16.581  0.00  0.00    +0.000 OA
ATOM      8  C   UNL     1       6.462   5.684  16.400  0.00  0.00    +0.000 C 
ATOM      9  N   UNL     1       6.259   4.975  15.239  0.00  0.00    +0.000 N 
ATOM     10  C   UNL     1       7.131   4.842  14.079  0.00  0.00    +0.000 C 
ATOM     11  C   UNL     1       6.076   3.849  13.538  0.00  0.00    +0.000 C 
ATOM     12  F   UNL     1       6.549   2.748  12.911  0.00  0.00    +0.000 F 
ATOM     13  F   UNL     1       5.127   4.379  12.725  0.00  0.00    +0.000 F 
ATOM     14  C   UNL     1       5.653   3.664  15.010  0.00  0.00    +0.000 C 
ENDBRANCH   1   8
BRANCH   4  15
ATOM     15  C   UNL     1       2.436   5.275  20.529  0.00  0.00    +0.000 C 
ATOM     16  C   UNL     1       1.210   4.409  20.329  0.00  0.00    +0.000 C 
ATOM     17  C   UNL     1       2.298   3.954  21.248  0.00  0.00    +0.000 C 
ENDBRANCH   4  15
BRANCH   3  18
ATOM     18  O   UNL     1       2.257   7.234  18.484  0.00  0.00    +0.000 OA
BRANCH  18  19
ATOM     19  C   UNL     1       2.288   8.445  17.720  0.00  0.00    +0.000 C 
BRANCH  19  20
ATOM     20  C   UNL     1       1.408   9.508  18.380  0.00  0.00    +0.000 C 
ATOM     21  F   UNL     1       0.192   9.619  17.802  0.00  0.00    +0.000 F 
ATOM     22  F   UNL     1       1.206   9.219  19.687  0.00  0.00    +0.000 F 
ATOM     23  F   UNL     1       1.993  10.728  18.324  0.00  0.00    +0.000 F 
ENDBRANCH  19  20
ENDBRANCH  18  19
ENDBRANCH   3  18
TORSDOF 5
ENDMDL
MODEL 4
REMARK VINA RESULT:      -7.4      1.947      2.246
REMARK  Name = 
REMARK  5 active torsions:
REMARK  status: ('A' for Active; 'I' for Inactive)
REMARK    1  A    between atoms: C_2  and  C_3
REMARK    2  A    between atoms: C_5  and  O_6
REMARK    3  A    between atoms: O_6  and  C_7
REMARK    4  A    between atoms: C_7  and  C_8
REMARK    5  A    between atoms: C_12  and  C_13
REMARK                            x       y       z     vdW  Elec       q    Type
REMARK                         _______ _______ _______ _____ _____    ______ ____
ROOT
ATOM      1  C   UNL     1       3.816   4.512  17.853  0.00  0.00    +0.000 A 
ATOM      2  C   UNL     1       4.419   4.397  16.609  0.00  0.00    +0.000 A 
ATOM      3  C   UNL     1       5.623   5.073  16.400  0.00  0.00    +0.000 A 
ATOM      4  C   UNL     1       6.217   5.823  17.433  0.00  0.00    +0.000 A 
ATOM      5  C   UNL     1       5.493   5.899  18.618  0.00  0.00    +0.000 A 
ATOM      6  N   UNL     1       4.325   5.270  18.854  0.00  0.00    +0.000 NA
ENDROOT
BRANCH   1   8
ATOM      7  O   UNL     1       1.697   3.646  17.231  0.00  0.00    +0.000 OA
ATOM      8  C   UNL     1       2.517   3.810  18.130  0.00  0.00    +0.000 C 
ATOM      9  N   UNL     1       2.280   3.417  19.427  0.00  0.00    +0.000 N 
ATOM     10  C   UNL     1       1.133   2.710  19.978  0.00  0.00    +0.000 C 
ATOM     11  C   UNL     1       1.918   2.700  21.311  0.00  0.00    +0.000 C 
ATOM     12  F   UNL     1       1.849   1.567  22.044  0.00  0.00    +0.000 F 
ATOM     13  F   UNL     1       1.654   3.727  22.160  0.00  0.00    +0.000 F 
ATOM     14  C   UNL     1       3.181   2.873  20.443  0.00  0.00    +0.000 C 
ENDBRANCH   1   8
BRANCH   4  15
ATOM     15  C   UNL     1       7.534   6.557  17.292  0.00  0.00    +0.000 C 
ATOM     16  C   UNL     1       7.587   8.059  17.479  0.00  0.00    +0.000 C 
ATOM     17  C   UNL     1       8.202   7.161  18.504  0.00  0.00    +0.000 C 
ENDBRANCH   4  15
BRANCH   3  18
ATOM     18  O   UNL     1       6.344   5.000  15.238  0.00  0.00    +0.000 OA
BRANCH  18  19
ATOM     19  C   UNL     1       6.499   3.713  14.630  0.00  0.00    +0.000 C 
BRANCH  19  20
ATOM     20  C   UNL     1       6.076   3.769  13.161  0.00  0.00    +0.000 C 
ATOM     21  F   UNL     1       6.094   2.558  12.562  0.00  0.00    +0.000 F 
ATOM     22  F   UNL     1       4.819   4.257  13.043  0.00  0.00    +0.000 F 
ATOM     23  F   UNL     1       6.892   4.583  12.451  0.00  0.00    +0.000 F 
ENDBRANCH  19  20
ENDBRANCH  18  19
ENDBRANCH   3  18
TORSDOF 5
ENDMDL
MODEL 5
REMARK VINA RESULT:      -7.3      2.897      6.250
REMARK  Name = 
REMARK  5 active torsions:
REMARK  status: ('A' for Active; 'I' for Inactive)
REMARK    1  A    between atoms: C_2  and  C_3
REMARK    2  A    between atoms: C_5  and  O_6
REMARK    3  A    between atoms: O_6  and  C_7
REMARK    4  A    between atoms: C_7  and  C_8
REMARK    5  A    between atoms: C_12  and  C_13
REMARK                            x       y       z     vdW  Elec       q    Type
REMARK                         _______ _______ _______ _____ _____    ______ ____
ROOT
ATOM      1  C   UNL     1       5.291   4.504  18.618  0.00  0.00    +0.000 A 
ATOM      2  C   UNL     1       4.291   5.453  18.460  0.00  0.00    +0.000 A 
ATOM      3  C   UNL     1       3.116   5.296  19.197  0.00  0.00    +0.000 A 
ATOM      4  C   UNL     1       2.966   4.221  20.093  0.00  0.00    +0.000 A 
ATOM      5  C   UNL     1       4.018   3.312  20.129  0.00  0.00    +0.000 A 
ATOM      6  N   UNL     1       5.162   3.424  19.426  0.00  0.00    +0.000 NA
ENDROOT
BRANCH   1   8
ATOM      7  O   UNL     1       7.639   4.779  18.432  0.00  0.00    +0.000 OA
ATOM      8  C   UNL     1       6.573   4.622  17.844  0.00  0.00    +0.000 C 
ATOM      9  N   UNL     1       6.482   4.597  16.472  0.00  0.00    +0.000 N 
ATOM     10  C   UNL     1       7.545   4.672  15.479  0.00  0.00    +0.000 C 
ATOM     11  C   UNL     1       6.431   4.448  14.430  0.00  0.00    +0.000 C 
ATOM     12  F   UNL     1       6.730   3.632  13.396  0.00  0.00    +0.000 F 
ATOM     13  F   UNL     1       5.891   5.572  13.892  0.00  0.00    +0.000 F 
ATOM     14  C   UNL     1       5.623   3.818  15.582  0.00  0.00    +0.000 C 
ENDBRANCH   1   8
BRANCH   4  15
ATOM     15  C   UNL     1       1.735   4.002  20.948  0.00  0.00    +0.000 C 
ATOM     16  C   UNL     1       0.600   3.142  20.434  0.00  0.00    +0.000 C 
ATOM     17  C   UNL     1       1.460   2.645  21.551  0.00  0.00    +0.000 C 
ENDBRANCH   4  15
BRANCH   3  18
ATOM     18  O   UNL     1       2.077   6.188  19.171  0.00  0.00    +0.000 OA
BRANCH  18  19
ATOM     19  C   UNL     1       2.383   7.572  19.376  0.00  0.00    +0.000 C 
BRANCH  19  20
ATOM     20  C   UNL     1       2.193   8.353  18.075  0.00  0.00    +0.000 C 
ATOM     21  F   UNL     1       2.246   9.692  18.252  0.00  0.00    +0.000 F 
ATOM     22  F   UNL     1       3.153   8.029  17.177  0.00  0.00    +0.000 F 
ATOM     23  F   UNL     1       0.998   8.069  17.507  0.00  0.00    +0.000 F 
ENDBRANCH  19  20
ENDBRANCH  18  19
ENDBRANCH   3  18
TORSDOF 5
ENDMDL
MODEL 6
REMARK VINA RESULT:      -7.3      1.890      2.054
REMARK  Name = 
REMARK  5 active torsions:
REMARK  status: ('A' for Active; 'I' for Inactive)
REMARK    1  A    between atoms: C_2  and  C_3
REMARK    2  A    between atoms: C_5  and  O_6
REMARK    3  A    between atoms: O_6  and  C_7
REMARK    4  A    between atoms: C_7  and  C_8
REMARK    5  A    between atoms: C_12  and  C_13
REMARK                            x       y       z     vdW  Elec       q    Type
REMARK                         _______ _______ _______ _____ _____    ______ ____
ROOT
ATOM      1  C   UNL     1       3.938   4.339  17.422  0.00  0.00    +0.000 A 
ATOM      2  C   UNL     1       4.877   3.958  16.474  0.00  0.00    +0.000 A 
ATOM      3  C   UNL     1       6.047   4.711  16.373  0.00  0.00    +0.000 A 
ATOM      4  C   UNL     1       6.277   5.806  17.228  0.00  0.00    +0.000 A 
ATOM      5  C   UNL     1       5.243   6.116  18.104  0.00  0.00    +0.000 A 
ATOM      6  N   UNL     1       4.095   5.419  18.224  0.00  0.00    +0.000 NA
ENDROOT
BRANCH   1   8
ATOM      7  O   UNL     1       2.166   2.992  16.603  0.00  0.00    +0.000 OA
ATOM      8  C   UNL     1       2.657   3.567  17.569  0.00  0.00    +0.000 C 
ATOM      9  N   UNL     1       2.054   3.585  18.806  0.00  0.00    +0.000 N 
ATOM     10  C   UNL     1       0.833   2.921  19.242  0.00  0.00    +0.000 C 
ATOM     11  C   UNL     1       1.167   3.471  20.648  0.00  0.00    +0.000 C 
ATOM     12  F   UNL     1       0.938   2.641  21.690  0.00  0.00    +0.000 F 
ATOM     13  F   UNL     1       0.598   4.661  20.968  0.00  0.00    +0.000 F 
ATOM     14  C   UNL     1       2.625   3.551  20.152  0.00  0.00    +0.000 C 
ENDBRANCH   1   8
BRANCH   4  15
ATOM     15  C   UNL     1       7.534   6.649  17.199  0.00  0.00    +0.000 C 
ATOM     16  C   UNL     1       7.464   8.124  17.537  0.00  0.00    +0.000 C 
ATOM     17  C   UNL     1       8.127   7.176  18.484  0.00  0.00    +0.000 C 
ENDBRANCH   4  15
BRANCH   3  18
ATOM     18  O   UNL     1       7.073   4.411  15.516  0.00  0.00    +0.000 OA
BRANCH  18  19
ATOM     19  C   UNL     1       7.016   4.954  14.193  0.00  0.00    +0.000 C 
BRANCH  19  20
ATOM     20  C   UNL     1       6.292   3.986  13.255  0.00  0.00    +0.000 C 
ATOM     21  F   UNL     1       6.753   4.038  11.986  0.00  0.00    +0.000 F 
ATOM     22  F   UNL     1       6.435   2.709  13.682  0.00  0.00    +0.000 F 
ATOM     23  F   UNL     1       4.965   4.251  13.213  0.00  0.00    +0.000 F 
ENDBRANCH  19  20
ENDBRANCH  18  19
ENDBRANCH   3  18
TORSDOF 5
ENDMDL
MODEL 7
REMARK VINA RESULT:      -7.3      2.930      6.356
REMARK  Name = 
REMARK  5 active torsions:
REMARK  status: ('A' for Active; 'I' for Inactive)
REMARK    1  A    between atoms: C_2  and  C_3
REMARK    2  A    between atoms: C_5  and  O_6
REMARK    3  A    between atoms: O_6  and  C_7
REMARK    4  A    between atoms: C_7  and  C_8
REMARK    5  A    between atoms: C_12  and  C_13
REMARK                            x       y       z     vdW  Elec       q    Type
REMARK                         _______ _______ _______ _____ _____    ______ ____
ROOT
ATOM      1  C   UNL     1       5.903   5.273  15.506  0.00  0.00    +0.000 A 
ATOM      2  C   UNL     1       5.529   4.304  16.425  0.00  0.00    +0.000 A 
ATOM      3  C   UNL     1       4.713   4.691  17.490  0.00  0.00    +0.000 A 
ATOM      4  C   UNL     1       4.263   6.020  17.607  0.00  0.00    +0.000 A 
ATOM      5  C   UNL     1       4.744   6.907  16.650  0.00  0.00    +0.000 A 
ATOM      6  N   UNL     1       5.539   6.573  15.614  0.00  0.00    +0.000 NA
ENDROOT
BRANCH   1   8
ATOM      7  O   UNL     1       7.953   5.285  14.313  0.00  0.00    +0.000 OA
ATOM      8  C   UNL     1       6.785   4.912  14.344  0.00  0.00    +0.000 C 
ATOM      9  N   UNL     1       6.208   4.201  13.317  0.00  0.00    +0.000 N 
ATOM     10  C   UNL     1       6.814   3.703  12.090  0.00  0.00    +0.000 C 
ATOM     11  C   UNL     1       5.445   3.041  11.812  0.00  0.00    +0.000 C 
ATOM     12  F   UNL     1       5.471   1.798  11.282  0.00  0.00    +0.000 F 
ATOM     13  F   UNL     1       4.581   3.765  11.054  0.00  0.00    +0.000 F 
ATOM     14  C   UNL     1       5.215   3.127  13.334  0.00  0.00    +0.000 C 
ENDBRANCH   1   8
BRANCH   4  15
ATOM     15  C   UNL     1       3.353   6.507  18.714  0.00  0.00    +0.000 C 
ATOM     16  C   UNL     1       2.507   7.746  18.508  0.00  0.00    +0.000 C 
ATOM     17  C   UNL     1       1.854   6.403  18.568  0.00  0.00    +0.000 C 
ENDBRANCH   4  15
BRANCH   3  18
ATOM     18  O   UNL     1       4.232   3.823  18.434  0.00  0.00    +0.000 OA
BRANCH  18  19
ATOM     19  C   UNL     1       3.374   2.766  17.991  0.00  0.00    +0.000 C 
BRANCH  19  20
ATOM     20  C   UNL     1       2.106   2.722  18.844  0.00  0.00    +0.000 C 
ATOM     21  F   UNL     1       1.781   1.471  19.240  0.00  0.00    +0.000 F 
ATOM     22  F   UNL     1       2.254   3.471  19.962  0.00  0.00    +0.000 F 
ATOM     23  F   UNL     1       1.045   3.218  18.165  0.00  0.00    +0.000 F 
ENDBRANCH  19  20
ENDBRANCH  18  19
ENDBRANCH   3  18
TORSDOF 5
ENDMDL
MODEL 8
REMARK VINA RESULT:      -7.3      2.998      6.254
REMARK  Name = 
REMARK  5 active torsions:
REMARK  status: ('A' for Active; 'I' for Inactive)
REMARK    1  A    between atoms: C_2  and  C_3
REMARK    2  A    between atoms: C_5  and  O_6
REMARK    3  A    between atoms: O_6  and  C_7
REMARK    4  A    between atoms: C_7  and  C_8
REMARK    5  A    between atoms: C_12  and  C_13
REMARK                            x       y       z     vdW  Elec       q    Type
REMARK                         _______ _______ _______ _____ _____    ______ ____
ROOT
ATOM      1  C   UNL     1       5.817   5.419  15.489  0.00  0.00    +0.000 A 
ATOM      2  C   UNL     1       5.403   4.573  16.508  0.00  0.00    +0.000 A 
ATOM      3  C   UNL     1       4.554   5.092  17.486  0.00  0.00    +0.000 A 
ATOM      4  C   UNL     1       4.111   6.427  17.421  0.00  0.00    +0.000 A 
ATOM      5  C   UNL     1       4.632   7.187  16.380  0.00  0.00    +0.000 A 
ATOM      6  N   UNL     1       5.460   6.724  15.423  0.00  0.00    +0.000 NA
ENDROOT
BRANCH   1   8
ATOM      7  O   UNL     1       7.936   5.166  14.453  0.00  0.00    +0.000 OA
ATOM      8  C   UNL     1       6.736   4.913  14.413  0.00  0.00    +0.000 C 
ATOM      9  N   UNL     1       6.162   4.212  13.378  0.00  0.00    +0.000 N 
ATOM     10  C   UNL     1       6.798   3.594  12.223  0.00  0.00    +0.000 C 
ATOM     11  C   UNL     1       5.390   3.059  11.872  0.00  0.00    +0.000 C 
ATOM     12  F   UNL     1       5.325   1.793  11.400  0.00  0.00    +0.000 F 
ATOM     13  F   UNL     1       4.661   3.826  11.021  0.00  0.00    +0.000 F 
ATOM     14  C   UNL     1       5.065   3.244  13.368  0.00  0.00    +0.000 C 
ENDBRANCH   1   8
BRANCH   4  15
ATOM     15  C   UNL     1       3.167   7.052  18.427  0.00  0.00    +0.000 C 
ATOM     16  C   UNL     1       2.570   8.417  18.157  0.00  0.00    +0.000 C 
ATOM     17  C   UNL     1       1.700   7.203  18.100  0.00  0.00    +0.000 C 
ENDBRANCH   4  15
BRANCH   3  18
ATOM     18  O   UNL     1       4.033   4.350  18.513  0.00  0.00    +0.000 OA
BRANCH  18  19
ATOM     19  C   UNL     1       3.299   3.168  18.174  0.00  0.00    +0.000 C 
BRANCH  19  20
ATOM     20  C   UNL     1       1.796   3.439  18.250  0.00  0.00    +0.000 C 
ATOM     21  F   UNL     1       1.336   4.155  17.200  0.00  0.00    +0.000 F 
ATOM     22  F   UNL     1       1.101   2.278  18.279  0.00  0.00    +0.000 F 
ATOM     23  F   UNL     1       1.481   4.125  19.374  0.00  0.00    +0.000 F 
ENDBRANCH  19  20
ENDBRANCH  18  19
ENDBRANCH   3  18
TORSDOF 5
ENDMDL
MODEL 9
REMARK VINA RESULT:      -7.3      3.925      5.928
REMARK  Name = 
REMARK  5 active torsions:
REMARK  status: ('A' for Active; 'I' for Inactive)
REMARK    1  A    between atoms: C_2  and  C_3
REMARK    2  A    between atoms: C_5  and  O_6
REMARK    3  A    between atoms: O_6  and  C_7
REMARK    4  A    between atoms: C_7  and  C_8
REMARK    5  A    between atoms: C_12  and  C_13
REMARK                            x       y       z     vdW  Elec       q    Type
REMARK                         _______ _______ _______ _____ _____    ______ ____
ROOT
ATOM      1  C   UNL     1       2.787   7.373  18.036  0.00  0.00    +0.000 A 
ATOM      2  C   UNL     1       2.300   6.089  18.235  0.00  0.00    +0.000 A 
ATOM      3  C   UNL     1       3.115   5.016  17.870  0.00  0.00    +0.000 A 
ATOM      4  C   UNL     1       4.402   5.235  17.343  0.00  0.00    +0.000 A 
ATOM      5  C   UNL     1       4.757   6.565  17.149  0.00  0.00    +0.000 A 
ATOM      6  N   UNL     1       3.995   7.626  17.478  0.00  0.00    +0.000 NA
ENDROOT
BRANCH   1   8
ATOM      7  O   UNL     1       1.631   9.387  17.552  0.00  0.00    +0.000 OA
ATOM      8  C   UNL     1       1.949   8.564  18.405  0.00  0.00    +0.000 C 
ATOM      9  N   UNL     1       1.611   8.705  19.732  0.00  0.00    +0.000 N 
ATOM     10  C   UNL     1       0.803   9.735  20.369  0.00  0.00    +0.000 C 
ATOM     11  C   UNL     1       0.972   8.911  21.666  0.00  0.00    +0.000 C 
ATOM     12  F   UNL     1      -0.113   8.812  22.465  0.00  0.00    +0.000 F 
ATOM     13  F   UNL     1       2.009   9.272  22.466  0.00  0.00    +0.000 F 
ATOM     14  C   UNL     1       1.245   7.710  20.738  0.00  0.00    +0.000 C 
ENDBRANCH   1   8
BRANCH   4  15
ATOM     15  C   UNL     1       5.354   4.123  16.954  0.00  0.00    +0.000 C 
ATOM     16  C   UNL     1       5.692   3.892  15.496  0.00  0.00    +0.000 C 
ATOM     17  C   UNL     1       6.727   4.450  16.418  0.00  0.00    +0.000 C 
ENDBRANCH   4  15
BRANCH   3  18
ATOM     18  O   UNL     1       2.775   3.703  18.063  0.00  0.00    +0.000 OA
BRANCH  18  19
ATOM     19  C   UNL     1       2.744   3.214  19.408  0.00  0.00    +0.000 C 
BRANCH  19  20
ATOM     20  C   UNL     1       1.299   2.976  19.850  0.00  0.00    +0.000 C 
ATOM     21  F   UNL     1       0.536   2.424  18.881  0.00  0.00    +0.000 F 
ATOM     22  F   UNL     1       1.256   2.145  20.917  0.00  0.00    +0.000 F 
ATOM     23  F   UNL     1       0.706   4.136  20.219  0.00  0.00    +0.000 F 
ENDBRANCH  19  20
ENDBRANCH  18  19
ENDBRANCH   3  18
TORSDOF 5
ENDMDL
