MODEL 1
REMARK VINA RESULT:      -7.8      0.000      0.000
REMARK  Name = 
REMARK  8 active torsions:
REMARK  status: ('A' for Active; 'I' for Inactive)
REMARK    1  A    between atoms: C_2  and  O_11
REMARK    2  A    between atoms: N_3  and  C_4
REMARK    3  A    between atoms: C_4  and  C_5
REMARK    4  A    between atoms: O_11  and  C_12
REMARK    5  A    between atoms: C_19  and  C_20
REMARK    6  A    between atoms: C_20  and  C_21
REMARK    7  A    between atoms: C_21  and  C_22
REMARK    8  A    between atoms: C_22  and  C_23
REMARK                            x       y       z     vdW  Elec       q    Type
REMARK                         _______ _______ _______ _____ _____    ______ ____
ROOT
ATOM      1  C   UNL     1       5.728   5.700  18.609  0.00  0.00    +0.000 C 
ATOM      2  C   UNL     1       4.781   6.421  17.654  0.00  0.00    +0.000 C 
ATOM      3  O   UNL     1       4.259   5.450  16.735  0.00  0.00    +0.000 OA
ATOM      4  C   UNL     1       4.291   4.179  17.368  0.00  0.00    +0.000 C 
ATOM      5  C   UNL     1       5.294   4.246  18.510  0.00  0.00    +0.000 C 
ATOM      6  O   UNL     1       4.617   3.804  19.699  0.00  0.00    +0.000 OA
ATOM      7  C   UNL     1       3.489   3.036  19.272  0.00  0.00    +0.000 C 
ATOM      8  C   UNL     1       2.977   3.723  18.012  0.00  0.00    +0.000 C 
ENDROOT
BRANCH   1   9
ATOM      9  O   UNL     1       7.106   5.785  18.188  0.00  0.00    +0.000 OA
BRANCH   9  11
ATOM     10  O   UNL     1       7.673   7.851  17.371  0.00  0.00    +0.000 OA
ATOM     11  C   UNL     1       7.354   6.679  17.199  0.00  0.00    +0.000 C 
ATOM     12  N   UNL     1       7.166   6.168  15.953  0.00  0.00    +0.000 N 
ATOM     13  H   UNL     1       7.206   6.864  15.225  0.00  0.00    +0.000 HD
BRANCH  12  14
ATOM     14  C   UNL     1       7.503   4.812  15.592  0.00  0.00    +0.000 C 
BRANCH  14  15
ATOM     15  C   UNL     1       7.043   4.463  14.207  0.00  0.00    +0.000 A 
ATOM     16  C   UNL     1       7.750   4.901  13.079  0.00  0.00    +0.000 A 
ATOM     17  C   UNL     1       7.289   4.599  11.796  0.00  0.00    +0.000 A 
ATOM     18  C   UNL     1       6.118   3.862  11.628  0.00  0.00    +0.000 A 
ATOM     19  C   UNL     1       5.411   3.413  12.746  0.00  0.00    +0.000 A 
ATOM     20  C   UNL     1       5.870   3.713  14.026  0.00  0.00    +0.000 A 
ENDBRANCH  14  15
ENDBRANCH  12  14
ENDBRANCH   9  11
ENDBRANCH   1   9
BRANCH   8  21
ATOM     21  C   UNL     1       1.935   4.805  18.354  0.00  0.00    +0.000 C 
BRANCH  21  22
ATOM     22  C   UNL     1       1.755   5.100  19.848  0.00  0.00    +0.000 C 
BRANCH  22  23
ATOM     23  C   UNL     1       2.545   6.323  20.324  0.00  0.00    +0.000 C 
BRANCH  23  24
ATOM     24  C   UNL     1       1.784   7.607  20.108  0.00  0.00    +0.000 A 
ATOM     25  C   UNL     1       1.905   8.307  18.902  0.00  0.00    +0.000 A 
ATOM     26  C   UNL     1       1.224   9.510  18.707  0.00  0.00    +0.000 A 
ATOM     27  C   UNL     1       0.407  10.010  19.717  0.00  0.00    +0.000 A 
ATOM     28  C   UNL     1       0.257   9.307  20.911  0.00  0.00    +0.000 A 
ATOM     29  C   UNL     1       0.942   8.106  21.108  0.00  0.00    +0.000 A 
ENDBRANCH  23  24
ENDBRANCH  22  23
ENDBRANCH  21  22
ENDBRANCH   8  21
TORSDOF 8
ENDMDL
MODEL 2
REMARK VINA RESULT:      -7.7      3.457      6.081
REMARK  Name = 
REMARK  8 active torsions:
REMARK  status: ('A' for Active; 'I' for Inactive)
REMARK    1  A    between atoms: C_2  and  O_11
REMARK    2  A    between atoms: N_3  and  C_4
REMARK    3  A    between atoms: C_4  and  C_5
REMARK    4  A    between atoms: O_11  and  C_12
REMARK    5  A    between atoms: C_19  and  C_20
REMARK    6  A    between atoms: C_20  and  C_21
REMARK    7  A    between atoms: C_21  and  C_22
REMARK    8  A    between atoms: C_22  and  C_23
REMARK                            x       y       z     vdW  Elec       q    Type
REMARK                         _______ _______ _______ _____ _____    ______ ____
ROOT
ATOM      1  C   UNL     1       6.089   6.936  17.322  0.00  0.00    +0.000 C 
ATOM      2  C   UNL     1       5.458   6.664  15.958  0.00  0.00    +0.000 C 
ATOM      3  O   UNL     1       5.817   5.331  15.565  0.00  0.00    +0.000 OA
ATOM      4  C   UNL     1       6.061   4.573  16.741  0.00  0.00    +0.000 C 
ATOM      5  C   UNL     1       6.348   5.543  17.877  0.00  0.00    +0.000 C 
ATOM      6  O   UNL     1       5.452   5.218  18.953  0.00  0.00    +0.000 OA
ATOM      7  C   UNL     1       5.024   3.870  18.742  0.00  0.00    +0.000 C 
ATOM      8  C   UNL     1       4.893   3.711  17.232  0.00  0.00    +0.000 C 
ENDROOT
BRANCH   1   9
ATOM      9  O   UNL     1       7.357   7.619  17.217  0.00  0.00    +0.000 OA
BRANCH   9  11
ATOM     10  O   UNL     1       8.493   6.567  18.907  0.00  0.00    +0.000 OA
ATOM     11  C   UNL     1       8.124   7.586  18.335  0.00  0.00    +0.000 C 
ATOM     12  N   UNL     1       8.422   8.822  18.818  0.00  0.00    +0.000 N 
ATOM     13  H   UNL     1       8.865   8.801  19.724  0.00  0.00    +0.000 HD
BRANCH  12  14
ATOM     14  C   UNL     1       8.695   9.960  17.974  0.00  0.00    +0.000 C 
BRANCH  14  15
ATOM     15  C   UNL     1       9.760  10.848  18.547  0.00  0.00    +0.000 A 
ATOM     16  C   UNL     1       9.899  11.007  19.933  0.00  0.00    +0.000 A 
ATOM     17  C   UNL     1      10.871  11.865  20.450  0.00  0.00    +0.000 A 
ATOM     18  C   UNL     1      11.710  12.574  19.591  0.00  0.00    +0.000 A 
ATOM     19  C   UNL     1      11.585  12.415  18.209  0.00  0.00    +0.000 A 
ATOM     20  C   UNL     1      10.616  11.560  17.691  0.00  0.00    +0.000 A 
ENDBRANCH  14  15
ENDBRANCH  12  14
ENDBRANCH   9  11
ENDBRANCH   1   9
BRANCH   8  21
ATOM     21  C   UNL     1       3.477   4.087  16.756  0.00  0.00    +0.000 C 
BRANCH  21  22
ATOM     22  C   UNL     1       2.412   2.998  16.924  0.00  0.00    +0.000 C 
BRANCH  22  23
ATOM     23  C   UNL     1       1.223   3.439  17.783  0.00  0.00    +0.000 C 
BRANCH  23  24
ATOM     24  C   UNL     1       1.586   3.534  19.244  0.00  0.00    +0.000 A 
ATOM     25  C   UNL     1       1.750   2.373  20.009  0.00  0.00    +0.000 A 
ATOM     26  C   UNL     1       2.060   2.456  21.368  0.00  0.00    +0.000 A 
ATOM     27  C   UNL     1       2.219   3.704  21.964  0.00  0.00    +0.000 A 
ATOM     28  C   UNL     1       2.086   4.867  21.205  0.00  0.00    +0.000 A 
ATOM     29  C   UNL     1       1.771   4.784  19.846  0.00  0.00    +0.000 A 
ENDBRANCH  23  24
ENDBRANCH  22  23
ENDBRANCH  21  22
ENDBRANCH   8  21
TORSDOF 8
ENDMDL
MODEL 3
REMARK VINA RESULT:      -7.7      1.343      2.065
REMARK  Name = 
REMARK  8 active torsions:
REMARK  status: ('A' for Active; 'I' for Inactive)
REMARK    1  A    between atoms: C_2  and  O_11
REMARK    2  A    between atoms: N_3  and  C_4
REMARK    3  A    between atoms: C_4  and  C_5
REMARK    4  A    between atoms: O_11  and  C_12
REMARK    5  A    between atoms: C_19  and  C_20
REMARK    6  A    between atoms: C_20  and  C_21
REMARK    7  A    between atoms: C_21  and  C_22
REMARK    8  A    between atoms: C_22  and  C_23
REMARK                            x       y       z     vdW  Elec       q    Type
REMARK                         _______ _______ _______ _____ _____    ______ ____
ROOT
ATOM      1  C   UNL     1       5.401   4.376  19.415  0.00  0.00    +0.000 C 
ATOM      2  C   UNL     1       4.860   5.803  19.360  0.00  0.00    +0.000 C 
ATOM      3  O   UNL     1       3.638   5.782  18.607  0.00  0.00    +0.000 OA
ATOM      4  C   UNL     1       3.072   4.484  18.718  0.00  0.00    +0.000 C 
ATOM      5  C   UNL     1       4.176   3.521  19.129  0.00  0.00    +0.000 C 
ATOM      6  O   UNL     1       3.721   2.824  20.300  0.00  0.00    +0.000 OA
ATOM      7  C   UNL     1       2.295   2.931  20.318  0.00  0.00    +0.000 C 
ATOM      8  C   UNL     1       1.980   4.323  19.782  0.00  0.00    +0.000 C 
ENDROOT
BRANCH   1   9
ATOM      9  O   UNL     1       6.378   4.117  18.385  0.00  0.00    +0.000 OA
BRANCH   9  11
ATOM     10  O   UNL     1       7.673   5.966  17.989  0.00  0.00    +0.000 OA
ATOM     11  C   UNL     1       6.769   5.203  17.672  0.00  0.00    +0.000 C 
ATOM     12  N   UNL     1       6.016   5.414  16.558  0.00  0.00    +0.000 N 
ATOM     13  H   UNL     1       6.207   6.295  16.108  0.00  0.00    +0.000 HD
BRANCH  12  14
ATOM     14  C   UNL     1       5.501   4.347  15.734  0.00  0.00    +0.000 C 
BRANCH  14  15
ATOM     15  C   UNL     1       6.103   4.353  14.360  0.00  0.00    +0.000 A 
ATOM     16  C   UNL     1       5.570   3.561  13.334  0.00  0.00    +0.000 A 
ATOM     17  C   UNL     1       6.163   3.550  12.070  0.00  0.00    +0.000 A 
ATOM     18  C   UNL     1       7.294   4.326  11.820  0.00  0.00    +0.000 A 
ATOM     19  C   UNL     1       7.826   5.127  12.833  0.00  0.00    +0.000 A 
ATOM     20  C   UNL     1       7.236   5.139  14.094  0.00  0.00    +0.000 A 
ENDBRANCH  14  15
ENDBRANCH  12  14
ENDBRANCH   9  11
ENDBRANCH   1   9
BRANCH   8  21
ATOM     21  C   UNL     1       1.934   5.358  20.922  0.00  0.00    +0.000 C 
BRANCH  21  22
ATOM     22  C   UNL     1       0.958   6.523  20.718  0.00  0.00    +0.000 C 
BRANCH  22  23
ATOM     23  C   UNL     1       1.654   7.879  20.576  0.00  0.00    +0.000 C 
BRANCH  23  24
ATOM     24  C   UNL     1       0.869   8.990  21.229  0.00  0.00    +0.000 A 
ATOM     25  C   UNL     1       0.726  10.227  20.589  0.00  0.00    +0.000 A 
ATOM     26  C   UNL     1       0.022  11.266  21.200  0.00  0.00    +0.000 A 
ATOM     27  C   UNL     1      -0.552  11.065  22.453  0.00  0.00    +0.000 A 
ATOM     28  C   UNL     1      -0.440   9.829  23.087  0.00  0.00    +0.000 A 
ATOM     29  C   UNL     1       0.267   8.790  22.477  0.00  0.00    +0.000 A 
ENDBRANCH  23  24
ENDBRANCH  22  23
ENDBRANCH  21  22
ENDBRANCH   8  21
TORSDOF 8
ENDMDL
MODEL 4
REMARK VINA RESULT:      -7.6      3.646      6.452
REMARK  Name = 
REMARK  8 active torsions:
REMARK  status: ('A' for Active; 'I' for Inactive)
REMARK    1  A    between atoms: C_2  and  O_11
REMARK    2  A    between atoms: N_3  and  C_4
REMARK    3  A    between atoms: C_4  and  C_5
REMARK    4  A    between atoms: O_11  and  C_12
REMARK    5  A    between atoms: C_19  and  C_20
REMARK    6  A    between atoms: C_20  and  C_21
REMARK    7  A    between atoms: C_21  and  C_22
REMARK    8  A    between atoms: C_22  and  C_23
REMARK                            x       y       z     vdW  Elec       q    Type
REMARK                         _______ _______ _______ _____ _____    ______ ____
ROOT
ATOM      1  C   UNL     1       6.735   6.592  17.396  0.00  0.00    +0.000 C 
ATOM      2  C   UNL     1       5.246   6.929  17.410  0.00  0.00    +0.000 C 
ATOM      3  O   UNL     1       4.767   6.861  16.058  0.00  0.00    +0.000 OA
ATOM      4  C   UNL     1       5.600   5.963  15.338  0.00  0.00    +0.000 C 
ATOM      5  C   UNL     1       6.916   5.834  16.090  0.00  0.00    +0.000 C 
ATOM      6  O   UNL     1       7.147   4.433  16.309  0.00  0.00    +0.000 OA
ATOM      7  C   UNL     1       6.359   3.728  15.347  0.00  0.00    +0.000 C 
ATOM      8  C   UNL     1       5.072   4.531  15.201  0.00  0.00    +0.000 C 
ENDROOT
BRANCH   1   9
ATOM      9  O   UNL     1       7.567   7.771  17.348  0.00  0.00    +0.000 OA
BRANCH   9  11
ATOM     10  O   UNL     1       8.748   7.138  19.208  0.00  0.00    +0.000 OA
ATOM     11  C   UNL     1       8.304   8.004  18.463  0.00  0.00    +0.000 C 
ATOM     12  N   UNL     1       8.476   9.328  18.727  0.00  0.00    +0.000 N 
ATOM     13  H   UNL     1       8.894   9.504  19.627  0.00  0.00    +0.000 HD
BRANCH  12  14
ATOM     14  C   UNL     1       8.667  10.323  17.700  0.00  0.00    +0.000 C 
BRANCH  14  15
ATOM     15  C   UNL     1       9.600  11.415  18.137  0.00  0.00    +0.000 A 
ATOM     16  C   UNL     1       9.583  12.671  17.517  0.00  0.00    +0.000 A 
ATOM     17  C   UNL     1      10.482  13.664  17.910  0.00  0.00    +0.000 A 
ATOM     18  C   UNL     1      11.406  13.412  18.923  0.00  0.00    +0.000 A 
ATOM     19  C   UNL     1      11.424  12.166  19.555  0.00  0.00    +0.000 A 
ATOM     20  C   UNL     1      10.528  11.174  19.164  0.00  0.00    +0.000 A 
ENDBRANCH  14  15
ENDBRANCH  12  14
ENDBRANCH   9  11
ENDBRANCH   1   9
BRANCH   8  21
ATOM     21  C   UNL     1       4.008   4.061  16.211  0.00  0.00    +0.000 C 
BRANCH  21  22
ATOM     22  C   UNL     1       4.534   3.232  17.389  0.00  0.00    +0.000 C 
BRANCH  22  23
ATOM     23  C   UNL     1       3.586   2.105  17.809  0.00  0.00    +0.000 C 
BRANCH  23  24
ATOM     24  C   UNL     1       2.768   2.477  19.021  0.00  0.00    +0.000 A 
ATOM     25  C   UNL     1       3.349   2.475  20.295  0.00  0.00    +0.000 A 
ATOM     26  C   UNL     1       2.590   2.793  21.422  0.00  0.00    +0.000 A 
ATOM     27  C   UNL     1       1.246   3.126  21.276  0.00  0.00    +0.000 A 
ATOM     28  C   UNL     1       0.664   3.157  20.010  0.00  0.00    +0.000 A 
ATOM     29  C   UNL     1       1.423   2.836  18.882  0.00  0.00    +0.000 A 
ENDBRANCH  23  24
ENDBRANCH  22  23
ENDBRANCH  21  22
ENDBRANCH   8  21
TORSDOF 8
ENDMDL
MODEL 5
REMARK VINA RESULT:      -7.6      3.580      6.299
REMARK  Name = 
REMARK  8 active torsions:
REMARK  status: ('A' for Active; 'I' for Inactive)
REMARK    1  A    between atoms: C_2  and  O_11
REMARK    2  A    between atoms: N_3  and  C_4
REMARK    3  A    between atoms: C_4  and  C_5
REMARK    4  A    between atoms: O_11  and  C_12
REMARK    5  A    between atoms: C_19  and  C_20
REMARK    6  A    between atoms: C_20  and  C_21
REMARK    7  A    between atoms: C_21  and  C_22
REMARK    8  A    between atoms: C_22  and  C_23
REMARK                            x       y       z     vdW  Elec       q    Type
REMARK                         _______ _______ _______ _____ _____    ______ ____
ROOT
ATOM      1  C   UNL     1       6.601   6.677  17.447  0.00  0.00    +0.000 C 
ATOM      2  C   UNL     1       5.160   7.008  17.066  0.00  0.00    +0.000 C 
ATOM      3  O   UNL     1       5.044   6.893  15.640  0.00  0.00    +0.000 OA
ATOM      4  C   UNL     1       6.030   5.976  15.188  0.00  0.00    +0.000 C 
ATOM      5  C   UNL     1       7.108   5.877  16.257  0.00  0.00    +0.000 C 
ATOM      6  O   UNL     1       7.270   4.485  16.573  0.00  0.00    +0.000 OA
ATOM      7  C   UNL     1       6.752   3.745  15.464  0.00  0.00    +0.000 C 
ATOM      8  C   UNL     1       5.549   4.537  14.967  0.00  0.00    +0.000 C 
ENDROOT
BRANCH   1   9
ATOM      9  O   UNL     1       7.423   7.858  17.575  0.00  0.00    +0.000 OA
BRANCH   9  11
ATOM     10  O   UNL     1       8.680   6.835  19.196  0.00  0.00    +0.000 OA
ATOM     11  C   UNL     1       8.297   7.842  18.612  0.00  0.00    +0.000 C 
ATOM     12  N   UNL     1       8.694   9.085  18.998  0.00  0.00    +0.000 N 
ATOM     13  H   UNL     1       9.225   9.086  19.855  0.00  0.00    +0.000 HD
BRANCH  12  14
ATOM     14  C   UNL     1       8.927  10.168  18.073  0.00  0.00    +0.000 C 
BRANCH  14  15
ATOM     15  C   UNL     1      10.015  11.088  18.542  0.00  0.00    +0.000 A 
ATOM     16  C   UNL     1      10.258  11.283  19.908  0.00  0.00    +0.000 A 
ATOM     17  C   UNL     1      11.251  12.170  20.329  0.00  0.00    +0.000 A 
ATOM     18  C   UNL     1      12.007  12.872  19.390  0.00  0.00    +0.000 A 
ATOM     19  C   UNL     1      11.779  12.677  18.027  0.00  0.00    +0.000 A 
ATOM     20  C   UNL     1      10.790  11.792  17.605  0.00  0.00    +0.000 A 
ENDBRANCH  14  15
ENDBRANCH  12  14
ENDBRANCH   9  11
ENDBRANCH   1   9
BRANCH   8  21
ATOM     21  C   UNL     1       4.259   4.096  15.684  0.00  0.00    +0.000 C 
BRANCH  21  22
ATOM     22  C   UNL     1       4.461   3.359  17.014  0.00  0.00    +0.000 C 
BRANCH  22  23
ATOM     23  C   UNL     1       3.186   2.691  17.536  0.00  0.00    +0.000 C 
BRANCH  23  24
ATOM     24  C   UNL     1       2.555   3.476  18.659  0.00  0.00    +0.000 A 
ATOM     25  C   UNL     1       1.434   2.974  19.330  0.00  0.00    +0.000 A 
ATOM     26  C   UNL     1       0.830   3.709  20.352  0.00  0.00    +0.000 A 
ATOM     27  C   UNL     1       1.356   4.946  20.714  0.00  0.00    +0.000 A 
ATOM     28  C   UNL     1       2.489   5.443  20.071  0.00  0.00    +0.000 A 
ATOM     29  C   UNL     1       3.091   4.710  19.046  0.00  0.00    +0.000 A 
ENDBRANCH  23  24
ENDBRANCH  22  23
ENDBRANCH  21  22
ENDBRANCH   8  21
TORSDOF 8
ENDMDL
MODEL 6
REMARK VINA RESULT:      -7.6      3.481      7.330
REMARK  Name = 
REMARK  8 active torsions:
REMARK  status: ('A' for Active; 'I' for Inactive)
REMARK    1  A    between atoms: C_2  and  O_11
REMARK    2  A    between atoms: N_3  and  C_4
REMARK    3  A    between atoms: C_4  and  C_5
REMARK    4  A    between atoms: O_11  and  C_12
REMARK    5  A    between atoms: C_19  and  C_20
REMARK    6  A    between atoms: C_20  and  C_21
REMARK    7  A    between atoms: C_21  and  C_22
REMARK    8  A    between atoms: C_22  and  C_23
REMARK                            x       y       z     vdW  Elec       q    Type
REMARK                         _______ _______ _______ _____ _____    ______ ____
ROOT
ATOM      1  C   UNL     1       5.381   4.568  18.607  0.00  0.00    +0.000 C 
ATOM      2  C   UNL     1       6.748   4.541  19.285  0.00  0.00    +0.000 C 
ATOM      3  O   UNL     1       7.750   4.567  18.257  0.00  0.00    +0.000 OA
ATOM      4  C   UNL     1       7.195   5.201  17.114  0.00  0.00    +0.000 C 
ATOM      5  C   UNL     1       5.679   5.137  17.229  0.00  0.00    +0.000 C 
ATOM      6  O   UNL     1       5.183   6.478  17.081  0.00  0.00    +0.000 OA
ATOM      7  C   UNL     1       6.203   7.226  16.415  0.00  0.00    +0.000 C 
ATOM      8  C   UNL     1       7.525   6.688  16.951  0.00  0.00    +0.000 C 
ENDROOT
BRANCH   1   9
ATOM      9  O   UNL     1       4.825   3.247  18.435  0.00  0.00    +0.000 OA
BRANCH   9  11
ATOM     10  O   UNL     1       4.656   2.432  20.571  0.00  0.00    +0.000 OA
ATOM     11  C   UNL     1       4.148   2.761  19.505  0.00  0.00    +0.000 C 
ATOM     12  N   UNL     1       2.814   2.617  19.278  0.00  0.00    +0.000 N 
ATOM     13  H   UNL     1       2.334   2.123  20.014  0.00  0.00    +0.000 HD
BRANCH  12  14
ATOM     14  C   UNL     1       2.040   3.542  18.486  0.00  0.00    +0.000 C 
BRANCH  14  15
ATOM     15  C   UNL     1       2.007   4.915  19.090  0.00  0.00    +0.000 A 
ATOM     16  C   UNL     1       1.681   5.103  20.439  0.00  0.00    +0.000 A 
ATOM     17  C   UNL     1       1.620   6.390  20.978  0.00  0.00    +0.000 A 
ATOM     18  C   UNL     1       1.881   7.499  20.175  0.00  0.00    +0.000 A 
ATOM     19  C   UNL     1       2.217   7.321  18.831  0.00  0.00    +0.000 A 
ATOM     20  C   UNL     1       2.278   6.039  18.292  0.00  0.00    +0.000 A 
ENDBRANCH  14  15
ENDBRANCH  12  14
ENDBRANCH   9  11
ENDBRANCH   1   9
BRANCH   8  21
ATOM     21  C   UNL     1       7.971   7.464  18.205  0.00  0.00    +0.000 C 
BRANCH  21  22
ATOM     22  C   UNL     1       8.215   8.964  18.003  0.00  0.00    +0.000 C 
BRANCH  22  23
ATOM     23  C   UNL     1       9.013   9.607  19.141  0.00  0.00    +0.000 C 
BRANCH  23  24
ATOM     24  C   UNL     1       9.599  10.938  18.740  0.00  0.00    +0.000 A 
ATOM     25  C   UNL     1      10.854  11.331  19.219  0.00  0.00    +0.000 A 
ATOM     26  C   UNL     1      11.390  12.572  18.872  0.00  0.00    +0.000 A 
ATOM     27  C   UNL     1      10.674  13.421  18.032  0.00  0.00    +0.000 A 
ATOM     28  C   UNL     1       9.435  13.028  17.526  0.00  0.00    +0.000 A 
ATOM     29  C   UNL     1       8.897  11.787  17.877  0.00  0.00    +0.000 A 
ENDBRANCH  23  24
ENDBRANCH  22  23
ENDBRANCH  21  22
ENDBRANCH   8  21
TORSDOF 8
ENDMDL
MODEL 7
REMARK VINA RESULT:      -7.6      3.340      5.685
REMARK  Name = 
REMARK  8 active torsions:
REMARK  status: ('A' for Active; 'I' for Inactive)
REMARK    1  A    between atoms: C_2  and  O_11
REMARK    2  A    between atoms: N_3  and  C_4
REMARK    3  A    between atoms: C_4  and  C_5
REMARK    4  A    between atoms: O_11  and  C_12
REMARK    5  A    between atoms: C_19  and  C_20
REMARK    6  A    between atoms: C_20  and  C_21
REMARK    7  A    between atoms: C_21  and  C_22
REMARK    8  A    between atoms: C_22  and  C_23
REMARK                            x       y       z     vdW  Elec       q    Type
REMARK                         _______ _______ _______ _____ _____    ______ ____
ROOT
ATOM      1  C   UNL     1       5.982   6.877  17.330  0.00  0.00    +0.000 C 
ATOM      2  C   UNL     1       5.550   6.334  15.971  0.00  0.00    +0.000 C 
ATOM      3  O   UNL     1       6.094   5.012  15.832  0.00  0.00    +0.000 OA
ATOM      4  C   UNL     1       6.277   4.470  17.131  0.00  0.00    +0.000 C 
ATOM      5  C   UNL     1       6.321   5.624  18.122  0.00  0.00    +0.000 C 
ATOM      6  O   UNL     1       5.345   5.350  19.141  0.00  0.00    +0.000 OA
ATOM      7  C   UNL     1       5.093   3.943  19.104  0.00  0.00    +0.000 C 
ATOM      8  C   UNL     1       5.159   3.550  17.633  0.00  0.00    +0.000 C 
ENDROOT
BRANCH   1   9
ATOM      9  O   UNL     1       7.172   7.690  17.246  0.00  0.00    +0.000 OA
BRANCH   9  11
ATOM     10  O   UNL     1       8.405   6.485  18.757  0.00  0.00    +0.000 OA
ATOM     11  C   UNL     1       8.039   7.554  18.281  0.00  0.00    +0.000 C 
ATOM     12  N   UNL     1       8.447   8.743  18.800  0.00  0.00    +0.000 N 
ATOM     13  H   UNL     1       8.971   8.646  19.656  0.00  0.00    +0.000 HD
BRANCH  12  14
ATOM     14  C   UNL     1       8.699   9.915  17.997  0.00  0.00    +0.000 C 
BRANCH  14  15
ATOM     15  C   UNL     1       9.694  10.837  18.639  0.00  0.00    +0.000 A 
ATOM     16  C   UNL     1      10.689  11.467  17.879  0.00  0.00    +0.000 A 
ATOM     17  C   UNL     1      11.631  12.293  18.496  0.00  0.00    +0.000 A 
ATOM     18  C   UNL     1      11.590  12.495  19.875  0.00  0.00    +0.000 A 
ATOM     19  C   UNL     1      10.596  11.879  20.639  0.00  0.00    +0.000 A 
ATOM     20  C   UNL     1       9.656  11.055  20.026  0.00  0.00    +0.000 A 
ENDBRANCH  14  15
ENDBRANCH  12  14
ENDBRANCH   9  11
ENDBRANCH   1   9
BRANCH   8  21
ATOM     21  C   UNL     1       3.777   3.674  16.964  0.00  0.00    +0.000 C 
BRANCH  21  22
ATOM     22  C   UNL     1       2.667   2.808  17.573  0.00  0.00    +0.000 C 
BRANCH  22  23
ATOM     23  C   UNL     1       1.397   3.597  17.906  0.00  0.00    +0.000 C 
BRANCH  23  24
ATOM     24  C   UNL     1       1.703   4.872  18.652  0.00  0.00    +0.000 A 
ATOM     25  C   UNL     1       1.589   4.921  20.046  0.00  0.00    +0.000 A 
ATOM     26  C   UNL     1       1.845   6.105  20.739  0.00  0.00    +0.000 A 
ATOM     27  C   UNL     1       2.228   7.245  20.037  0.00  0.00    +0.000 A 
ATOM     28  C   UNL     1       2.371   7.201  18.651  0.00  0.00    +0.000 A 
ATOM     29  C   UNL     1       2.111   6.016  17.957  0.00  0.00    +0.000 A 
ENDBRANCH  23  24
ENDBRANCH  22  23
ENDBRANCH  21  22
ENDBRANCH   8  21
TORSDOF 8
ENDMDL
MODEL 8
REMARK VINA RESULT:      -7.6      1.795      8.118
REMARK  Name = 
REMARK  8 active torsions:
REMARK  status: ('A' for Active; 'I' for Inactive)
REMARK    1  A    between atoms: C_2  and  O_11
REMARK    2  A    between atoms: N_3  and  C_4
REMARK    3  A    between atoms: C_4  and  C_5
REMARK    4  A    between atoms: O_11  and  C_12
REMARK    5  A    between atoms: C_19  and  C_20
REMARK    6  A    between atoms: C_20  and  C_21
REMARK    7  A    between atoms: C_21  and  C_22
REMARK    8  A    between atoms: C_22  and  C_23
REMARK                            x       y       z     vdW  Elec       q    Type
REMARK                         _______ _______ _______ _____ _____    ______ ____
ROOT
ATOM      1  C   UNL     1       4.725   3.723  18.542  0.00  0.00    +0.000 C 
ATOM      2  C   UNL     1       3.781   3.883  17.353  0.00  0.00    +0.000 C 
ATOM      3  O   UNL     1       3.746   5.274  17.002  0.00  0.00    +0.000 OA
ATOM      4  C   UNL     1       4.970   5.865  17.414  0.00  0.00    +0.000 C 
ATOM      5  C   UNL     1       5.591   4.971  18.478  0.00  0.00    +0.000 C 
ATOM      6  O   UNL     1       6.933   4.675  18.057  0.00  0.00    +0.000 OA
ATOM      7  C   UNL     1       7.306   5.688  17.120  0.00  0.00    +0.000 C 
ATOM      8  C   UNL     1       6.042   6.003  16.328  0.00  0.00    +0.000 C 
ENDROOT
BRANCH   1   9
ATOM      9  O   UNL     1       4.027   3.727  19.805  0.00  0.00    +0.000 OA
BRANCH   9  11
ATOM     10  O   UNL     1       2.204   2.366  19.527  0.00  0.00    +0.000 OA
ATOM     11  C   UNL     1       2.697   3.469  19.732  0.00  0.00    +0.000 C 
ATOM     12  N   UNL     1       1.926   4.582  19.858  0.00  0.00    +0.000 N 
ATOM     13  H   UNL     1       0.951   4.418  19.659  0.00  0.00    +0.000 HD
BRANCH  12  14
ATOM     14  C   UNL     1       2.246   5.672  20.749  0.00  0.00    +0.000 C 
BRANCH  14  15
ATOM     15  C   UNL     1       1.886   7.006  20.162  0.00  0.00    +0.000 A 
ATOM     16  C   UNL     1       2.196   7.316  18.831  0.00  0.00    +0.000 A 
ATOM     17  C   UNL     1       1.888   8.575  18.310  0.00  0.00    +0.000 A 
ATOM     18  C   UNL     1       1.271   9.534  19.113  0.00  0.00    +0.000 A 
ATOM     19  C   UNL     1       0.950   9.230  20.437  0.00  0.00    +0.000 A 
ATOM     20  C   UNL     1       1.256   7.976  20.959  0.00  0.00    +0.000 A 
ENDBRANCH  14  15
ENDBRANCH  12  14
ENDBRANCH   9  11
ENDBRANCH   1   9
BRANCH   8  21
ATOM     21  C   UNL     1       5.925   5.096  15.088  0.00  0.00    +0.000 C 
BRANCH  21  22
ATOM     22  C   UNL     1       7.250   4.727  14.411  0.00  0.00    +0.000 C 
BRANCH  22  23
ATOM     23  C   UNL     1       7.223   4.902  12.890  0.00  0.00    +0.000 C 
BRANCH  23  24
ATOM     24  C   UNL     1       6.724   3.664  12.187  0.00  0.00    +0.000 A 
ATOM     25  C   UNL     1       5.350   3.441  12.037  0.00  0.00    +0.000 A 
ATOM     26  C   UNL     1       4.882   2.285  11.411  0.00  0.00    +0.000 A 
ATOM     27  C   UNL     1       5.790   1.352  10.920  0.00  0.00    +0.000 A 
ATOM     28  C   UNL     1       7.161   1.577  11.038  0.00  0.00    +0.000 A 
ATOM     29  C   UNL     1       7.630   2.732  11.669  0.00  0.00    +0.000 A 
ENDBRANCH  23  24
ENDBRANCH  22  23
ENDBRANCH  21  22
ENDBRANCH   8  21
TORSDOF 8
ENDMDL
MODEL 9
REMARK VINA RESULT:      -7.5      1.101      1.777
REMARK  Name = 
REMARK  8 active torsions:
REMARK  status: ('A' for Active; 'I' for Inactive)
REMARK    1  A    between atoms: C_2  and  O_11
REMARK    2  A    between atoms: N_3  and  C_4
REMARK    3  A    between atoms: C_4  and  C_5
REMARK    4  A    between atoms: O_11  and  C_12
REMARK    5  A    between atoms: C_19  and  C_20
REMARK    6  A    between atoms: C_20  and  C_21
REMARK    7  A    between atoms: C_21  and  C_22
REMARK    8  A    between atoms: C_22  and  C_23
REMARK                            x       y       z     vdW  Elec       q    Type
REMARK                         _______ _______ _______ _____ _____    ______ ____
ROOT
ATOM      1  C   UNL     1       5.781   4.690  19.227  0.00  0.00    +0.000 C 
ATOM      2  C   UNL     1       4.815   5.866  19.101  0.00  0.00    +0.000 C 
ATOM      3  O   UNL     1       3.639   5.399  18.423  0.00  0.00    +0.000 OA
ATOM      4  C   UNL     1       3.516   4.004  18.659  0.00  0.00    +0.000 C 
ATOM      5  C   UNL     1       4.881   3.474  19.073  0.00  0.00    +0.000 C 
ATOM      6  O   UNL     1       4.707   2.772  20.315  0.00  0.00    +0.000 OA
ATOM      7  C   UNL     1       3.322   2.430  20.407  0.00  0.00    +0.000 C 
ATOM      8  C   UNL     1       2.566   3.601  19.792  0.00  0.00    +0.000 C 
ENDROOT
BRANCH   1   9
ATOM      9  O   UNL     1       6.757   4.663  18.164  0.00  0.00    +0.000 OA
BRANCH   9  11
ATOM     10  O   UNL     1       7.355   6.757  17.450  0.00  0.00    +0.000 OA
ATOM     11  C   UNL     1       6.717   5.719  17.315  0.00  0.00    +0.000 C 
ATOM     12  N   UNL     1       5.842   5.550  16.287  0.00  0.00    +0.000 N 
ATOM     13  H   UNL     1       5.702   6.386  15.740  0.00  0.00    +0.000 HD
BRANCH  12  14
ATOM     14  C   UNL     1       5.624   4.284  15.630  0.00  0.00    +0.000 C 
BRANCH  14  15
ATOM     15  C   UNL     1       6.163   4.273  14.230  0.00  0.00    +0.000 A 
ATOM     16  C   UNL     1       5.577   3.477  13.237  0.00  0.00    +0.000 A 
ATOM     17  C   UNL     1       6.113   3.449  11.947  0.00  0.00    +0.000 A 
ATOM     18  C   UNL     1       7.238   4.212  11.639  0.00  0.00    +0.000 A 
ATOM     19  C   UNL     1       7.823   5.016  12.620  0.00  0.00    +0.000 A 
ATOM     20  C   UNL     1       7.291   5.045  13.907  0.00  0.00    +0.000 A 
ENDBRANCH  14  15
ENDBRANCH  12  14
ENDBRANCH   9  11
ENDBRANCH   1   9
BRANCH   8  21
ATOM     21  C   UNL     1       2.231   4.664  20.855  0.00  0.00    +0.000 C 
BRANCH  21  22
ATOM     22  C   UNL     1       1.350   5.824  20.376  0.00  0.00    +0.000 C 
BRANCH  22  23
ATOM     23  C   UNL     1       1.739   7.173  20.987  0.00  0.00    +0.000 C 
BRANCH  23  24
ATOM     24  C   UNL     1       1.434   8.323  20.059  0.00  0.00    +0.000 A 
ATOM     25  C   UNL     1       0.639   9.390  20.494  0.00  0.00    +0.000 A 
ATOM     26  C   UNL     1       0.332  10.444  19.632  0.00  0.00    +0.000 A 
ATOM     27  C   UNL     1       0.831  10.439  18.332  0.00  0.00    +0.000 A 
ATOM     28  C   UNL     1       1.647   9.395  17.897  0.00  0.00    +0.000 A 
ATOM     29  C   UNL     1       1.951   8.338  18.759  0.00  0.00    +0.000 A 
ENDBRANCH  23  24
ENDBRANCH  22  23
ENDBRANCH  21  22
ENDBRANCH   8  21
TORSDOF 8
ENDMDL
