MODEL 1
REMARK VINA RESULT:      -8.0      0.000      0.000
REMARK  Name = 
REMARK  6 active torsions:
REMARK  status: ('A' for Active; 'I' for Inactive)
REMARK    1  A    between atoms: C_1  and  C_2
REMARK    2  A    between atoms: C_2  and  O_3
REMARK    3  A    between atoms: O_3  and  C_4
REMARK    4  A    between atoms: C_4  and  C_6
REMARK    5  A    between atoms: N_15  and  C_16
REMARK    6  A    between atoms: C_19  and  C_20
REMARK                            x       y       z     vdW  Elec       q    Type
REMARK                         _______ _______ _______ _____ _____    ______ ____
ROOT
ATOM      1  C   UNL     1       6.057   5.454  15.627  0.00  0.00    +0.000 A 
ATOM      2  N   UNL     1       5.191   6.393  15.362  0.00  0.00    +0.000 NA
ATOM      3  N   UNL     1       4.323   6.852  16.379  0.00  0.00    +0.000 NA
ATOM      4  C   UNL     1       4.285   6.251  17.522  0.00  0.00    +0.000 A 
ATOM      5  N   UNL     1       5.115   5.193  17.813  0.00  0.00    +0.000 N 
ATOM      6  C   UNL     1       6.155   4.860  17.005  0.00  0.00    +0.000 A 
ATOM      7  O   UNL     1       7.120   4.196  17.349  0.00  0.00    +0.000 OA
ATOM      8  C   UNL     1       4.999   4.818  19.199  0.00  0.00    +0.000 C 
ATOM      9  C   UNL     1       3.664   5.428  19.626  0.00  0.00    +0.000 C 
ATOM     10  N   UNL     1       3.481   6.480  18.625  0.00  0.00    +0.000 N 
ENDROOT
BRANCH  10  11
ATOM     11  C   UNL     1       2.592   7.531  18.851  0.00  0.00    +0.000 A 
ATOM     12  C   UNL     1       2.001   7.731  20.105  0.00  0.00    +0.000 A 
ATOM     13  C   UNL     1       1.085   8.766  20.329  0.00  0.00    +0.000 A 
ATOM     14  C   UNL     1       0.743   9.647  19.302  0.00  0.00    +0.000 A 
ATOM     15  C   UNL     1      -0.221  10.773  19.537  0.00  0.00    +0.000 C 
ATOM     16  C   UNL     1       1.323   9.472  18.048  0.00  0.00    +0.000 A 
ATOM     17  C   UNL     1       2.230   8.424  17.824  0.00  0.00    +0.000 A 
ENDBRANCH  10  11
BRANCH   1  18
ATOM     18  C   UNL     1       6.985   4.971  14.530  0.00  0.00    +0.000 C 
ATOM     19  O   UNL     1       7.980   5.598  14.203  0.00  0.00    +0.000 OA
BRANCH  18  20
ATOM     20  O   UNL     1       6.479   3.877  13.923  0.00  0.00    +0.000 OA
BRANCH  20  22
ATOM     21  C   UNL     1       5.653   2.870  11.940  0.00  0.00    +0.000 C 
ATOM     22  C   UNL     1       6.672   3.845  12.504  0.00  0.00    +0.000 C 
ENDBRANCH  20  22
ENDBRANCH  18  20
ENDBRANCH   1  18
TORSDOF 4
ENDMDL
MODEL 2
REMARK VINA RESULT:      -7.9      0.137      1.031
REMARK  Name = 
REMARK  6 active torsions:
REMARK  status: ('A' for Active; 'I' for Inactive)
REMARK    1  A    between atoms: C_1  and  C_2
REMARK    2  A    between atoms: C_2  and  O_3
REMARK    3  A    between atoms: O_3  and  C_4
REMARK    4  A    between atoms: C_4  and  C_6
REMARK    5  A    between atoms: N_15  and  C_16
REMARK    6  A    between atoms: C_19  and  C_20
REMARK                            x       y       z     vdW  Elec       q    Type
REMARK                         _______ _______ _______ _____ _____    ______ ____
ROOT
ATOM      1  C   UNL     1       6.029   5.499  15.734  0.00  0.00    +0.000 A 
ATOM      2  N   UNL     1       5.177   6.443  15.448  0.00  0.00    +0.000 NA
ATOM      3  N   UNL     1       4.280   6.903  16.439  0.00  0.00    +0.000 NA
ATOM      4  C   UNL     1       4.204   6.297  17.578  0.00  0.00    +0.000 A 
ATOM      5  N   UNL     1       5.019   5.234  17.889  0.00  0.00    +0.000 N 
ATOM      6  C   UNL     1       6.082   4.898  17.112  0.00  0.00    +0.000 A 
ATOM      7  O   UNL     1       7.033   4.228  17.483  0.00  0.00    +0.000 OA
ATOM      8  C   UNL     1       4.858   4.853  19.269  0.00  0.00    +0.000 C 
ATOM      9  C   UNL     1       3.514   5.468  19.658  0.00  0.00    +0.000 C 
ATOM     10  N   UNL     1       3.367   6.526  18.656  0.00  0.00    +0.000 N 
ENDROOT
BRANCH  10  11
ATOM     11  C   UNL     1       2.477   7.580  18.860  0.00  0.00    +0.000 A 
ATOM     12  C   UNL     1       2.132   8.456  17.823  0.00  0.00    +0.000 A 
ATOM     13  C   UNL     1       1.263   9.534  18.030  0.00  0.00    +0.000 A 
ATOM     14  C   UNL     1       0.697   9.759  19.286  0.00  0.00    +0.000 A 
ATOM     15  C   UNL     1      -0.253  10.899  19.513  0.00  0.00    +0.000 C 
ATOM     16  C   UNL     1       1.020   8.897  20.331  0.00  0.00    +0.000 A 
ATOM     17  C   UNL     1       1.903   7.826  20.122  0.00  0.00    +0.000 A 
ENDBRANCH  10  11
BRANCH   1  18
ATOM     18  C   UNL     1       6.988   5.016  14.664  0.00  0.00    +0.000 C 
ATOM     19  O   UNL     1       7.996   5.639  14.370  0.00  0.00    +0.000 OA
BRANCH  18  20
ATOM     20  O   UNL     1       6.496   3.927  14.038  0.00  0.00    +0.000 OA
BRANCH  20  22
ATOM     21  C   UNL     1       5.580   3.045  12.035  0.00  0.00    +0.000 C 
ATOM     22  C   UNL     1       6.664   3.936  12.616  0.00  0.00    +0.000 C 
ENDBRANCH  20  22
ENDBRANCH  18  20
ENDBRANCH   1  18
TORSDOF 4
ENDMDL
MODEL 3
REMARK VINA RESULT:      -7.8      1.220      1.632
REMARK  Name = 
REMARK  6 active torsions:
REMARK  status: ('A' for Active; 'I' for Inactive)
REMARK    1  A    between atoms: C_1  and  C_2
REMARK    2  A    between atoms: C_2  and  O_3
REMARK    3  A    between atoms: O_3  and  C_4
REMARK    4  A    between atoms: C_4  and  C_6
REMARK    5  A    between atoms: N_15  and  C_16
REMARK    6  A    between atoms: C_19  and  C_20
REMARK                            x       y       z     vdW  Elec       q    Type
REMARK                         _______ _______ _______ _____ _____    ______ ____
ROOT
ATOM      1  C   UNL     1       5.655   5.077  17.353  0.00  0.00    +0.000 A 
ATOM      2  N   UNL     1       5.236   6.244  16.947  0.00  0.00    +0.000 NA
ATOM      3  N   UNL     1       4.196   6.898  17.646  0.00  0.00    +0.000 NA
ATOM      4  C   UNL     1       3.563   6.285  18.592  0.00  0.00    +0.000 A 
ATOM      5  N   UNL     1       3.910   5.015  18.991  0.00  0.00    +0.000 N 
ATOM      6  C   UNL     1       5.054   4.420  18.565  0.00  0.00    +0.000 A 
ATOM      7  O   UNL     1       5.602   3.483  19.123  0.00  0.00    +0.000 OA
ATOM      8  C   UNL     1       3.173   4.630  20.168  0.00  0.00    +0.000 C 
ATOM      9  C   UNL     1       1.987   5.594  20.181  0.00  0.00    +0.000 C 
ATOM     10  N   UNL     1       2.486   6.696  19.357  0.00  0.00    +0.000 N 
ENDROOT
BRANCH  10  11
ATOM     11  C   UNL     1       1.887   7.955  19.413  0.00  0.00    +0.000 A 
ATOM     12  C   UNL     1       1.371   8.467  20.610  0.00  0.00    +0.000 A 
ATOM     13  C   UNL     1       0.742   9.716  20.665  0.00  0.00    +0.000 A 
ATOM     14  C   UNL     1       0.624  10.503  19.517  0.00  0.00    +0.000 A 
ATOM     15  C   UNL     1      -0.029  11.853  19.570  0.00  0.00    +0.000 C 
ATOM     16  C   UNL     1       1.135  10.017  18.316  0.00  0.00    +0.000 A 
ATOM     17  C   UNL     1       1.753   8.758  18.264  0.00  0.00    +0.000 A 
ENDBRANCH  10  11
BRANCH   1  18
ATOM     18  C   UNL     1       6.773   4.387  16.597  0.00  0.00    +0.000 C 
ATOM     19  O   UNL     1       7.941   4.484  16.940  0.00  0.00    +0.000 OA
BRANCH  18  20
ATOM     20  O   UNL     1       6.303   3.803  15.477  0.00  0.00    +0.000 OA
BRANCH  20  22
ATOM     21  C   UNL     1       6.019   3.712  13.123  0.00  0.00    +0.000 C 
ATOM     22  C   UNL     1       6.723   4.432  14.260  0.00  0.00    +0.000 C 
ENDBRANCH  20  22
ENDBRANCH  18  20
ENDBRANCH   1  18
TORSDOF 4
ENDMDL
MODEL 4
REMARK VINA RESULT:      -7.7      1.213      1.898
REMARK  Name = 
REMARK  6 active torsions:
REMARK  status: ('A' for Active; 'I' for Inactive)
REMARK    1  A    between atoms: C_1  and  C_2
REMARK    2  A    between atoms: C_2  and  O_3
REMARK    3  A    between atoms: O_3  and  C_4
REMARK    4  A    between atoms: C_4  and  C_6
REMARK    5  A    between atoms: N_15  and  C_16
REMARK    6  A    between atoms: C_19  and  C_20
REMARK                            x       y       z     vdW  Elec       q    Type
REMARK                         _______ _______ _______ _____ _____    ______ ____
ROOT
ATOM      1  C   UNL     1       5.670   5.084  17.314  0.00  0.00    +0.000 A 
ATOM      2  N   UNL     1       5.243   6.240  16.886  0.00  0.00    +0.000 NA
ATOM      3  N   UNL     1       4.200   6.901  17.574  0.00  0.00    +0.000 NA
ATOM      4  C   UNL     1       3.572   6.303  18.533  0.00  0.00    +0.000 A 
ATOM      5  N   UNL     1       3.927   5.043  18.956  0.00  0.00    +0.000 N 
ATOM      6  C   UNL     1       5.075   4.447  18.540  0.00  0.00    +0.000 A 
ATOM      7  O   UNL     1       5.629   3.524  19.115  0.00  0.00    +0.000 OA
ATOM      8  C   UNL     1       3.195   4.677  20.142  0.00  0.00    +0.000 C 
ATOM      9  C   UNL     1       2.002   5.633  20.138  0.00  0.00    +0.000 C 
ATOM     10  N   UNL     1       2.494   6.722  19.291  0.00  0.00    +0.000 N 
ENDROOT
BRANCH  10  11
ATOM     11  C   UNL     1       1.887   7.978  19.323  0.00  0.00    +0.000 A 
ATOM     12  C   UNL     1       1.806   8.780  18.178  0.00  0.00    +0.000 A 
ATOM     13  C   UNL     1       1.225  10.053  18.211  0.00  0.00    +0.000 A 
ATOM     14  C   UNL     1       0.689  10.558  19.397  0.00  0.00    +0.000 A 
ATOM     15  C   UNL     1       0.044  11.913  19.439  0.00  0.00    +0.000 C 
ATOM     16  C   UNL     1       0.751   9.776  20.548  0.00  0.00    +0.000 A 
ATOM     17  C   UNL     1       1.348   8.505  20.512  0.00  0.00    +0.000 A 
ENDBRANCH  10  11
BRANCH   1  18
ATOM     18  C   UNL     1       6.791   4.386  16.571  0.00  0.00    +0.000 C 
ATOM     19  O   UNL     1       7.959   4.497  16.910  0.00  0.00    +0.000 OA
BRANCH  18  20
ATOM     20  O   UNL     1       6.323   3.777  15.462  0.00  0.00    +0.000 OA
BRANCH  20  22
ATOM     21  C   UNL     1       5.924   3.727  13.124  0.00  0.00    +0.000 C 
ATOM     22  C   UNL     1       6.700   4.412  14.234  0.00  0.00    +0.000 C 
ENDBRANCH  20  22
ENDBRANCH  18  20
ENDBRANCH   1  18
TORSDOF 4
ENDMDL
MODEL 5
REMARK VINA RESULT:      -7.2      3.028      4.015
REMARK  Name = 
REMARK  6 active torsions:
REMARK  status: ('A' for Active; 'I' for Inactive)
REMARK    1  A    between atoms: C_1  and  C_2
REMARK    2  A    between atoms: C_2  and  O_3
REMARK    3  A    between atoms: O_3  and  C_4
REMARK    4  A    between atoms: C_4  and  C_6
REMARK    5  A    between atoms: N_15  and  C_16
REMARK    6  A    between atoms: C_19  and  C_20
REMARK                            x       y       z     vdW  Elec       q    Type
REMARK                         _______ _______ _______ _____ _____    ______ ____
ROOT
ATOM      1  C   UNL     1       6.359   3.994  13.891  0.00  0.00    +0.000 A 
ATOM      2  N   UNL     1       5.305   3.383  14.358  0.00  0.00    +0.000 NA
ATOM      3  N   UNL     1       4.949   3.538  15.717  0.00  0.00    +0.000 NA
ATOM      4  C   UNL     1       5.739   4.162  16.528  0.00  0.00    +0.000 A 
ATOM      5  N   UNL     1       6.910   4.741  16.098  0.00  0.00    +0.000 N 
ATOM      6  C   UNL     1       7.197   4.874  14.777  0.00  0.00    +0.000 A 
ATOM      7  O   UNL     1       8.006   5.663  14.315  0.00  0.00    +0.000 OA
ATOM      8  C   UNL     1       7.514   5.517  17.151  0.00  0.00    +0.000 C 
ATOM      9  C   UNL     1       6.858   4.973  18.420  0.00  0.00    +0.000 C 
ATOM     10  N   UNL     1       5.631   4.375  17.891  0.00  0.00    +0.000 N 
ENDROOT
BRANCH  10  11
ATOM     11  C   UNL     1       4.552   4.101  18.733  0.00  0.00    +0.000 A 
ATOM     12  C   UNL     1       4.490   2.917  19.478  0.00  0.00    +0.000 A 
ATOM     13  C   UNL     1       3.396   2.623  20.301  0.00  0.00    +0.000 A 
ATOM     14  C   UNL     1       2.332   3.519  20.415  0.00  0.00    +0.000 A 
ATOM     15  C   UNL     1       1.165   3.224  21.311  0.00  0.00    +0.000 C 
ATOM     16  C   UNL     1       2.375   4.707  19.689  0.00  0.00    +0.000 A 
ATOM     17  C   UNL     1       3.468   4.990  18.854  0.00  0.00    +0.000 A 
ENDBRANCH  10  11
BRANCH   1  18
ATOM     18  C   UNL     1       6.729   3.822  12.431  0.00  0.00    +0.000 C 
ATOM     19  O   UNL     1       7.423   4.635  11.840  0.00  0.00    +0.000 OA
BRANCH  18  20
ATOM     20  O   UNL     1       6.087   2.763  11.897  0.00  0.00    +0.000 OA
BRANCH  20  22
ATOM     21  C   UNL     1       6.186   0.506  11.172  0.00  0.00    +0.000 C 
ATOM     22  C   UNL     1       6.944   1.820  11.242  0.00  0.00    +0.000 C 
ENDBRANCH  20  22
ENDBRANCH  18  20
ENDBRANCH   1  18
TORSDOF 4
ENDMDL
MODEL 6
REMARK VINA RESULT:      -7.2      4.050      7.516
REMARK  Name = 
REMARK  6 active torsions:
REMARK  status: ('A' for Active; 'I' for Inactive)
REMARK    1  A    between atoms: C_1  and  C_2
REMARK    2  A    between atoms: C_2  and  O_3
REMARK    3  A    between atoms: O_3  and  C_4
REMARK    4  A    between atoms: C_4  and  C_6
REMARK    5  A    between atoms: N_15  and  C_16
REMARK    6  A    between atoms: C_19  and  C_20
REMARK                            x       y       z     vdW  Elec       q    Type
REMARK                         _______ _______ _______ _____ _____    ______ ____
ROOT
ATOM      1  C   UNL     1       1.191  10.059  18.806  0.00  0.00    +0.000 A 
ATOM      2  N   UNL     1       1.935   9.902  17.747  0.00  0.00    +0.000 NA
ATOM      3  N   UNL     1       2.613   8.679  17.540  0.00  0.00    +0.000 NA
ATOM      4  C   UNL     1       2.614   7.773  18.462  0.00  0.00    +0.000 A 
ATOM      5  N   UNL     1       1.919   7.935  19.638  0.00  0.00    +0.000 N 
ATOM      6  C   UNL     1       1.032   8.949  19.809  0.00  0.00    +0.000 A 
ATOM      7  O   UNL     1       0.141   8.963  20.644  0.00  0.00    +0.000 OA
ATOM      8  C   UNL     1       1.939   6.721  20.415  0.00  0.00    +0.000 C 
ATOM      9  C   UNL     1       3.117   5.941  19.833  0.00  0.00    +0.000 C 
ATOM     10  N   UNL     1       3.253   6.546  18.507  0.00  0.00    +0.000 N 
ENDROOT
BRANCH  10  11
ATOM     11  C   UNL     1       3.951   5.890  17.493  0.00  0.00    +0.000 A 
ATOM     12  C   UNL     1       3.885   4.499  17.342  0.00  0.00    +0.000 A 
ATOM     13  C   UNL     1       4.607   3.833  16.345  0.00  0.00    +0.000 A 
ATOM     14  C   UNL     1       5.410   4.546  15.452  0.00  0.00    +0.000 A 
ATOM     15  C   UNL     1       6.170   3.843  14.366  0.00  0.00    +0.000 C 
ATOM     16  C   UNL     1       5.485   5.931  15.578  0.00  0.00    +0.000 A 
ATOM     17  C   UNL     1       4.770   6.593  16.589  0.00  0.00    +0.000 A 
ENDBRANCH  10  11
BRANCH   1  18
ATOM     18  C   UNL     1       0.466  11.374  19.016  0.00  0.00    +0.000 C 
ATOM     19  O   UNL     1       0.723  12.111  19.954  0.00  0.00    +0.000 OA
BRANCH  18  20
ATOM     20  O   UNL     1      -0.540  11.511  18.128  0.00  0.00    +0.000 OA
BRANCH  20  22
ATOM     21  C   UNL     1      -2.356  10.024  17.786  0.00  0.00    +0.000 C 
ATOM     22  C   UNL     1      -1.832  11.165  18.639  0.00  0.00    +0.000 C 
ENDBRANCH  20  22
ENDBRANCH  18  20
ENDBRANCH   1  18
TORSDOF 4
ENDMDL
MODEL 7
REMARK VINA RESULT:      -7.2      3.055      4.050
REMARK  Name = 
REMARK  6 active torsions:
REMARK  status: ('A' for Active; 'I' for Inactive)
REMARK    1  A    between atoms: C_1  and  C_2
REMARK    2  A    between atoms: C_2  and  O_3
REMARK    3  A    between atoms: O_3  and  C_4
REMARK    4  A    between atoms: C_4  and  C_6
REMARK    5  A    between atoms: N_15  and  C_16
REMARK    6  A    between atoms: C_19  and  C_20
REMARK                            x       y       z     vdW  Elec       q    Type
REMARK                         _______ _______ _______ _____ _____    ______ ____
ROOT
ATOM      1  C   UNL     1       6.412   4.087  14.138  0.00  0.00    +0.000 A 
ATOM      2  N   UNL     1       5.396   3.420  14.612  0.00  0.00    +0.000 NA
ATOM      3  N   UNL     1       5.036   3.563  15.971  0.00  0.00    +0.000 NA
ATOM      4  C   UNL     1       5.791   4.236  16.777  0.00  0.00    +0.000 A 
ATOM      5  N   UNL     1       6.926   4.878  16.339  0.00  0.00    +0.000 N 
ATOM      6  C   UNL     1       7.201   5.019  15.017  0.00  0.00    +0.000 A 
ATOM      7  O   UNL     1       7.962   5.850  14.547  0.00  0.00    +0.000 OA
ATOM      8  C   UNL     1       7.487   5.694  17.386  0.00  0.00    +0.000 C 
ATOM      9  C   UNL     1       6.867   5.121  18.660  0.00  0.00    +0.000 C 
ATOM     10  N   UNL     1       5.674   4.451  18.138  0.00  0.00    +0.000 N 
ENDROOT
BRANCH  10  11
ATOM     11  C   UNL     1       4.616   4.120  18.985  0.00  0.00    +0.000 A 
ATOM     12  C   UNL     1       3.675   5.077  19.387  0.00  0.00    +0.000 A 
ATOM     13  C   UNL     1       2.629   4.757  20.261  0.00  0.00    +0.000 A 
ATOM     14  C   UNL     1       2.483   3.457  20.749  0.00  0.00    +0.000 A 
ATOM     15  C   UNL     1       1.353   3.099  21.668  0.00  0.00    +0.000 C 
ATOM     16  C   UNL     1       3.403   2.487  20.358  0.00  0.00    +0.000 A 
ATOM     17  C   UNL     1       4.459   2.816  19.492  0.00  0.00    +0.000 A 
ENDBRANCH  10  11
BRANCH   1  18
ATOM     18  C   UNL     1       6.788   3.928  12.678  0.00  0.00    +0.000 C 
ATOM     19  O   UNL     1       7.488   4.743  12.099  0.00  0.00    +0.000 OA
BRANCH  18  20
ATOM     20  O   UNL     1       6.143   2.877  12.131  0.00  0.00    +0.000 OA
BRANCH  20  22
ATOM     21  C   UNL     1       6.167   0.767  11.046  0.00  0.00    +0.000 C 
ATOM     22  C   UNL     1       6.974   2.020  11.338  0.00  0.00    +0.000 C 
ENDBRANCH  20  22
ENDBRANCH  18  20
ENDBRANCH   1  18
TORSDOF 4
ENDMDL
MODEL 8
REMARK VINA RESULT:      -7.1      3.512      4.919
REMARK  Name = 
REMARK  6 active torsions:
REMARK  status: ('A' for Active; 'I' for Inactive)
REMARK    1  A    between atoms: C_1  and  C_2
REMARK    2  A    between atoms: C_2  and  O_3
REMARK    3  A    between atoms: O_3  and  C_4
REMARK    4  A    between atoms: C_4  and  C_6
REMARK    5  A    between atoms: N_15  and  C_16
REMARK    6  A    between atoms: C_19  and  C_20
REMARK                            x       y       z     vdW  Elec       q    Type
REMARK                         _______ _______ _______ _____ _____    ______ ____
ROOT
ATOM      1  C   UNL     1       3.181   4.661  19.661  0.00  0.00    +0.000 A 
ATOM      2  N   UNL     1       2.611   5.064  20.762  0.00  0.00    +0.000 NA
ATOM      3  N   UNL     1       2.008   6.341  20.814  0.00  0.00    +0.000 NA
ATOM      4  C   UNL     1       2.144   7.165  19.827  0.00  0.00    +0.000 A 
ATOM      5  N   UNL     1       2.820   6.816  18.680  0.00  0.00    +0.000 N 
ATOM      6  C   UNL     1       3.195   5.534  18.435  0.00  0.00    +0.000 A 
ATOM      7  O   UNL     1       3.465   5.085  17.333  0.00  0.00    +0.000 OA
ATOM      8  C   UNL     1       2.679   7.837  17.674  0.00  0.00    +0.000 C 
ATOM      9  C   UNL     1       2.254   9.071  18.469  0.00  0.00    +0.000 C 
ATOM     10  N   UNL     1       1.705   8.469  19.686  0.00  0.00    +0.000 N 
ENDROOT
BRANCH  10  11
ATOM     11  C   UNL     1       0.859   9.199  20.522  0.00  0.00    +0.000 A 
ATOM     12  C   UNL     1       0.012  10.193  20.017  0.00  0.00    +0.000 A 
ATOM     13  C   UNL     1      -0.816  10.949  20.855  0.00  0.00    +0.000 A 
ATOM     14  C   UNL     1      -0.833  10.719  22.232  0.00  0.00    +0.000 A 
ATOM     15  C   UNL     1      -1.733  11.508  23.136  0.00  0.00    +0.000 C 
ATOM     16  C   UNL     1      -0.003   9.731  22.756  0.00  0.00    +0.000 A 
ATOM     17  C   UNL     1       0.836   8.985  21.913  0.00  0.00    +0.000 A 
ENDBRANCH  10  11
BRANCH   1  18
ATOM     18  C   UNL     1       3.821   3.288  19.616  0.00  0.00    +0.000 C 
ATOM     19  O   UNL     1       5.014   3.138  19.401  0.00  0.00    +0.000 OA
BRANCH  18  20
ATOM     20  O   UNL     1       2.885   2.321  19.707  0.00  0.00    +0.000 OA
BRANCH  20  22
ATOM     21  C   UNL     1       0.711   2.345  18.758  0.00  0.00    +0.000 C 
ATOM     22  C   UNL     1       2.179   2.064  18.488  0.00  0.00    +0.000 C 
ENDBRANCH  20  22
ENDBRANCH  18  20
ENDBRANCH   1  18
TORSDOF 4
ENDMDL
MODEL 9
REMARK VINA RESULT:      -7.0      1.334      1.661
REMARK  Name = 
REMARK  6 active torsions:
REMARK  status: ('A' for Active; 'I' for Inactive)
REMARK    1  A    between atoms: C_1  and  C_2
REMARK    2  A    between atoms: C_2  and  O_3
REMARK    3  A    between atoms: O_3  and  C_4
REMARK    4  A    between atoms: C_4  and  C_6
REMARK    5  A    between atoms: N_15  and  C_16
REMARK    6  A    between atoms: C_19  and  C_20
REMARK                            x       y       z     vdW  Elec       q    Type
REMARK                         _______ _______ _______ _____ _____    ______ ____
ROOT
ATOM      1  C   UNL     1       6.016   5.298  16.746  0.00  0.00    +0.000 A 
ATOM      2  N   UNL     1       5.892   6.571  17.002  0.00  0.00    +0.000 NA
ATOM      3  N   UNL     1       4.698   7.056  17.583  0.00  0.00    +0.000 NA
ATOM      4  C   UNL     1       3.680   6.273  17.728  0.00  0.00    +0.000 A 
ATOM      5  N   UNL     1       3.735   4.942  17.382  0.00  0.00    +0.000 N 
ATOM      6  C   UNL     1       4.909   4.334  17.072  0.00  0.00    +0.000 A 
ATOM      7  O   UNL     1       5.099   3.128  17.104  0.00  0.00    +0.000 OA
ATOM      8  C   UNL     1       2.539   4.256  17.801  0.00  0.00    +0.000 C 
ATOM      9  C   UNL     1       1.530   5.385  18.008  0.00  0.00    +0.000 C 
ATOM     10  N   UNL     1       2.408   6.540  18.202  0.00  0.00    +0.000 N 
ENDROOT
BRANCH  10  11
ATOM     11  C   UNL     1       1.929   7.706  18.800  0.00  0.00    +0.000 A 
ATOM     12  C   UNL     1       1.710   7.783  20.181  0.00  0.00    +0.000 A 
ATOM     13  C   UNL     1       1.200   8.941  20.781  0.00  0.00    +0.000 A 
ATOM     14  C   UNL     1       0.908  10.069  20.013  0.00  0.00    +0.000 A 
ATOM     15  C   UNL     1       0.382  11.322  20.649  0.00  0.00    +0.000 C 
ATOM     16  C   UNL     1       1.123  10.018  18.638  0.00  0.00    +0.000 A 
ATOM     17  C   UNL     1       1.621   8.850  18.039  0.00  0.00    +0.000 A 
ENDBRANCH  10  11
BRANCH   1  18
ATOM     18  C   UNL     1       7.302   4.789  16.126  0.00  0.00    +0.000 C 
ATOM     19  O   UNL     1       8.145   4.196  16.781  0.00  0.00    +0.000 OA
BRANCH  18  20
ATOM     20  O   UNL     1       7.410   5.199  14.846  0.00  0.00    +0.000 OA
BRANCH  20  22
ATOM     21  C   UNL     1       7.305   4.677  12.534  0.00  0.00    +0.000 C 
ATOM     22  C   UNL     1       6.713   4.379  13.900  0.00  0.00    +0.000 C 
ENDBRANCH  20  22
ENDBRANCH  18  20
ENDBRANCH   1  18
TORSDOF 4
ENDMDL
