MODEL 1
REMARK VINA RESULT:      -7.5      0.000      0.000
REMARK  Name = 
REMARK  12 active torsions:
REMARK  status: ('A' for Active; 'I' for Inactive)
REMARK    1  A    between atoms: C_1  and  S_2
REMARK    2  A    between atoms: S_2  and  C_3
REMARK    3  A    between atoms: C_3  and  C_4
REMARK    4  A    between atoms: C_4  and  C_5
REMARK    5  A    between atoms: C_5  and  N_6
REMARK    6  A    between atoms: C_5  and  C_16
REMARK    7  A    between atoms: C_7  and  C_9
REMARK    8  A    between atoms: C_12  and  C_13
REMARK    9  A    between atoms: N_18  and  C_19
REMARK   10  A    between atoms: C_19  and  C_20
REMARK   11  A    between atoms: C_20  and  N_21
REMARK   12  A    between atoms: C_24  and  C_25
REMARK                            x       y       z     vdW  Elec       q    Type
REMARK                         _______ _______ _______ _____ _____    ______ ____
ROOT
ATOM      1  C   UNL     1       6.012   5.963  15.925  0.00  0.00    +0.000 C 
ENDROOT
BRANCH   1   2
ATOM      2  N   UNL     1       5.003   5.321  16.796  0.00  0.00    +0.000 N 
ATOM      3  C   UNL     1       3.980   5.936  17.487  0.00  0.00    +0.000 C 
ATOM      4  O   UNL     1       3.695   7.119  17.351  0.00  0.00    +0.000 OA
ATOM      5  H   UNL     1       5.373   4.484  17.244  0.00  0.00    +0.000 HD
BRANCH   3   6
ATOM      6  C   UNL     1       3.318   5.033  18.551  0.00  0.00    +0.000 C 
ATOM      7  C   UNL     1       2.793   5.792  19.784  0.00  0.00    +0.000 C 
ATOM      8  C   UNL     1       2.310   4.826  20.874  0.00  0.00    +0.000 C 
ATOM      9  C   UNL     1       1.302   3.777  20.362  0.00  0.00    +0.000 C 
ATOM     10  C   UNL     1       1.043   2.698  21.419  0.00  0.00    +0.000 C 
ATOM     11  C   UNL     1       1.772   3.126  19.054  0.00  0.00    +0.000 C 
ATOM     12  C   UNL     1       2.172   4.166  18.010  0.00  0.00    +0.000 C 
ENDBRANCH   3   6
ENDBRANCH   1   2
BRANCH   1  13
ATOM     13  C   UNL     1       7.093   6.462  16.950  0.00  0.00    +0.000 C 
ATOM     14  O   UNL     1       7.840   5.644  17.498  0.00  0.00    +0.000 OA
ATOM     15  N   UNL     1       7.168   7.812  17.239  0.00  0.00    +0.000 N 
ATOM     16  H   UNL     1       6.749   8.480  16.608  0.00  0.00    +0.000 HD
BRANCH  15  17
ATOM     17  C   UNL     1       8.262   8.313  18.063  0.00  0.00    +0.000 C 
BRANCH  17  18
ATOM     18  C   UNL     1       8.317   9.854  18.149  0.00  0.00    +0.000 C 
BRANCH  18  19
ATOM     19  N   UNL     1       9.648  10.381  18.515  0.00  0.00    +0.000 NA
ATOM     20  C   UNL     1       9.824  10.597  19.960  0.00  0.00    +0.000 C 
ATOM     21  C   UNL     1       8.963  11.733  20.512  0.00  0.00    +0.000 C 
ATOM     22  C   UNL     1       9.230  13.047  19.764  0.00  0.00    +0.000 C 
ATOM     23  C   UNL     1       8.244  14.127  20.205  0.00  0.00    +0.000 C 
ATOM     24  C   UNL     1       9.169  12.841  18.243  0.00  0.00    +0.000 C 
ATOM     25  C   UNL     1       9.980  11.622  17.795  0.00  0.00    +0.000 C 
ENDBRANCH  18  19
ENDBRANCH  17  18
ENDBRANCH  15  17
ENDBRANCH   1  13
BRANCH   1  26
ATOM     26  C   UNL     1       6.643   5.076  14.844  0.00  0.00    +0.000 C 
BRANCH  26  27
ATOM     27  C   UNL     1       5.746   4.012  14.236  0.00  0.00    +0.000 C 
BRANCH  27  29
ATOM     28  C   UNL     1       4.760   3.217  11.804  0.00  0.00    +0.000 C 
ATOM     29  S   UNL     1       6.349   3.641  12.550  0.00  0.00    +0.000 S 
ENDBRANCH  27  29
ENDBRANCH  26  27
ENDBRANCH   1  26
TORSDOF 9
ENDMDL
MODEL 2
REMARK VINA RESULT:      -7.4      1.058      1.168
REMARK  Name = 
REMARK  12 active torsions:
REMARK  status: ('A' for Active; 'I' for Inactive)
REMARK    1  A    between atoms: C_1  and  S_2
REMARK    2  A    between atoms: S_2  and  C_3
REMARK    3  A    between atoms: C_3  and  C_4
REMARK    4  A    between atoms: C_4  and  C_5
REMARK    5  A    between atoms: C_5  and  N_6
REMARK    6  A    between atoms: C_5  and  C_16
REMARK    7  A    between atoms: C_7  and  C_9
REMARK    8  A    between atoms: C_12  and  C_13
REMARK    9  A    between atoms: N_18  and  C_19
REMARK   10  A    between atoms: C_19  and  C_20
REMARK   11  A    between atoms: C_20  and  N_21
REMARK   12  A    between atoms: C_24  and  C_25
REMARK                            x       y       z     vdW  Elec       q    Type
REMARK                         _______ _______ _______ _____ _____    ______ ____
ROOT
ATOM      1  C   UNL     1       6.491   5.967  16.569  0.00  0.00    +0.000 C 
ENDROOT
BRANCH   1   2
ATOM      2  N   UNL     1       5.443   5.341  17.405  0.00  0.00    +0.000 N 
ATOM      3  C   UNL     1       4.284   5.924  17.872  0.00  0.00    +0.000 C 
ATOM      4  O   UNL     1       3.905   7.036  17.524  0.00  0.00    +0.000 OA
ATOM      5  H   UNL     1       5.831   4.623  18.016  0.00  0.00    +0.000 HD
BRANCH   3   6
ATOM      6  C   UNL     1       3.578   5.109  18.977  0.00  0.00    +0.000 C 
ATOM      7  C   UNL     1       2.040   5.137  18.898  0.00  0.00    +0.000 C 
ATOM      8  C   UNL     1       1.403   4.459  20.118  0.00  0.00    +0.000 C 
ATOM      9  C   UNL     1       1.949   3.042  20.389  0.00  0.00    +0.000 C 
ATOM     10  C   UNL     1       1.465   2.514  21.744  0.00  0.00    +0.000 C 
ATOM     11  C   UNL     1       3.481   3.000  20.328  0.00  0.00    +0.000 C 
ATOM     12  C   UNL     1       4.019   3.640  19.050  0.00  0.00    +0.000 C 
ENDBRANCH   3   6
ENDBRANCH   1   2
BRANCH   1  13
ATOM     13  C   UNL     1       7.331   6.785  17.614  0.00  0.00    +0.000 C 
ATOM     14  O   UNL     1       7.735   6.232  18.643  0.00  0.00    +0.000 OA
ATOM     15  N   UNL     1       7.581   8.124  17.372  0.00  0.00    +0.000 N 
ATOM     16  H   UNL     1       7.481   8.486  16.435  0.00  0.00    +0.000 HD
BRANCH  15  17
ATOM     17  C   UNL     1       8.487   8.858  18.246  0.00  0.00    +0.000 C 
BRANCH  17  18
ATOM     18  C   UNL     1       8.310  10.391  18.176  0.00  0.00    +0.000 C 
BRANCH  18  19
ATOM     19  N   UNL     1       9.580  11.129  18.016  0.00  0.00    +0.000 NA
ATOM     20  C   UNL     1      10.520  10.941  19.133  0.00  0.00    +0.000 C 
ATOM     21  C   UNL     1      10.043  11.577  20.439  0.00  0.00    +0.000 C 
ATOM     22  C   UNL     1       9.760  13.074  20.258  0.00  0.00    +0.000 C 
ATOM     23  C   UNL     1       9.121  13.657  21.516  0.00  0.00    +0.000 C 
ATOM     24  C   UNL     1       8.872  13.326  19.029  0.00  0.00    +0.000 C 
ATOM     25  C   UNL     1       9.371  12.569  17.795  0.00  0.00    +0.000 C 
ENDBRANCH  18  19
ENDBRANCH  17  18
ENDBRANCH  15  17
ENDBRANCH   1  13
BRANCH   1  26
ATOM     26  C   UNL     1       7.384   5.012  15.767  0.00  0.00    +0.000 C 
BRANCH  26  27
ATOM     27  C   UNL     1       7.174   4.993  14.264  0.00  0.00    +0.000 C 
BRANCH  27  29
ATOM     28  C   UNL     1       6.304   3.361  12.240  0.00  0.00    +0.000 C 
ATOM     29  S   UNL     1       5.776   3.876  13.888  0.00  0.00    +0.000 S 
ENDBRANCH  27  29
ENDBRANCH  26  27
ENDBRANCH   1  26
TORSDOF 9
ENDMDL
MODEL 3
REMARK VINA RESULT:      -7.3      1.201      1.878
REMARK  Name = 
REMARK  12 active torsions:
REMARK  status: ('A' for Active; 'I' for Inactive)
REMARK    1  A    between atoms: C_1  and  S_2
REMARK    2  A    between atoms: S_2  and  C_3
REMARK    3  A    between atoms: C_3  and  C_4
REMARK    4  A    between atoms: C_4  and  C_5
REMARK    5  A    between atoms: C_5  and  N_6
REMARK    6  A    between atoms: C_5  and  C_16
REMARK    7  A    between atoms: C_7  and  C_9
REMARK    8  A    between atoms: C_12  and  C_13
REMARK    9  A    between atoms: N_18  and  C_19
REMARK   10  A    between atoms: C_19  and  C_20
REMARK   11  A    between atoms: C_20  and  N_21
REMARK   12  A    between atoms: C_24  and  C_25
REMARK                            x       y       z     vdW  Elec       q    Type
REMARK                         _______ _______ _______ _____ _____    ______ ____
ROOT
ATOM      1  C   UNL     1       6.241   6.134  16.363  0.00  0.00    +0.000 C 
ENDROOT
BRANCH   1   2
ATOM      2  N   UNL     1       5.171   5.446  17.119  0.00  0.00    +0.000 N 
ATOM      3  C   UNL     1       4.028   6.007  17.650  0.00  0.00    +0.000 C 
ATOM      4  O   UNL     1       3.686   7.163  17.436  0.00  0.00    +0.000 OA
ATOM      5  H   UNL     1       5.533   4.650  17.641  0.00  0.00    +0.000 HD
BRANCH   3   6
ATOM      6  C   UNL     1       3.293   5.089  18.651  0.00  0.00    +0.000 C 
ATOM      7  C   UNL     1       4.189   4.018  19.301  0.00  0.00    +0.000 C 
ATOM      8  C   UNL     1       3.366   3.035  20.145  0.00  0.00    +0.000 C 
ATOM      9  C   UNL     1       2.446   3.727  21.171  0.00  0.00    +0.000 C 
ATOM     10  C   UNL     1       1.478   2.724  21.808  0.00  0.00    +0.000 C 
ATOM     11  C   UNL     1       1.660   4.885  20.541  0.00  0.00    +0.000 C 
ATOM     12  C   UNL     1       2.570   5.844  19.776  0.00  0.00    +0.000 C 
ENDBRANCH   3   6
ENDBRANCH   1   2
BRANCH   1  13
ATOM     13  C   UNL     1       7.062   6.852  17.493  0.00  0.00    +0.000 C 
ATOM     14  O   UNL     1       7.332   6.244  18.535  0.00  0.00    +0.000 OA
ATOM     15  N   UNL     1       7.447   8.168  17.308  0.00  0.00    +0.000 N 
ATOM     16  H   UNL     1       7.455   8.557  16.376  0.00  0.00    +0.000 HD
BRANCH  15  17
ATOM     17  C   UNL     1       8.340   8.801  18.271  0.00  0.00    +0.000 C 
BRANCH  17  18
ATOM     18  C   UNL     1       8.799  10.215  17.854  0.00  0.00    +0.000 C 
BRANCH  18  19
ATOM     19  N   UNL     1       9.198  11.070  18.991  0.00  0.00    +0.000 NA
ATOM     20  C   UNL     1       8.806  12.480  18.839  0.00  0.00    +0.000 C 
ATOM     21  C   UNL     1       9.567  13.202  17.726  0.00  0.00    +0.000 C 
ATOM     22  C   UNL     1      11.084  13.114  17.942  0.00  0.00    +0.000 C 
ATOM     23  C   UNL     1      11.833  13.686  16.739  0.00  0.00    +0.000 C 
ATOM     24  C   UNL     1      11.522  11.669  18.220  0.00  0.00    +0.000 C 
ATOM     25  C   UNL     1      10.640  10.994  19.275  0.00  0.00    +0.000 C 
ENDBRANCH  18  19
ENDBRANCH  17  18
ENDBRANCH  15  17
ENDBRANCH   1  13
BRANCH   1  26
ATOM     26  C   UNL     1       7.147   5.244  15.501  0.00  0.00    +0.000 C 
BRANCH  26  27
ATOM     27  C   UNL     1       6.602   3.873  15.143  0.00  0.00    +0.000 C 
BRANCH  27  29
ATOM     28  C   UNL     1       6.741   3.704  12.410  0.00  0.00    +0.000 C 
ATOM     29  S   UNL     1       5.510   4.045  13.687  0.00  0.00    +0.000 S 
ENDBRANCH  27  29
ENDBRANCH  26  27
ENDBRANCH   1  26
TORSDOF 9
ENDMDL
MODEL 4
REMARK VINA RESULT:      -7.0      1.186      1.839
REMARK  Name = 
REMARK  12 active torsions:
REMARK  status: ('A' for Active; 'I' for Inactive)
REMARK    1  A    between atoms: C_1  and  S_2
REMARK    2  A    between atoms: S_2  and  C_3
REMARK    3  A    between atoms: C_3  and  C_4
REMARK    4  A    between atoms: C_4  and  C_5
REMARK    5  A    between atoms: C_5  and  N_6
REMARK    6  A    between atoms: C_5  and  C_16
REMARK    7  A    between atoms: C_7  and  C_9
REMARK    8  A    between atoms: C_12  and  C_13
REMARK    9  A    between atoms: N_18  and  C_19
REMARK   10  A    between atoms: C_19  and  C_20
REMARK   11  A    between atoms: C_20  and  N_21
REMARK   12  A    between atoms: C_24  and  C_25
REMARK                            x       y       z     vdW  Elec       q    Type
REMARK                         _______ _______ _______ _____ _____    ______ ____
ROOT
ATOM      1  C   UNL     1       6.014   6.157  16.345  0.00  0.00    +0.000 C 
ENDROOT
BRANCH   1   2
ATOM      2  N   UNL     1       5.042   5.527  17.265  0.00  0.00    +0.000 N 
ATOM      3  C   UNL     1       4.069   6.155  18.015  0.00  0.00    +0.000 C 
ATOM      4  O   UNL     1       3.799   7.345  17.902  0.00  0.00    +0.000 OA
ATOM      5  H   UNL     1       5.419   4.680  17.687  0.00  0.00    +0.000 HD
BRANCH   3   6
ATOM      6  C   UNL     1       3.448   5.257  19.106  0.00  0.00    +0.000 C 
ATOM      7  C   UNL     1       1.928   5.436  19.281  0.00  0.00    +0.000 C 
ATOM      8  C   UNL     1       1.407   4.651  20.492  0.00  0.00    +0.000 C 
ATOM      9  C   UNL     1       1.823   3.165  20.487  0.00  0.00    +0.000 C 
ATOM     10  C   UNL     1       1.489   2.494  21.823  0.00  0.00    +0.000 C 
ATOM     11  C   UNL     1       3.315   2.993  20.173  0.00  0.00    +0.000 C 
ATOM     12  C   UNL     1       3.726   3.759  18.917  0.00  0.00    +0.000 C 
ENDBRANCH   3   6
ENDBRANCH   1   2
BRANCH   1  13
ATOM     13  C   UNL     1       7.077   6.769  17.326  0.00  0.00    +0.000 C 
ATOM     14  O   UNL     1       7.721   6.024  18.074  0.00  0.00    +0.000 OA
ATOM     15  N   UNL     1       7.254   8.141  17.351  0.00  0.00    +0.000 N 
ATOM     16  H   UNL     1       6.928   8.698  16.575  0.00  0.00    +0.000 HD
BRANCH  15  17
ATOM     17  C   UNL     1       8.341   8.714  18.136  0.00  0.00    +0.000 C 
BRANCH  17  18
ATOM     18  C   UNL     1       8.724  10.148  17.709  0.00  0.00    +0.000 C 
BRANCH  18  19
ATOM     19  N   UNL     1       9.086  11.027  18.840  0.00  0.00    +0.000 NA
ATOM     20  C   UNL     1       8.794  12.450  18.603  0.00  0.00    +0.000 C 
ATOM     21  C   UNL     1       9.679  13.078  17.526  0.00  0.00    +0.000 C 
ATOM     22  C   UNL     1      11.167  12.913  17.862  0.00  0.00    +0.000 C 
ATOM     23  C   UNL     1      12.037  13.387  16.701  0.00  0.00    +0.000 C 
ATOM     24  C   UNL     1      11.493  11.458  18.230  0.00  0.00    +0.000 C 
ATOM     25  C   UNL     1      10.496  10.882  19.239  0.00  0.00    +0.000 C 
ENDBRANCH  18  19
ENDBRANCH  17  18
ENDBRANCH  15  17
ENDBRANCH   1  13
BRANCH   1  26
ATOM     26  C   UNL     1       6.678   5.232  15.317  0.00  0.00    +0.000 C 
BRANCH  26  27
ATOM     27  C   UNL     1       5.746   4.491  14.375  0.00  0.00    +0.000 C 
BRANCH  27  29
ATOM     28  C   UNL     1       7.759   5.269  12.683  0.00  0.00    +0.000 C 
ATOM     29  S   UNL     1       6.736   3.814  12.994  0.00  0.00    +0.000 S 
ENDBRANCH  27  29
ENDBRANCH  26  27
ENDBRANCH   1  26
TORSDOF 9
ENDMDL
MODEL 5
REMARK VINA RESULT:      -7.0      5.453     10.003
REMARK  Name = 
REMARK  12 active torsions:
REMARK  status: ('A' for Active; 'I' for Inactive)
REMARK    1  A    between atoms: C_1  and  S_2
REMARK    2  A    between atoms: S_2  and  C_3
REMARK    3  A    between atoms: C_3  and  C_4
REMARK    4  A    between atoms: C_4  and  C_5
REMARK    5  A    between atoms: C_5  and  N_6
REMARK    6  A    between atoms: C_5  and  C_16
REMARK    7  A    between atoms: C_7  and  C_9
REMARK    8  A    between atoms: C_12  and  C_13
REMARK    9  A    between atoms: N_18  and  C_19
REMARK   10  A    between atoms: C_19  and  C_20
REMARK   11  A    between atoms: C_20  and  N_21
REMARK   12  A    between atoms: C_24  and  C_25
REMARK                            x       y       z     vdW  Elec       q    Type
REMARK                         _______ _______ _______ _____ _____    ______ ____
ROOT
ATOM      1  C   UNL     1       0.812   9.436  19.468  0.00  0.00    +0.000 C 
ENDROOT
BRANCH   1   2
ATOM      2  N   UNL     1       1.127  10.870  19.287  0.00  0.00    +0.000 N 
ATOM      3  C   UNL     1       0.264  11.875  18.901  0.00  0.00    +0.000 C 
ATOM      4  O   UNL     1      -0.945  11.714  18.787  0.00  0.00    +0.000 OA
ATOM      5  H   UNL     1       2.093  11.008  18.995  0.00  0.00    +0.000 HD
BRANCH   3   6
ATOM      6  C   UNL     1       0.975  13.183  18.492  0.00  0.00    +0.000 C 
ATOM      7  C   UNL     1       0.540  14.419  19.302  0.00  0.00    +0.000 C 
ATOM      8  C   UNL     1       1.149  15.706  18.731  0.00  0.00    +0.000 C 
ATOM      9  C   UNL     1       2.680  15.635  18.552  0.00  0.00    +0.000 C 
ATOM     10  C   UNL     1       3.198  16.840  17.760  0.00  0.00    +0.000 C 
ATOM     11  C   UNL     1       3.113  14.333  17.866  0.00  0.00    +0.000 C 
ATOM     12  C   UNL     1       2.508  13.103  18.542  0.00  0.00    +0.000 C 
ENDBRANCH   3   6
ENDBRANCH   1   2
BRANCH   1  13
ATOM     13  C   UNL     1       1.804   8.731  18.476  0.00  0.00    +0.000 C 
ATOM     14  O   UNL     1       2.109   9.288  17.415  0.00  0.00    +0.000 OA
ATOM     15  N   UNL     1       2.300   7.481  18.800  0.00  0.00    +0.000 N 
ATOM     16  H   UNL     1       2.259   7.163  19.758  0.00  0.00    +0.000 HD
BRANCH  15  17
ATOM     17  C   UNL     1       3.340   6.881  17.973  0.00  0.00    +0.000 C 
BRANCH  17  18
ATOM     18  C   UNL     1       3.920   5.575  18.558  0.00  0.00    +0.000 C 
BRANCH  18  19
ATOM     19  N   UNL     1       3.393   4.352  17.918  0.00  0.00    +0.000 NA
ATOM     20  C   UNL     1       1.925   4.255  17.942  0.00  0.00    +0.000 C 
ATOM     21  C   UNL     1       1.355   4.047  19.345  0.00  0.00    +0.000 C 
ATOM     22  C   UNL     1       1.959   2.805  20.014  0.00  0.00    +0.000 C 
ATOM     23  C   UNL     1       1.515   2.709  21.471  0.00  0.00    +0.000 C 
ATOM     24  C   UNL     1       3.491   2.809  19.909  0.00  0.00    +0.000 C 
ATOM     25  C   UNL     1       3.970   3.123  18.489  0.00  0.00    +0.000 C 
ENDBRANCH  18  19
ENDBRANCH  17  18
ENDBRANCH  15  17
ENDBRANCH   1  13
BRANCH   1  26
ATOM     26  C   UNL     1       0.963   8.880  20.891  0.00  0.00    +0.000 C 
BRANCH  26  27
ATOM     27  C   UNL     1      -0.321   8.669  21.672  0.00  0.00    +0.000 C 
BRANCH  27  29
ATOM     28  C   UNL     1      -0.945  11.212  22.484  0.00  0.00    +0.000 C 
ATOM     29  S   UNL     1      -0.256   9.697  23.183  0.00  0.00    +0.000 S 
ENDBRANCH  27  29
ENDBRANCH  26  27
ENDBRANCH   1  26
TORSDOF 9
ENDMDL
MODEL 6
REMARK VINA RESULT:      -6.9      4.945      8.270
REMARK  Name = 
REMARK  12 active torsions:
REMARK  status: ('A' for Active; 'I' for Inactive)
REMARK    1  A    between atoms: C_1  and  S_2
REMARK    2  A    between atoms: S_2  and  C_3
REMARK    3  A    between atoms: C_3  and  C_4
REMARK    4  A    between atoms: C_4  and  C_5
REMARK    5  A    between atoms: C_5  and  N_6
REMARK    6  A    between atoms: C_5  and  C_16
REMARK    7  A    between atoms: C_7  and  C_9
REMARK    8  A    between atoms: C_12  and  C_13
REMARK    9  A    between atoms: N_18  and  C_19
REMARK   10  A    between atoms: C_19  and  C_20
REMARK   11  A    between atoms: C_20  and  N_21
REMARK   12  A    between atoms: C_24  and  C_25
REMARK                            x       y       z     vdW  Elec       q    Type
REMARK                         _______ _______ _______ _____ _____    ______ ____
ROOT
ATOM      1  C   UNL     1       2.538   6.357  20.008  0.00  0.00    +0.000 C 
ENDROOT
BRANCH   1   2
ATOM      2  N   UNL     1       3.307   5.883  18.836  0.00  0.00    +0.000 N 
ATOM      3  C   UNL     1       4.610   5.431  18.816  0.00  0.00    +0.000 C 
ATOM      4  O   UNL     1       5.268   5.237  19.831  0.00  0.00    +0.000 OA
ATOM      5  H   UNL     1       3.007   6.345  17.979  0.00  0.00    +0.000 HD
BRANCH   3   6
ATOM      6  C   UNL     1       5.211   5.326  17.397  0.00  0.00    +0.000 C 
ATOM      7  C   UNL     1       6.734   5.102  17.372  0.00  0.00    +0.000 C 
ATOM      8  C   UNL     1       7.289   5.182  15.944  0.00  0.00    +0.000 C 
ATOM      9  C   UNL     1       6.548   4.271  14.944  0.00  0.00    +0.000 C 
ATOM     10  C   UNL     1       6.976   4.570  13.503  0.00  0.00    +0.000 C 
ATOM     11  C   UNL     1       5.025   4.402  15.075  0.00  0.00    +0.000 C 
ATOM     12  C   UNL     1       4.561   4.245  16.522  0.00  0.00    +0.000 C 
ENDBRANCH   3   6
ENDBRANCH   1   2
BRANCH   1  13
ATOM     13  C   UNL     1       2.064   7.786  19.561  0.00  0.00    +0.000 C 
ATOM     14  O   UNL     1       2.308   8.182  18.415  0.00  0.00    +0.000 OA
ATOM     15  N   UNL     1       1.401   8.587  20.473  0.00  0.00    +0.000 N 
ATOM     16  H   UNL     1       0.984   8.168  21.292  0.00  0.00    +0.000 HD
BRANCH  15  17
ATOM     17  C   UNL     1       0.816   9.848  20.034  0.00  0.00    +0.000 C 
BRANCH  17  18
ATOM     18  C   UNL     1      -0.573   9.692  19.379  0.00  0.00    +0.000 C 
BRANCH  18  19
ATOM     19  N   UNL     1      -0.730  10.463  18.128  0.00  0.00    +0.000 NA
ATOM     20  C   UNL     1      -1.057  11.882  18.342  0.00  0.00    +0.000 C 
ATOM     21  C   UNL     1      -2.452  12.100  18.927  0.00  0.00    +0.000 C 
ATOM     22  C   UNL     1      -3.532  11.456  18.047  0.00  0.00    +0.000 C 
ATOM     23  C   UNL     1      -4.896  11.529  18.728  0.00  0.00    +0.000 C 
ATOM     24  C   UNL     1      -3.172  10.003  17.702  0.00  0.00    +0.000 C 
ATOM     25  C   UNL     1      -1.724   9.868  17.220  0.00  0.00    +0.000 C 
ENDBRANCH  18  19
ENDBRANCH  17  18
ENDBRANCH  15  17
ENDBRANCH   1  13
BRANCH   1  26
ATOM     26  C   UNL     1       1.349   5.488  20.438  0.00  0.00    +0.000 C 
BRANCH  26  27
ATOM     27  C   UNL     1       1.655   4.037  20.762  0.00  0.00    +0.000 C 
BRANCH  27  29
ATOM     28  C   UNL     1       2.587   2.106  19.054  0.00  0.00    +0.000 C 
ATOM     29  S   UNL     1       1.052   2.997  19.385  0.00  0.00    +0.000 S 
ENDBRANCH  27  29
ENDBRANCH  26  27
ENDBRANCH   1  26
TORSDOF 9
ENDMDL
MODEL 7
REMARK VINA RESULT:      -6.8      0.989      1.021
REMARK  Name = 
REMARK  12 active torsions:
REMARK  status: ('A' for Active; 'I' for Inactive)
REMARK    1  A    between atoms: C_1  and  S_2
REMARK    2  A    between atoms: S_2  and  C_3
REMARK    3  A    between atoms: C_3  and  C_4
REMARK    4  A    between atoms: C_4  and  C_5
REMARK    5  A    between atoms: C_5  and  N_6
REMARK    6  A    between atoms: C_5  and  C_16
REMARK    7  A    between atoms: C_7  and  C_9
REMARK    8  A    between atoms: C_12  and  C_13
REMARK    9  A    between atoms: N_18  and  C_19
REMARK   10  A    between atoms: C_19  and  C_20
REMARK   11  A    between atoms: C_20  and  N_21
REMARK   12  A    between atoms: C_24  and  C_25
REMARK                            x       y       z     vdW  Elec       q    Type
REMARK                         _______ _______ _______ _____ _____    ______ ____
ROOT
ATOM      1  C   UNL     1       5.342   6.624  16.321  0.00  0.00    +0.000 C 
ENDROOT
BRANCH   1   2
ATOM      2  N   UNL     1       4.495   5.773  17.184  0.00  0.00    +0.000 N 
ATOM      3  C   UNL     1       3.370   6.150  17.888  0.00  0.00    +0.000 C 
ATOM      4  O   UNL     1       2.842   7.250  17.769  0.00  0.00    +0.000 OA
ATOM      5  H   UNL     1       5.034   5.026  17.620  0.00  0.00    +0.000 HD
BRANCH   3   6
ATOM      6  C   UNL     1       2.917   5.115  18.940  0.00  0.00    +0.000 C 
ATOM      7  C   UNL     1       2.379   5.733  20.243  0.00  0.00    +0.000 C 
ATOM      8  C   UNL     1       2.114   4.659  21.306  0.00  0.00    +0.000 C 
ATOM      9  C   UNL     1       1.229   3.500  20.801  0.00  0.00    +0.000 C 
ATOM     10  C   UNL     1       1.199   2.348  21.812  0.00  0.00    +0.000 C 
ATOM     11  C   UNL     1       1.693   2.984  19.433  0.00  0.00    +0.000 C 
ATOM     12  C   UNL     1       1.869   4.118  18.425  0.00  0.00    +0.000 C 
ENDBRANCH   3   6
ENDBRANCH   1   2
BRANCH   1  13
ATOM     13  C   UNL     1       6.533   7.011  17.270  0.00  0.00    +0.000 C 
ATOM     14  O   UNL     1       6.955   6.187  18.089  0.00  0.00    +0.000 OA
ATOM     15  N   UNL     1       7.070   8.283  17.186  0.00  0.00    +0.000 N 
ATOM     16  H   UNL     1       6.903   8.839  16.361  0.00  0.00    +0.000 HD
BRANCH  15  17
ATOM     17  C   UNL     1       8.272   8.609  17.944  0.00  0.00    +0.000 C 
BRANCH  17  18
ATOM     18  C   UNL     1       8.433  10.118  18.231  0.00  0.00    +0.000 C 
BRANCH  18  19
ATOM     19  N   UNL     1       9.774  10.488  18.729  0.00  0.00    +0.000 NA
ATOM     20  C   UNL     1       9.760  11.117  20.059  0.00  0.00    +0.000 C 
ATOM     21  C   UNL     1       9.117  12.505  20.066  0.00  0.00    +0.000 C 
ATOM     22  C   UNL     1       9.806  13.443  19.066  0.00  0.00    +0.000 C 
ATOM     23  C   UNL     1       9.049  14.764  18.957  0.00  0.00    +0.000 C 
ATOM     24  C   UNL     1       9.946  12.778  17.688  0.00  0.00    +0.000 C 
ATOM     25  C   UNL     1      10.505  11.356  17.790  0.00  0.00    +0.000 C 
ENDBRANCH  18  19
ENDBRANCH  17  18
ENDBRANCH  15  17
ENDBRANCH   1  13
BRANCH   1  26
ATOM     26  C   UNL     1       5.854   5.984  15.024  0.00  0.00    +0.000 C 
BRANCH  26  27
ATOM     27  C   UNL     1       6.277   4.529  15.112  0.00  0.00    +0.000 C 
BRANCH  27  29
ATOM     28  C   UNL     1       7.509   4.794  12.676  0.00  0.00    +0.000 C 
ATOM     29  S   UNL     1       6.204   3.802  13.435  0.00  0.00    +0.000 S 
ENDBRANCH  27  29
ENDBRANCH  26  27
ENDBRANCH   1  26
TORSDOF 9
ENDMDL
MODEL 8
REMARK VINA RESULT:      -6.8      0.774      1.131
REMARK  Name = 
REMARK  12 active torsions:
REMARK  status: ('A' for Active; 'I' for Inactive)
REMARK    1  A    between atoms: C_1  and  S_2
REMARK    2  A    between atoms: S_2  and  C_3
REMARK    3  A    between atoms: C_3  and  C_4
REMARK    4  A    between atoms: C_4  and  C_5
REMARK    5  A    between atoms: C_5  and  N_6
REMARK    6  A    between atoms: C_5  and  C_16
REMARK    7  A    between atoms: C_7  and  C_9
REMARK    8  A    between atoms: C_12  and  C_13
REMARK    9  A    between atoms: N_18  and  C_19
REMARK   10  A    between atoms: C_19  and  C_20
REMARK   11  A    between atoms: C_20  and  N_21
REMARK   12  A    between atoms: C_24  and  C_25
REMARK                            x       y       z     vdW  Elec       q    Type
REMARK                         _______ _______ _______ _____ _____    ______ ____
ROOT
ATOM      1  C   UNL     1       6.272   5.787  16.125  0.00  0.00    +0.000 C 
ENDROOT
BRANCH   1   2
ATOM      2  N   UNL     1       5.155   5.228  16.918  0.00  0.00    +0.000 N 
ATOM      3  C   UNL     1       4.194   5.926  17.619  0.00  0.00    +0.000 C 
ATOM      4  O   UNL     1       4.070   7.143  17.557  0.00  0.00    +0.000 OA
ATOM      5  H   UNL     1       5.395   4.322  17.318  0.00  0.00    +0.000 HD
BRANCH   3   6
ATOM      6  C   UNL     1       3.379   5.052  18.598  0.00  0.00    +0.000 C 
ATOM      7  C   UNL     1       4.201   3.950  19.293  0.00  0.00    +0.000 C 
ATOM      8  C   UNL     1       3.302   3.013  20.111  0.00  0.00    +0.000 C 
ATOM      9  C   UNL     1       2.372   3.755  21.092  0.00  0.00    +0.000 C 
ATOM     10  C   UNL     1       1.336   2.801  21.697  0.00  0.00    +0.000 C 
ATOM     11  C   UNL     1       1.663   4.938  20.420  0.00  0.00    +0.000 C 
ATOM     12  C   UNL     1       2.645   5.849  19.685  0.00  0.00    +0.000 C 
ENDBRANCH   3   6
ENDBRANCH   1   2
BRANCH   1  13
ATOM     13  C   UNL     1       7.177   6.458  17.219  0.00  0.00    +0.000 C 
ATOM     14  O   UNL     1       7.710   5.757  18.087  0.00  0.00    +0.000 OA
ATOM     15  N   UNL     1       7.339   7.832  17.203  0.00  0.00    +0.000 N 
ATOM     16  H   UNL     1       7.126   8.347  16.361  0.00  0.00    +0.000 HD
BRANCH  15  17
ATOM     17  C   UNL     1       8.297   8.455  18.109  0.00  0.00    +0.000 C 
BRANCH  17  18
ATOM     18  C   UNL     1       8.220   9.997  18.125  0.00  0.00    +0.000 C 
BRANCH  18  19
ATOM     19  N   UNL     1       9.536  10.656  18.263  0.00  0.00    +0.000 NA
ATOM     20  C   UNL     1      10.058  10.655  19.639  0.00  0.00    +0.000 C 
ATOM     21  C   UNL     1       9.253  11.539  20.593  0.00  0.00    +0.000 C 
ATOM     22  C   UNL     1       9.172  12.982  20.079  0.00  0.00    +0.000 C 
ATOM     23  C   UNL     1       8.225  13.810  20.945  0.00  0.00    +0.000 C 
ATOM     24  C   UNL     1       8.740  13.023  18.606  0.00  0.00    +0.000 C 
ATOM     25  C   UNL     1       9.533  12.035  17.746  0.00  0.00    +0.000 C 
ENDBRANCH  18  19
ENDBRANCH  17  18
ENDBRANCH  15  17
ENDBRANCH   1  13
BRANCH   1  26
ATOM     26  C   UNL     1       7.074   4.788  15.280  0.00  0.00    +0.000 C 
BRANCH  26  27
ATOM     27  C   UNL     1       7.452   5.239  13.880  0.00  0.00    +0.000 C 
BRANCH  27  29
ATOM     28  C   UNL     1       5.227   3.724  13.356  0.00  0.00    +0.000 C 
ATOM     29  S   UNL     1       6.888   3.971  12.690  0.00  0.00    +0.000 S 
ENDBRANCH  27  29
ENDBRANCH  26  27
ENDBRANCH   1  26
TORSDOF 9
ENDMDL
MODEL 9
REMARK VINA RESULT:      -6.8      4.833      7.386
REMARK  Name = 
REMARK  12 active torsions:
REMARK  status: ('A' for Active; 'I' for Inactive)
REMARK    1  A    between atoms: C_1  and  S_2
REMARK    2  A    between atoms: S_2  and  C_3
REMARK    3  A    between atoms: C_3  and  C_4
REMARK    4  A    between atoms: C_4  and  C_5
REMARK    5  A    between atoms: C_5  and  N_6
REMARK    6  A    between atoms: C_5  and  C_16
REMARK    7  A    between atoms: C_7  and  C_9
REMARK    8  A    between atoms: C_12  and  C_13
REMARK    9  A    between atoms: N_18  and  C_19
REMARK   10  A    between atoms: C_19  and  C_20
REMARK   11  A    between atoms: C_20  and  N_21
REMARK   12  A    between atoms: C_24  and  C_25
REMARK                            x       y       z     vdW  Elec       q    Type
REMARK                         _______ _______ _______ _____ _____    ______ ____
ROOT
ATOM      1  C   UNL     1       2.537   5.837  19.960  0.00  0.00    +0.000 C 
ENDROOT
BRANCH   1   2
ATOM      2  N   UNL     1       3.356   5.439  18.794  0.00  0.00    +0.000 N 
ATOM      3  C   UNL     1       4.725   5.275  18.749  0.00  0.00    +0.000 C 
ATOM      4  O   UNL     1       5.439   5.312  19.744  0.00  0.00    +0.000 OA
ATOM      5  H   UNL     1       2.939   5.752  17.919  0.00  0.00    +0.000 HD
BRANCH   3   6
ATOM      6  C   UNL     1       5.293   5.179  17.316  0.00  0.00    +0.000 C 
ATOM      7  C   UNL     1       6.782   4.790  17.253  0.00  0.00    +0.000 C 
ATOM      8  C   UNL     1       7.325   4.885  15.821  0.00  0.00    +0.000 C 
ATOM      9  C   UNL     1       6.476   4.114  14.789  0.00  0.00    +0.000 C 
ATOM     10  C   UNL     1       6.917   4.440  13.358  0.00  0.00    +0.000 C 
ATOM     11  C   UNL     1       4.978   4.404  14.954  0.00  0.00    +0.000 C 
ATOM     12  C   UNL     1       4.518   4.223  16.399  0.00  0.00    +0.000 C 
ENDBRANCH   3   6
ENDBRANCH   1   2
BRANCH   1  13
ATOM     13  C   UNL     1       2.201   7.340  19.657  0.00  0.00    +0.000 C 
ATOM     14  O   UNL     1       1.916   8.104  20.586  0.00  0.00    +0.000 OA
ATOM     15  N   UNL     1       2.206   7.776  18.344  0.00  0.00    +0.000 N 
ATOM     16  H   UNL     1       2.685   7.231  17.641  0.00  0.00    +0.000 HD
BRANCH  15  17
ATOM     17  C   UNL     1       2.052   9.197  18.054  0.00  0.00    +0.000 C 
BRANCH  17  18
ATOM     18  C   UNL     1       0.624   9.729  18.305  0.00  0.00    +0.000 C 
BRANCH  18  19
ATOM     19  N   UNL     1       0.548  11.202  18.402  0.00  0.00    +0.000 NA
ATOM     20  C   UNL     1       1.389  11.770  19.468  0.00  0.00    +0.000 C 
ATOM     21  C   UNL     1       0.904  11.419  20.874  0.00  0.00    +0.000 C 
ATOM     22  C   UNL     1      -0.552  11.855  21.086  0.00  0.00    +0.000 C 
ATOM     23  C   UNL     1      -1.078  11.344  22.426  0.00  0.00    +0.000 C 
ATOM     24  C   UNL     1      -1.447  11.378  19.933  0.00  0.00    +0.000 C 
ATOM     25  C   UNL     1      -0.833  11.685  18.564  0.00  0.00    +0.000 C 
ENDBRANCH  18  19
ENDBRANCH  17  18
ENDBRANCH  15  17
ENDBRANCH   1  13
BRANCH   1  26
ATOM     26  C   UNL     1       1.260   5.023  20.205  0.00  0.00    +0.000 C 
BRANCH  26  27
ATOM     27  C   UNL     1       1.372   3.520  20.023  0.00  0.00    +0.000 C 
BRANCH  27  29
ATOM     28  C   UNL     1       3.760   2.267  20.519  0.00  0.00    +0.000 C 
ATOM     29  S   UNL     1       2.310   2.834  21.435  0.00  0.00    +0.000 S 
ENDBRANCH  27  29
ENDBRANCH  26  27
ENDBRANCH   1  26
TORSDOF 9
ENDMDL
