MODEL 1
REMARK VINA RESULT:      -7.8      0.000      0.000
REMARK  Name = 
REMARK  4 active torsions:
REMARK  status: ('A' for Active; 'I' for Inactive)
REMARK    1  A    between atoms: N_12  and  C_13
REMARK    2  A    between atoms: C_13  and  C_14
REMARK    3  A    between atoms: C_14  and  N_15
REMARK    4  A    between atoms: N_18  and  C_19
REMARK                            x       y       z     vdW  Elec       q    Type
REMARK                         _______ _______ _______ _____ _____    ______ ____
ROOT
ATOM      1  C   UNL     1       1.489   8.217  20.589  0.00  0.00    +0.000 C 
ENDROOT
BRANCH   1   2
ATOM      2  N   UNL     1       0.051   8.545  20.676  0.00  0.00    +0.000 NA
ATOM      3  C   UNL     1      -0.514   8.563  22.048  0.00  0.00    +0.000 C 
ATOM      4  C   UNL     1      -0.054   9.719  22.976  0.00  0.00    +0.000 C 
ATOM      5  N   UNL     1      -0.092  11.031  22.304  0.00  0.00    +0.000 N 
ATOM      6  C   UNL     1       0.441  11.054  20.931  0.00  0.00    +0.000 C 
ATOM      7  C   UNL     1      -0.165   9.899  20.096  0.00  0.00    +0.000 C 
BRANCH   5   8
ATOM      8  C   UNL     1      -0.937  12.063  22.678  0.00  0.00    +0.000 A 
ATOM      9  C   UNL     1      -0.632  13.416  22.478  0.00  0.00    +0.000 A 
ATOM     10  C   UNL     1      -1.497  14.433  22.906  0.00  0.00    +0.000 A 
ATOM     11  C   UNL     1      -2.698  14.116  23.536  0.00  0.00    +0.000 A 
ATOM     12  C   UNL     1      -3.030  12.781  23.726  0.00  0.00    +0.000 A 
ATOM     13 CL   UNL     1      -4.511  12.366  24.499  0.00  0.00    +0.000 Cl
ATOM     14  C   UNL     1      -2.166  11.772  23.299  0.00  0.00    +0.000 A 
ENDBRANCH   5   8
ENDBRANCH   1   2
BRANCH   1  15
ATOM     15  C   UNL     1       1.875   6.757  20.315  0.00  0.00    +0.000 C 
BRANCH  15  27
ATOM     16  O   UNL     1       1.961   8.228  17.823  0.00  0.00    +0.000 OA
ATOM     17  C   UNL     1       2.840   7.441  18.134  0.00  0.00    +0.000 C 
ATOM     18  C   UNL     1       4.065   7.168  17.314  0.00  0.00    +0.000 C 
ATOM     19  C   UNL     1       4.617   5.848  17.877  0.00  0.00    +0.000 C 
ATOM     20  C   UNL     1       6.087   5.961  18.313  0.00  0.00    +0.000 C 
ATOM     21  C   UNL     1       7.033   6.145  17.129  0.00  0.00    +0.000 C 
ATOM     22  C   UNL     1       6.874   5.024  16.107  0.00  0.00    +0.000 C 
ATOM     23  C   UNL     1       5.424   4.840  15.670  0.00  0.00    +0.000 C 
ATOM     24  C   UNL     1       4.469   4.694  16.864  0.00  0.00    +0.000 C 
ATOM     25  C   UNL     1       3.757   5.626  19.120  0.00  0.00    +0.000 C 
ATOM     26  O   UNL     1       3.836   4.644  19.855  0.00  0.00    +0.000 OA
ATOM     27  N   UNL     1       2.881   6.667  19.254  0.00  0.00    +0.000 N 
ENDBRANCH  15  27
ENDBRANCH   1  15
TORSDOF 4
ENDMDL
MODEL 2
REMARK VINA RESULT:      -7.6      4.107      9.268
REMARK  Name = 
REMARK  4 active torsions:
REMARK  status: ('A' for Active; 'I' for Inactive)
REMARK    1  A    between atoms: N_12  and  C_13
REMARK    2  A    between atoms: C_13  and  C_14
REMARK    3  A    between atoms: C_14  and  N_15
REMARK    4  A    between atoms: N_18  and  C_19
REMARK                            x       y       z     vdW  Elec       q    Type
REMARK                         _______ _______ _______ _____ _____    ______ ____
ROOT
ATOM      1  C   UNL     1       1.810  10.951  18.975  0.00  0.00    +0.000 C 
ENDROOT
BRANCH   1   2
ATOM      2  N   UNL     1       0.891   9.853  18.611  0.00  0.00    +0.000 NA
ATOM      3  C   UNL     1       1.411   8.898  17.601  0.00  0.00    +0.000 C 
ATOM      4  C   UNL     1       2.565   7.966  18.053  0.00  0.00    +0.000 C 
ATOM      5  N   UNL     1       2.313   7.352  19.370  0.00  0.00    +0.000 N 
ATOM      6  C   UNL     1       1.776   8.260  20.398  0.00  0.00    +0.000 C 
ATOM      7  C   UNL     1       0.579   9.066  19.836  0.00  0.00    +0.000 C 
BRANCH   5   8
ATOM      8  C   UNL     1       2.134   5.992  19.564  0.00  0.00    +0.000 A 
ATOM      9  C   UNL     1       1.765   5.434  20.796  0.00  0.00    +0.000 A 
ATOM     10  C   UNL     1       1.632   4.049  20.962  0.00  0.00    +0.000 A 
ATOM     11  C   UNL     1       1.857   3.188  19.891  0.00  0.00    +0.000 A 
ATOM     12  C   UNL     1       2.205   3.720  18.656  0.00  0.00    +0.000 A 
ATOM     13 CL   UNL     1       2.483   2.674  17.317  0.00  0.00    +0.000 Cl
ATOM     14  C   UNL     1       2.336   5.099  18.495  0.00  0.00    +0.000 A 
ENDBRANCH   5   8
ENDBRANCH   1   2
BRANCH   1  15
ATOM     15  C   UNL     1       1.267  12.385  18.924  0.00  0.00    +0.000 C 
BRANCH  15  27
ATOM     16  O   UNL     1      -1.486  12.445  18.031  0.00  0.00    +0.000 OA
ATOM     17  C   UNL     1      -1.194  12.500  19.215  0.00  0.00    +0.000 C 
ATOM     18  C   UNL     1      -2.190  12.562  20.334  0.00  0.00    +0.000 C 
ATOM     19  C   UNL     1      -1.375  13.041  21.546  0.00  0.00    +0.000 C 
ATOM     20  C   UNL     1      -1.499  12.095  22.751  0.00  0.00    +0.000 C 
ATOM     21  C   UNL     1      -2.897  12.112  23.364  0.00  0.00    +0.000 C 
ATOM     22  C   UNL     1      -3.317  13.524  23.762  0.00  0.00    +0.000 C 
ATOM     23  C   UNL     1      -3.173  14.515  22.611  0.00  0.00    +0.000 C 
ATOM     24  C   UNL     1      -1.778  14.468  21.970  0.00  0.00    +0.000 C 
ATOM     25  C   UNL     1       0.061  12.986  21.030  0.00  0.00    +0.000 C 
ATOM     26  O   UNL     1       1.046  13.336  21.675  0.00  0.00    +0.000 OA
ATOM     27  N   UNL     1       0.061  12.523  19.744  0.00  0.00    +0.000 N 
ENDBRANCH  15  27
ENDBRANCH   1  15
TORSDOF 4
ENDMDL
MODEL 3
REMARK VINA RESULT:      -7.4      4.180      8.450
REMARK  Name = 
REMARK  4 active torsions:
REMARK  status: ('A' for Active; 'I' for Inactive)
REMARK    1  A    between atoms: N_12  and  C_13
REMARK    2  A    between atoms: C_13  and  C_14
REMARK    3  A    between atoms: C_14  and  N_15
REMARK    4  A    between atoms: N_18  and  C_19
REMARK                            x       y       z     vdW  Elec       q    Type
REMARK                         _______ _______ _______ _____ _____    ______ ____
ROOT
ATOM      1  C   UNL     1       0.517  10.947  21.356  0.00  0.00    +0.000 C 
ENDROOT
BRANCH   1   2
ATOM      2  N   UNL     1      -0.188   9.896  20.593  0.00  0.00    +0.000 NA
ATOM      3  C   UNL     1       0.348   9.631  19.235  0.00  0.00    +0.000 C 
ATOM      4  C   UNL     1       1.738   8.949  19.155  0.00  0.00    +0.000 C 
ATOM      5  N   UNL     1       1.856   7.799  20.070  0.00  0.00    +0.000 N 
ATOM      6  C   UNL     1       1.319   8.012  21.425  0.00  0.00    +0.000 C 
ATOM      7  C   UNL     1      -0.104   8.618  21.353  0.00  0.00    +0.000 C 
BRANCH   5   8
ATOM      8  C   UNL     1       2.017   6.490  19.646  0.00  0.00    +0.000 A 
ATOM      9  C   UNL     1       2.471   6.147  18.366  0.00  0.00    +0.000 A 
ATOM     10  C   UNL     1       2.583   4.810  17.962  0.00  0.00    +0.000 A 
ATOM     11  C   UNL     1       2.251   3.780  18.839  0.00  0.00    +0.000 A 
ATOM     12  C   UNL     1       1.818   4.096  20.120  0.00  0.00    +0.000 A 
ATOM     13 CL   UNL     1       1.406   2.840  21.223  0.00  0.00    +0.000 Cl
ATOM     14  C   UNL     1       1.708   5.429  20.518  0.00  0.00    +0.000 A 
ENDBRANCH   5   8
ENDBRANCH   1   2
BRANCH   1  15
ATOM     15  C   UNL     1      -0.177  12.308  21.509  0.00  0.00    +0.000 C 
BRANCH  15  27
ATOM     16  O   UNL     1      -1.117  12.827  18.820  0.00  0.00    +0.000 OA
ATOM     17  C   UNL     1      -0.201  13.465  19.314  0.00  0.00    +0.000 C 
ATOM     18  C   UNL     1       0.511  14.595  18.634  0.00  0.00    +0.000 C 
ATOM     19  C   UNL     1       1.807  14.773  19.441  0.00  0.00    +0.000 C 
ATOM     20  C   UNL     1       1.992  16.213  19.950  0.00  0.00    +0.000 C 
ATOM     21  C   UNL     1       2.263  17.199  18.817  0.00  0.00    +0.000 C 
ATOM     22  C   UNL     1       3.470  16.778  17.984  0.00  0.00    +0.000 C 
ATOM     23  C   UNL     1       3.357  15.340  17.488  0.00  0.00    +0.000 C 
ATOM     24  C   UNL     1       3.046  14.354  18.624  0.00  0.00    +0.000 C 
ATOM     25  C   UNL     1       1.583  13.859  20.643  0.00  0.00    +0.000 C 
ATOM     26  O   UNL     1       2.408  13.664  21.533  0.00  0.00    +0.000 OA
ATOM     27  N   UNL     1       0.348  13.280  20.546  0.00  0.00    +0.000 N 
ENDBRANCH  15  27
ENDBRANCH   1  15
TORSDOF 4
ENDMDL
MODEL 4
REMARK VINA RESULT:      -7.4      3.818      9.607
REMARK  Name = 
REMARK  4 active torsions:
REMARK  status: ('A' for Active; 'I' for Inactive)
REMARK    1  A    between atoms: N_12  and  C_13
REMARK    2  A    between atoms: C_13  and  C_14
REMARK    3  A    between atoms: C_14  and  N_15
REMARK    4  A    between atoms: N_18  and  C_19
REMARK                            x       y       z     vdW  Elec       q    Type
REMARK                         _______ _______ _______ _____ _____    ______ ____
ROOT
ATOM      1  C   UNL     1       1.199  11.054  20.311  0.00  0.00    +0.000 C 
ENDROOT
BRANCH   1   2
ATOM      2  N   UNL     1       0.360   9.978  19.744  0.00  0.00    +0.000 NA
ATOM      3  C   UNL     1       0.825   9.429  18.446  0.00  0.00    +0.000 C 
ATOM      4  C   UNL     1       2.127   8.587  18.472  0.00  0.00    +0.000 C 
ATOM      5  N   UNL     1       2.141   7.601  19.568  0.00  0.00    +0.000 N 
ATOM      6  C   UNL     1       1.669   8.099  20.871  0.00  0.00    +0.000 C 
ATOM      7  C   UNL     1       0.321   8.845  20.709  0.00  0.00    +0.000 C 
BRANCH   5   8
ATOM      8  C   UNL     1       2.142   6.230  19.371  0.00  0.00    +0.000 A 
ATOM      9  C   UNL     1       2.349   5.633  18.121  0.00  0.00    +0.000 A 
ATOM     10  C   UNL     1       2.304   4.242  17.956  0.00  0.00    +0.000 A 
ATOM     11  C   UNL     1       2.059   3.413  19.048  0.00  0.00    +0.000 A 
ATOM     12  C   UNL     1       1.871   3.981  20.301  0.00  0.00    +0.000 A 
ATOM     13 CL   UNL     1       1.572   2.975  21.665  0.00  0.00    +0.000 Cl
ATOM     14  C   UNL     1       1.917   5.367  20.460  0.00  0.00    +0.000 A 
ENDBRANCH   5   8
ENDBRANCH   1   2
BRANCH   1  15
ATOM     15  C   UNL     1       0.760  12.505  20.073  0.00  0.00    +0.000 C 
BRANCH  15  27
ATOM     16  O   UNL     1      -1.795  12.562  18.712  0.00  0.00    +0.000 OA
ATOM     17  C   UNL     1      -1.707  12.723  19.919  0.00  0.00    +0.000 C 
ATOM     18  C   UNL     1      -2.875  12.924  20.836  0.00  0.00    +0.000 C 
ATOM     19  C   UNL     1      -2.258  13.494  22.124  0.00  0.00    +0.000 C 
ATOM     20  C   UNL     1      -2.630  12.673  23.370  0.00  0.00    +0.000 C 
ATOM     21  C   UNL     1      -4.110  12.793  23.725  0.00  0.00    +0.000 C 
ATOM     22  C   UNL     1      -4.524  14.249  23.914  0.00  0.00    +0.000 C 
ATOM     23  C   UNL     1      -4.140  15.119  22.721  0.00  0.00    +0.000 C 
ATOM     24  C   UNL     1      -2.659  14.967  22.340  0.00  0.00    +0.000 C 
ATOM     25  C   UNL     1      -0.759  13.345  21.873  0.00  0.00    +0.000 C 
ATOM     26  O   UNL     1       0.117  13.725  22.646  0.00  0.00    +0.000 OA
ATOM     27  N   UNL     1      -0.561  12.758  20.654  0.00  0.00    +0.000 N 
ENDBRANCH  15  27
ENDBRANCH   1  15
TORSDOF 4
ENDMDL
MODEL 5
REMARK VINA RESULT:      -7.4      4.553      8.789
REMARK  Name = 
REMARK  4 active torsions:
REMARK  status: ('A' for Active; 'I' for Inactive)
REMARK    1  A    between atoms: N_12  and  C_13
REMARK    2  A    between atoms: C_13  and  C_14
REMARK    3  A    between atoms: C_14  and  N_15
REMARK    4  A    between atoms: N_18  and  C_19
REMARK                            x       y       z     vdW  Elec       q    Type
REMARK                         _______ _______ _______ _____ _____    ______ ____
ROOT
ATOM      1  C   UNL     1       0.287  11.218  21.261  0.00  0.00    +0.000 C 
ENDROOT
BRANCH   1   2
ATOM      2  N   UNL     1      -0.352  10.059  20.603  0.00  0.00    +0.000 NA
ATOM      3  C   UNL     1       0.163   9.736  19.249  0.00  0.00    +0.000 C 
ATOM      4  C   UNL     1       1.602   9.163  19.169  0.00  0.00    +0.000 C 
ATOM      5  N   UNL     1       1.842   8.099  20.160  0.00  0.00    +0.000 N 
ATOM      6  C   UNL     1       1.330   8.370  21.514  0.00  0.00    +0.000 C 
ATOM      7  C   UNL     1      -0.140   8.853  21.451  0.00  0.00    +0.000 C 
BRANCH   5   8
ATOM      8  C   UNL     1       2.097   6.778  19.827  0.00  0.00    +0.000 A 
ATOM      9  C   UNL     1       1.647   5.693  20.590  0.00  0.00    +0.000 A 
ATOM     10  C   UNL     1       1.959   4.372  20.241  0.00  0.00    +0.000 A 
ATOM     11  C   UNL     1       2.724   4.107  19.107  0.00  0.00    +0.000 A 
ATOM     12  C   UNL     1       3.163   5.166  18.325  0.00  0.00    +0.000 A 
ATOM     13 CL   UNL     1       4.106   4.861  16.917  0.00  0.00    +0.000 Cl
ATOM     14  C   UNL     1       2.850   6.480  18.677  0.00  0.00    +0.000 A 
ENDBRANCH   5   8
ENDBRANCH   1   2
BRANCH   1  15
ATOM     15  C   UNL     1      -0.415  12.578  21.153  0.00  0.00    +0.000 C 
BRANCH  15  27
ATOM     16  O   UNL     1       1.096  14.626  22.534  0.00  0.00    +0.000 OA
ATOM     17  C   UNL     1       1.167  14.481  21.324  0.00  0.00    +0.000 C 
ATOM     18  C   UNL     1       2.049  15.292  20.422  0.00  0.00    +0.000 C 
ATOM     19  C   UNL     1       1.483  15.049  19.014  0.00  0.00    +0.000 C 
ATOM     20  C   UNL     1       2.550  14.538  18.030  0.00  0.00    +0.000 C 
ATOM     21  C   UNL     1       3.595  15.600  17.702  0.00  0.00    +0.000 C 
ATOM     22  C   UNL     1       2.951  16.873  17.162  0.00  0.00    +0.000 C 
ATOM     23  C   UNL     1       1.854  17.401  18.081  0.00  0.00    +0.000 C 
ATOM     24  C   UNL     1       0.824  16.320  18.441  0.00  0.00    +0.000 C 
ATOM     25  C   UNL     1       0.464  13.936  19.247  0.00  0.00    +0.000 C 
ATOM     26  O   UNL     1      -0.261  13.463  18.376  0.00  0.00    +0.000 OA
ATOM     27  N   UNL     1       0.473  13.586  20.569  0.00  0.00    +0.000 N 
ENDBRANCH  15  27
ENDBRANCH   1  15
TORSDOF 4
ENDMDL
MODEL 6
REMARK VINA RESULT:      -7.4      3.784      9.676
REMARK  Name = 
REMARK  4 active torsions:
REMARK  status: ('A' for Active; 'I' for Inactive)
REMARK    1  A    between atoms: N_12  and  C_13
REMARK    2  A    between atoms: C_13  and  C_14
REMARK    3  A    between atoms: C_14  and  N_15
REMARK    4  A    between atoms: N_18  and  C_19
REMARK                            x       y       z     vdW  Elec       q    Type
REMARK                         _______ _______ _______ _____ _____    ______ ____
ROOT
ATOM      1  C   UNL     1       0.832  11.357  19.994  0.00  0.00    +0.000 C 
ENDROOT
BRANCH   1   2
ATOM      2  N   UNL     1       0.106  10.187  19.458  0.00  0.00    +0.000 NA
ATOM      3  C   UNL     1       0.643   9.634  18.190  0.00  0.00    +0.000 C 
ATOM      4  C   UNL     1       2.017   8.918  18.269  0.00  0.00    +0.000 C 
ATOM      5  N   UNL     1       2.101   7.981  19.404  0.00  0.00    +0.000 N 
ATOM      6  C   UNL     1       1.561   8.483  20.679  0.00  0.00    +0.000 C 
ATOM      7  C   UNL     1       0.154   9.093  20.467  0.00  0.00    +0.000 C 
BRANCH   5   8
ATOM      8  C   UNL     1       2.232   6.609  19.263  0.00  0.00    +0.000 A 
ATOM      9  C   UNL     1       2.556   5.989  18.049  0.00  0.00    +0.000 A 
ATOM     10  C   UNL     1       2.641   4.594  17.938  0.00  0.00    +0.000 A 
ATOM     11  C   UNL     1       2.413   3.786  19.049  0.00  0.00    +0.000 A 
ATOM     12  C   UNL     1       2.111   4.380  20.268  0.00  0.00    +0.000 A 
ATOM     13 CL   UNL     1       1.830   3.400  21.655  0.00  0.00    +0.000 Cl
ATOM     14  C   UNL     1       2.027   5.768  20.373  0.00  0.00    +0.000 A 
ENDBRANCH   5   8
ENDBRANCH   1   2
BRANCH   1  15
ATOM     15  C   UNL     1       0.264  12.751  19.692  0.00  0.00    +0.000 C 
BRANCH  15  27
ATOM     16  O   UNL     1       0.949  13.912  22.254  0.00  0.00    +0.000 OA
ATOM     17  C   UNL     1      -0.211  13.761  21.908  0.00  0.00    +0.000 C 
ATOM     18  C   UNL     1      -1.401  14.180  22.718  0.00  0.00    +0.000 C 
ATOM     19  C   UNL     1      -2.579  13.415  22.093  0.00  0.00    +0.000 C 
ATOM     20  C   UNL     1      -3.728  14.346  21.669  0.00  0.00    +0.000 C 
ATOM     21  C   UNL     1      -4.440  14.972  22.864  0.00  0.00    +0.000 C 
ATOM     22  C   UNL     1      -4.956  13.910  23.829  0.00  0.00    +0.000 C 
ATOM     23  C   UNL     1      -3.863  12.932  24.251  0.00  0.00    +0.000 C 
ATOM     24  C   UNL     1      -3.121  12.332  23.047  0.00  0.00    +0.000 C 
ATOM     25  C   UNL     1      -1.958  12.807  20.837  0.00  0.00    +0.000 C 
ATOM     26  O   UNL     1      -2.551  12.068  20.055  0.00  0.00    +0.000 OA
ATOM     27  N   UNL     1      -0.648  13.190  20.751  0.00  0.00    +0.000 N 
ENDBRANCH  15  27
ENDBRANCH   1  15
TORSDOF 4
ENDMDL
MODEL 7
REMARK VINA RESULT:      -7.4      2.076      2.911
REMARK  Name = 
REMARK  4 active torsions:
REMARK  status: ('A' for Active; 'I' for Inactive)
REMARK    1  A    between atoms: N_12  and  C_13
REMARK    2  A    between atoms: C_13  and  C_14
REMARK    3  A    between atoms: C_14  and  N_15
REMARK    4  A    between atoms: N_18  and  C_19
REMARK                            x       y       z     vdW  Elec       q    Type
REMARK                         _______ _______ _______ _____ _____    ______ ____
ROOT
ATOM      1  C   UNL     1       1.140   9.083  18.013  0.00  0.00    +0.000 C 
ENDROOT
BRANCH   1   2
ATOM      2  N   UNL     1       0.858  10.533  18.075  0.00  0.00    +0.000 NA
ATOM      3  C   UNL     1      -0.576  10.896  18.189  0.00  0.00    +0.000 C 
ATOM      4  C   UNL     1      -1.274  10.564  19.533  0.00  0.00    +0.000 C 
ATOM      5  N   UNL     1      -0.470  10.965  20.701  0.00  0.00    +0.000 N 
ATOM      6  C   UNL     1       0.965  10.642  20.622  0.00  0.00    +0.000 C 
ATOM      7  C   UNL     1       1.549  11.103  19.264  0.00  0.00    +0.000 C 
BRANCH   5   8
ATOM      8  C   UNL     1      -0.853  11.947  21.600  0.00  0.00    +0.000 A 
ATOM      9  C   UNL     1      -0.112  13.115  21.824  0.00  0.00    +0.000 A 
ATOM     10  C   UNL     1      -0.514  14.067  22.772  0.00  0.00    +0.000 A 
ATOM     11  C   UNL     1      -1.678  13.875  23.511  0.00  0.00    +0.000 A 
ATOM     12  C   UNL     1      -2.439  12.734  23.291  0.00  0.00    +0.000 A 
ATOM     13 CL   UNL     1      -3.884  12.479  24.191  0.00  0.00    +0.000 Cl
ATOM     14  C   UNL     1      -2.035  11.789  22.348  0.00  0.00    +0.000 A 
ENDBRANCH   5   8
ENDBRANCH   1   2
BRANCH   1  15
ATOM     15  C   UNL     1       2.547   8.611  18.402  0.00  0.00    +0.000 C 
BRANCH  15  27
ATOM     16  O   UNL     1       1.621   7.313  20.819  0.00  0.00    +0.000 OA
ATOM     17  C   UNL     1       2.056   6.675  19.874  0.00  0.00    +0.000 C 
ATOM     18  C   UNL     1       2.130   5.178  19.822  0.00  0.00    +0.000 C 
ATOM     19  C   UNL     1       3.110   4.883  18.675  0.00  0.00    +0.000 C 
ATOM     20  C   UNL     1       2.509   3.945  17.614  0.00  0.00    +0.000 C 
ATOM     21  C   UNL     1       2.302   2.528  18.140  0.00  0.00    +0.000 C 
ATOM     22  C   UNL     1       3.598   1.938  18.686  0.00  0.00    +0.000 C 
ATOM     23  C   UNL     1       4.259   2.850  19.716  0.00  0.00    +0.000 C 
ATOM     24  C   UNL     1       4.431   4.285  19.198  0.00  0.00    +0.000 C 
ATOM     25  C   UNL     1       3.318   6.259  18.046  0.00  0.00    +0.000 C 
ATOM     26  O   UNL     1       4.077   6.488  17.108  0.00  0.00    +0.000 OA
ATOM     27  N   UNL     1       2.556   7.179  18.712  0.00  0.00    +0.000 N 
ENDBRANCH  15  27
ENDBRANCH   1  15
TORSDOF 4
ENDMDL
MODEL 8
REMARK VINA RESULT:      -7.4      2.059      2.972
REMARK  Name = 
REMARK  4 active torsions:
REMARK  status: ('A' for Active; 'I' for Inactive)
REMARK    1  A    between atoms: N_12  and  C_13
REMARK    2  A    between atoms: C_13  and  C_14
REMARK    3  A    between atoms: C_14  and  N_15
REMARK    4  A    between atoms: N_18  and  C_19
REMARK                            x       y       z     vdW  Elec       q    Type
REMARK                         _______ _______ _______ _____ _____    ______ ____
ROOT
ATOM      1  C   UNL     1       0.790   9.942  18.470  0.00  0.00    +0.000 C 
ENDROOT
BRANCH   1   2
ATOM      2  N   UNL     1       0.576  11.388  18.691  0.00  0.00    +0.000 NA
ATOM      3  C   UNL     1      -0.838  11.835  18.635  0.00  0.00    +0.000 C 
ATOM      4  C   UNL     1      -1.759  11.381  19.798  0.00  0.00    +0.000 C 
ATOM      5  N   UNL     1      -1.133  11.567  21.119  0.00  0.00    +0.000 N 
ATOM      6  C   UNL     1       0.277  11.153  21.214  0.00  0.00    +0.000 C 
ATOM      7  C   UNL     1       1.095  11.745  20.040  0.00  0.00    +0.000 C 
BRANCH   5   8
ATOM      8  C   UNL     1      -1.606  12.448  22.079  0.00  0.00    +0.000 A 
ATOM      9  C   UNL     1      -0.792  13.387  22.726  0.00  0.00    +0.000 A 
ATOM     10  C   UNL     1      -1.300  14.235  23.720  0.00  0.00    +0.000 A 
ATOM     11  C   UNL     1      -2.643  14.168  24.082  0.00  0.00    +0.000 A 
ATOM     12  C   UNL     1      -3.473  13.258  23.439  0.00  0.00    +0.000 A 
ATOM     13 CL   UNL     1      -5.137  13.161  23.867  0.00  0.00    +0.000 Cl
ATOM     14  C   UNL     1      -2.963  12.416  22.450  0.00  0.00    +0.000 A 
ENDBRANCH   5   8
ENDBRANCH   1   2
BRANCH   1  15
ATOM     15  C   UNL     1       2.233   9.421  18.491  0.00  0.00    +0.000 C 
BRANCH  15  27
ATOM     16  O   UNL     1       1.623   8.167  21.028  0.00  0.00    +0.000 OA
ATOM     17  C   UNL     1       1.927   7.511  20.045  0.00  0.00    +0.000 C 
ATOM     18  C   UNL     1       1.985   6.013  20.008  0.00  0.00    +0.000 C 
ATOM     19  C   UNL     1       2.804   5.693  18.747  0.00  0.00    +0.000 C 
ATOM     20  C   UNL     1       2.064   4.745  17.788  0.00  0.00    +0.000 C 
ATOM     21  C   UNL     1       1.919   3.337  18.359  0.00  0.00    +0.000 C 
ATOM     22  C   UNL     1       3.272   2.745  18.741  0.00  0.00    +0.000 C 
ATOM     23  C   UNL     1       4.068   3.666  19.661  0.00  0.00    +0.000 C 
ATOM     24  C   UNL     1       4.179   5.093  19.103  0.00  0.00    +0.000 C 
ATOM     25  C   UNL     1       2.936   7.058  18.075  0.00  0.00    +0.000 C 
ATOM     26  O   UNL     1       3.568   7.266  17.042  0.00  0.00    +0.000 OA
ATOM     27  N   UNL     1       2.274   7.994  18.820  0.00  0.00    +0.000 N 
ENDBRANCH  15  27
ENDBRANCH   1  15
TORSDOF 4
ENDMDL
MODEL 9
REMARK VINA RESULT:      -7.4      4.132      9.105
REMARK  Name = 
REMARK  4 active torsions:
REMARK  status: ('A' for Active; 'I' for Inactive)
REMARK    1  A    between atoms: N_12  and  C_13
REMARK    2  A    between atoms: C_13  and  C_14
REMARK    3  A    between atoms: C_14  and  N_15
REMARK    4  A    between atoms: N_18  and  C_19
REMARK                            x       y       z     vdW  Elec       q    Type
REMARK                         _______ _______ _______ _____ _____    ______ ____
ROOT
ATOM      1  C   UNL     1       0.964   5.880  20.397  0.00  0.00    +0.000 C 
ENDROOT
BRANCH   1   2
ATOM      2  N   UNL     1       1.735   4.654  20.101  0.00  0.00    +0.000 NA
ATOM      3  C   UNL     1       1.661   4.183  18.696  0.00  0.00    +0.000 C 
ATOM      4  C   UNL     1       2.375   5.054  17.630  0.00  0.00    +0.000 C 
ATOM      5  N   UNL     1       3.730   5.458  18.046  0.00  0.00    +0.000 N 
ATOM      6  C   UNL     1       3.853   5.915  19.440  0.00  0.00    +0.000 C 
ATOM      7  C   UNL     1       3.171   4.911  20.401  0.00  0.00    +0.000 C 
BRANCH   5   8
ATOM      8  C   UNL     1       4.887   5.047  17.405  0.00  0.00    +0.000 A 
ATOM      9  C   UNL     1       6.136   4.988  18.038  0.00  0.00    +0.000 A 
ATOM     10  C   UNL     1       7.291   4.603  17.343  0.00  0.00    +0.000 A 
ATOM     11  C   UNL     1       7.220   4.257  15.996  0.00  0.00    +0.000 A 
ATOM     12  C   UNL     1       5.989   4.289  15.354  0.00  0.00    +0.000 A 
ATOM     13 CL   UNL     1       5.876   3.861  13.690  0.00  0.00    +0.000 Cl
ATOM     14  C   UNL     1       4.841   4.673  16.049  0.00  0.00    +0.000 A 
ENDBRANCH   5   8
ENDBRANCH   1   2
BRANCH   1  15
ATOM     15  C   UNL     1       1.726   7.087  20.960  0.00  0.00    +0.000 C 
BRANCH  15  27
ATOM     16  O   UNL     1      -0.653   8.175  22.200  0.00  0.00    +0.000 OA
ATOM     17  C   UNL     1      -0.057   8.774  21.319  0.00  0.00    +0.000 C 
ATOM     18  C   UNL     1      -0.440  10.129  20.804  0.00  0.00    +0.000 C 
ATOM     19  C   UNL     1       0.306  10.255  19.466  0.00  0.00    +0.000 C 
ATOM     20  C   UNL     1       1.180  11.518  19.396  0.00  0.00    +0.000 C 
ATOM     21  C   UNL     1       0.350  12.798  19.343  0.00  0.00    +0.000 C 
ATOM     22  C   UNL     1      -0.637  12.779  18.180  0.00  0.00    +0.000 C 
ATOM     23  C   UNL     1      -1.503  11.523  18.178  0.00  0.00    +0.000 C 
ATOM     24  C   UNL     1      -0.668  10.237  18.270  0.00  0.00    +0.000 C 
ATOM     25  C   UNL     1       1.220   9.032  19.473  0.00  0.00    +0.000 C 
ATOM     26  O   UNL     1       1.970   8.718  18.552  0.00  0.00    +0.000 OA
ATOM     27  N   UNL     1       1.040   8.341  20.639  0.00  0.00    +0.000 N 
ENDBRANCH  15  27
ENDBRANCH   1  15
TORSDOF 4
ENDMDL
