MODEL 1
REMARK VINA RESULT:      -7.4      0.000      0.000
REMARK  Name = 
REMARK  2 active torsions:
REMARK  status: ('A' for Active; 'I' for Inactive)
REMARK    1  A    between atoms: C_2  and  O_3
REMARK    2  A    between atoms: C_2  and  C_4
REMARK                            x       y       z     vdW  Elec       q    Type
REMARK                         _______ _______ _______ _____ _____    ______ ____
ROOT
ATOM      1  C   UNL     1       6.030   4.746  15.149  0.00  0.00    +0.000 A 
ATOM      2  C   UNL     1       5.587   3.585  15.757  0.00  0.00    +0.000 A 
ATOM      3  C   UNL     1       4.689   3.842  16.836  0.00  0.00    +0.000 A 
ATOM      4  C   UNL     1       4.452   5.186  16.990  0.00  0.00    +0.000 A 
ATOM      5  S   UNL     1       5.317   6.128  15.875  0.00  0.00    +0.000 S 
ATOM      6  C   UNL     1       3.558   5.689  18.023  0.00  0.00    +0.000 A 
ATOM      7  C   UNL     1       3.280   7.052  18.208  0.00  0.00    +0.000 A 
ATOM      8  C   UNL     1       2.420   7.464  19.226  0.00  0.00    +0.000 A 
ATOM      9  C   UNL     1       1.839   6.518  20.062  0.00  0.00    +0.000 A 
ATOM     10  F   UNL     1       1.022   6.947  21.037  0.00  0.00    +0.000 F 
ATOM     11  C   UNL     1       2.096   5.158  19.893  0.00  0.00    +0.000 A 
ATOM     12 CL   UNL     1       1.345   4.024  20.962  0.00  0.00    +0.000 Cl
ATOM     13  C   UNL     1       2.956   4.733  18.869  0.00  0.00    +0.000 A 
ATOM     14  O   UNL     1       3.158   3.376  18.750  0.00  0.00    +0.000 OA
ATOM     15  C   UNL     1       4.045   2.848  17.739  0.00  0.00    +0.000 C 
ENDROOT
BRANCH   1  17
ATOM     16  O   UNL     1       7.937   5.591  14.015  0.00  0.00    +0.000 OA
ATOM     17  C   UNL     1       6.965   4.849  14.044  0.00  0.00    +0.000 C 
BRANCH  17  18
ATOM     18  O   UNL     1       6.656   4.039  12.998  0.00  0.00    +0.000 OA
ATOM     19  H   UNL     1       6.038   3.331  13.263  0.00  0.00    +0.000 HD
ENDBRANCH  17  18
ENDBRANCH   1  17
TORSDOF 2
ENDMDL
MODEL 2
REMARK VINA RESULT:      -7.4      1.768      2.719
REMARK  Name = 
REMARK  2 active torsions:
REMARK  status: ('A' for Active; 'I' for Inactive)
REMARK    1  A    between atoms: C_2  and  O_3
REMARK    2  A    between atoms: C_2  and  C_4
REMARK                            x       y       z     vdW  Elec       q    Type
REMARK                         _______ _______ _______ _____ _____    ______ ____
ROOT
ATOM      1  C   UNL     1       6.153   4.957  15.006  0.00  0.00    +0.000 A 
ATOM      2  C   UNL     1       5.671   6.075  15.663  0.00  0.00    +0.000 A 
ATOM      3  C   UNL     1       4.756   5.742  16.707  0.00  0.00    +0.000 A 
ATOM      4  C   UNL     1       4.601   4.384  16.831  0.00  0.00    +0.000 A 
ATOM      5  S   UNL     1       5.516   3.520  15.693  0.00  0.00    +0.000 S 
ATOM      6  C   UNL     1       3.723   3.806  17.839  0.00  0.00    +0.000 A 
ATOM      7  C   UNL     1       3.543   2.424  18.007  0.00  0.00    +0.000 A 
ATOM      8  C   UNL     1       2.677   1.941  18.987  0.00  0.00    +0.000 A 
ATOM      9  C   UNL     1       1.987   2.833  19.798  0.00  0.00    +0.000 A 
ATOM     10  F   UNL     1       1.155   2.337  20.728  0.00  0.00    +0.000 F 
ATOM     11  C   UNL     1       2.154   4.210  19.653  0.00  0.00    +0.000 A 
ATOM     12 CL   UNL     1       1.271   5.276  20.691  0.00  0.00    +0.000 Cl
ATOM     13  C   UNL     1       3.027   4.707  18.673  0.00  0.00    +0.000 A 
ATOM     14  O   UNL     1       3.155   6.075  18.590  0.00  0.00    +0.000 OA
ATOM     15  C   UNL     1       4.013   6.678  17.596  0.00  0.00    +0.000 C 
ENDROOT
BRANCH   1  17
ATOM     16  O   UNL     1       8.073   5.635  13.784  0.00  0.00    +0.000 OA
ATOM     17  C   UNL     1       7.075   4.936  13.884  0.00  0.00    +0.000 C 
BRANCH  17  18
ATOM     18  O   UNL     1       6.720   4.056  12.912  0.00  0.00    +0.000 OA
ATOM     19  H   UNL     1       6.831   3.132  13.206  0.00  0.00    +0.000 HD
ENDBRANCH  17  18
ENDBRANCH   1  17
TORSDOF 2
ENDMDL
MODEL 3
REMARK VINA RESULT:      -7.3      1.666      2.644
REMARK  Name = 
REMARK  2 active torsions:
REMARK  status: ('A' for Active; 'I' for Inactive)
REMARK    1  A    between atoms: C_2  and  O_3
REMARK    2  A    between atoms: C_2  and  C_4
REMARK                            x       y       z     vdW  Elec       q    Type
REMARK                         _______ _______ _______ _____ _____    ______ ____
ROOT
ATOM      1  C   UNL     1       5.968   5.012  15.095  0.00  0.00    +0.000 A 
ATOM      2  C   UNL     1       5.478   6.221  15.554  0.00  0.00    +0.000 A 
ATOM      3  C   UNL     1       4.637   6.071  16.697  0.00  0.00    +0.000 A 
ATOM      4  C   UNL     1       4.545   4.759  17.090  0.00  0.00    +0.000 A 
ATOM      5  S   UNL     1       5.430   3.718  16.085  0.00  0.00    +0.000 S 
ATOM      6  C   UNL     1       3.748   4.362  18.243  0.00  0.00    +0.000 A 
ATOM      7  C   UNL     1       3.635   3.035  18.685  0.00  0.00    +0.000 A 
ATOM      8  C   UNL     1       2.845   2.726  19.792  0.00  0.00    +0.000 A 
ATOM      9  C   UNL     1       2.165   3.739  20.458  0.00  0.00    +0.000 A 
ATOM     10  F   UNL     1       1.408   3.409  21.516  0.00  0.00    +0.000 F 
ATOM     11  C   UNL     1       2.268   5.066  20.040  0.00  0.00    +0.000 A 
ATOM     12 CL   UNL     1       1.400   6.287  20.906  0.00  0.00    +0.000 Cl
ATOM     13  C   UNL     1       3.064   5.388  18.930  0.00  0.00    +0.000 A 
ATOM     14  O   UNL     1       3.130   6.717  18.577  0.00  0.00    +0.000 OA
ATOM     15  C   UNL     1       3.906   7.140  17.434  0.00  0.00    +0.000 C 
ENDROOT
BRANCH   1  17
ATOM     16  O   UNL     1       6.634   3.964  13.071  0.00  0.00    +0.000 OA
ATOM     17  C   UNL     1       6.826   4.799  13.943  0.00  0.00    +0.000 C 
BRANCH  17  18
ATOM     18  O   UNL     1       7.908   5.621  13.918  0.00  0.00    +0.000 OA
ATOM     19  H   UNL     1       8.045   6.060  14.779  0.00  0.00    +0.000 HD
ENDBRANCH  17  18
ENDBRANCH   1  17
TORSDOF 2
ENDMDL
MODEL 4
REMARK VINA RESULT:      -7.0      1.972      2.521
REMARK  Name = 
REMARK  2 active torsions:
REMARK  status: ('A' for Active; 'I' for Inactive)
REMARK    1  A    between atoms: C_2  and  O_3
REMARK    2  A    between atoms: C_2  and  C_4
REMARK                            x       y       z     vdW  Elec       q    Type
REMARK                         _______ _______ _______ _____ _____    ______ ____
ROOT
ATOM      1  C   UNL     1       6.482   4.819  15.260  0.00  0.00    +0.000 A 
ATOM      2  C   UNL     1       6.757   5.396  16.487  0.00  0.00    +0.000 A 
ATOM      3  C   UNL     1       5.759   5.102  17.464  0.00  0.00    +0.000 A 
ATOM      4  C   UNL     1       4.780   4.283  16.959  0.00  0.00    +0.000 A 
ATOM      5  S   UNL     1       5.037   3.897  15.327  0.00  0.00    +0.000 S 
ATOM      6  C   UNL     1       3.660   3.839  17.777  0.00  0.00    +0.000 A 
ATOM      7  C   UNL     1       2.644   2.994  17.304  0.00  0.00    +0.000 A 
ATOM      8  C   UNL     1       1.595   2.616  18.141  0.00  0.00    +0.000 A 
ATOM      9  C   UNL     1       1.555   3.083  19.449  0.00  0.00    +0.000 A 
ATOM     10  F   UNL     1       0.529   2.707  20.228  0.00  0.00    +0.000 F 
ATOM     11  C   UNL     1       2.557   3.918  19.943  0.00  0.00    +0.000 A 
ATOM     12 CL   UNL     1       2.458   4.468  21.580  0.00  0.00    +0.000 Cl
ATOM     13  C   UNL     1       3.620   4.300  19.110  0.00  0.00    +0.000 A 
ATOM     14  O   UNL     1       4.581   5.117  19.663  0.00  0.00    +0.000 OA
ATOM     15  C   UNL     1       5.699   5.580  18.874  0.00  0.00    +0.000 C 
ENDROOT
BRANCH   1  17
ATOM     16  O   UNL     1       8.226   5.685  13.901  0.00  0.00    +0.000 OA
ATOM     17  C   UNL     1       7.270   4.936  14.046  0.00  0.00    +0.000 C 
BRANCH  17  18
ATOM     18  O   UNL     1       6.836   4.130  13.042  0.00  0.00    +0.000 OA
ATOM     19  H   UNL     1       7.036   4.511  12.165  0.00  0.00    +0.000 HD
ENDBRANCH  17  18
ENDBRANCH   1  17
TORSDOF 2
ENDMDL
MODEL 5
REMARK VINA RESULT:      -6.8      4.295      6.902
REMARK  Name = 
REMARK  2 active torsions:
REMARK  status: ('A' for Active; 'I' for Inactive)
REMARK    1  A    between atoms: C_2  and  O_3
REMARK    2  A    between atoms: C_2  and  C_4
REMARK                            x       y       z     vdW  Elec       q    Type
REMARK                         _______ _______ _______ _____ _____    ______ ____
ROOT
ATOM      1  C   UNL     1       4.207   4.541  18.716  0.00  0.00    +0.000 A 
ATOM      2  C   UNL     1       5.285   5.408  18.685  0.00  0.00    +0.000 A 
ATOM      3  C   UNL     1       5.947   5.412  17.421  0.00  0.00    +0.000 A 
ATOM      4  C   UNL     1       5.330   4.576  16.523  0.00  0.00    +0.000 A 
ATOM      5  S   UNL     1       3.994   3.776  17.196  0.00  0.00    +0.000 S 
ATOM      6  C   UNL     1       5.822   4.423  15.161  0.00  0.00    +0.000 A 
ATOM      7  C   UNL     1       5.216   3.589  14.209  0.00  0.00    +0.000 A 
ATOM      8  C   UNL     1       5.748   3.483  12.925  0.00  0.00    +0.000 A 
ATOM      9  C   UNL     1       6.886   4.206  12.588  0.00  0.00    +0.000 A 
ATOM     10  F   UNL     1       7.378   4.077  11.346  0.00  0.00    +0.000 F 
ATOM     11  C   UNL     1       7.502   5.045  13.516  0.00  0.00    +0.000 A 
ATOM     12 CL   UNL     1       8.916   5.923  13.043  0.00  0.00    +0.000 Cl
ATOM     13  C   UNL     1       6.971   5.163  14.810  0.00  0.00    +0.000 A 
ATOM     14  O   UNL     1       7.621   6.017  15.673  0.00  0.00    +0.000 OA
ATOM     15  C   UNL     1       7.160   6.183  17.032  0.00  0.00    +0.000 C 
ENDROOT
BRANCH   1  17
ATOM     16  O   UNL     1       2.906   3.172  20.154  0.00  0.00    +0.000 OA
ATOM     17  C   UNL     1       3.336   4.275  19.846  0.00  0.00    +0.000 C 
BRANCH  17  18
ATOM     18  O   UNL     1       3.010   5.389  20.551  0.00  0.00    +0.000 OA
ATOM     19  H   UNL     1       2.103   5.334  20.909  0.00  0.00    +0.000 HD
ENDBRANCH  17  18
ENDBRANCH   1  17
TORSDOF 2
ENDMDL
MODEL 6
REMARK VINA RESULT:      -6.8      2.134      2.779
REMARK  Name = 
REMARK  2 active torsions:
REMARK  status: ('A' for Active; 'I' for Inactive)
REMARK    1  A    between atoms: C_2  and  O_3
REMARK    2  A    between atoms: C_2  and  C_4
REMARK                            x       y       z     vdW  Elec       q    Type
REMARK                         _______ _______ _______ _____ _____    ______ ____
ROOT
ATOM      1  C   UNL     1       5.551   4.840  16.965  0.00  0.00    +0.000 A 
ATOM      2  C   UNL     1       4.988   4.344  18.128  0.00  0.00    +0.000 A 
ATOM      3  C   UNL     1       4.041   5.244  18.703  0.00  0.00    +0.000 A 
ATOM      4  C   UNL     1       3.889   6.376  17.940  0.00  0.00    +0.000 A 
ATOM      5  S   UNL     1       4.890   6.373  16.570  0.00  0.00    +0.000 S 
ATOM      6  C   UNL     1       2.966   7.435  18.323  0.00  0.00    +0.000 A 
ATOM      7  C   UNL     1       2.772   8.602  17.568  0.00  0.00    +0.000 A 
ATOM      8  C   UNL     1       1.879   9.581  18.001  0.00  0.00    +0.000 A 
ATOM      9  C   UNL     1       1.179   9.399  19.188  0.00  0.00    +0.000 A 
ATOM     10  F   UNL     1       0.331  10.362  19.581  0.00  0.00    +0.000 F 
ATOM     11  C   UNL     1       1.351   8.245  19.951  0.00  0.00    +0.000 A 
ATOM     12 CL   UNL     1       0.453   8.069  21.420  0.00  0.00    +0.000 Cl
ATOM     13  C   UNL     1       2.244   7.251  19.522  0.00  0.00    +0.000 A 
ATOM     14  O   UNL     1       2.359   6.132  20.316  0.00  0.00    +0.000 OA
ATOM     15  C   UNL     1       3.272   5.069  19.966  0.00  0.00    +0.000 C 
ENDROOT
BRANCH   1  17
ATOM     16  O   UNL     1       6.373   3.753  15.021  0.00  0.00    +0.000 OA
ATOM     17  C   UNL     1       6.562   4.199  16.144  0.00  0.00    +0.000 C 
BRANCH  17  18
ATOM     18  O   UNL     1       7.775   4.116  16.750  0.00  0.00    +0.000 OA
ATOM     19  H   UNL     1       8.368   3.497  16.282  0.00  0.00    +0.000 HD
ENDBRANCH  17  18
ENDBRANCH   1  17
TORSDOF 2
ENDMDL
MODEL 7
REMARK VINA RESULT:      -6.5      3.604      4.592
REMARK  Name = 
REMARK  2 active torsions:
REMARK  status: ('A' for Active; 'I' for Inactive)
REMARK    1  A    between atoms: C_2  and  O_3
REMARK    2  A    between atoms: C_2  and  C_4
REMARK                            x       y       z     vdW  Elec       q    Type
REMARK                         _______ _______ _______ _____ _____    ______ ____
ROOT
ATOM      1  C   UNL     1       4.105   3.209  19.328  0.00  0.00    +0.000 A 
ATOM      2  C   UNL     1       4.481   4.017  18.270  0.00  0.00    +0.000 A 
ATOM      3  C   UNL     1       3.865   5.304  18.319  0.00  0.00    +0.000 A 
ATOM      4  C   UNL     1       3.071   5.443  19.431  0.00  0.00    +0.000 A 
ATOM      5  S   UNL     1       3.040   4.041  20.385  0.00  0.00    +0.000 S 
ATOM      6  C   UNL     1       2.347   6.677  19.700  0.00  0.00    +0.000 A 
ATOM      7  C   UNL     1       1.533   6.866  20.828  0.00  0.00    +0.000 A 
ATOM      8  C   UNL     1       0.860   8.072  21.017  0.00  0.00    +0.000 A 
ATOM      9  C   UNL     1       0.995   9.091  20.081  0.00  0.00    +0.000 A 
ATOM     10  F   UNL     1       0.329  10.238  20.288  0.00  0.00    +0.000 F 
ATOM     11  C   UNL     1       1.803   8.929  18.957  0.00  0.00    +0.000 A 
ATOM     12 CL   UNL     1       1.936  10.230  17.825  0.00  0.00    +0.000 Cl
ATOM     13  C   UNL     1       2.489   7.720  18.759  0.00  0.00    +0.000 A 
ATOM     14  O   UNL     1       3.277   7.629  17.634  0.00  0.00    +0.000 OA
ATOM     15  C   UNL     1       4.002   6.414  17.337  0.00  0.00    +0.000 C 
ENDROOT
BRANCH   1  17
ATOM     16  O   UNL     1       5.159   1.462  20.542  0.00  0.00    +0.000 OA
ATOM     17  C   UNL     1       4.520   1.839  19.569  0.00  0.00    +0.000 C 
BRANCH  17  18
ATOM     18  O   UNL     1       4.145   0.980  18.587  0.00  0.00    +0.000 OA
ATOM     19  H   UNL     1       4.876   0.386  18.331  0.00  0.00    +0.000 HD
ENDBRANCH  17  18
ENDBRANCH   1  17
TORSDOF 2
ENDMDL
MODEL 8
REMARK VINA RESULT:      -6.4      3.850      5.084
REMARK  Name = 
REMARK  2 active torsions:
REMARK  status: ('A' for Active; 'I' for Inactive)
REMARK    1  A    between atoms: C_2  and  O_3
REMARK    2  A    between atoms: C_2  and  C_4
REMARK                            x       y       z     vdW  Elec       q    Type
REMARK                         _______ _______ _______ _____ _____    ______ ____
ROOT
ATOM      1  C   UNL     1       3.519   4.429  19.093  0.00  0.00    +0.000 A 
ATOM      2  C   UNL     1       3.729   5.370  18.101  0.00  0.00    +0.000 A 
ATOM      3  C   UNL     1       3.075   6.609  18.376  0.00  0.00    +0.000 A 
ATOM      4  C   UNL     1       2.421   6.580  19.583  0.00  0.00    +0.000 A 
ATOM      5  S   UNL     1       2.563   5.079  20.361  0.00  0.00    +0.000 S 
ATOM      6  C   UNL     1       1.689   7.736  20.081  0.00  0.00    +0.000 A 
ATOM      7  C   UNL     1       1.016   7.753  21.312  0.00  0.00    +0.000 A 
ATOM      8  C   UNL     1       0.326   8.893  21.722  0.00  0.00    +0.000 A 
ATOM      9  C   UNL     1       0.303  10.017  20.904  0.00  0.00    +0.000 A 
ATOM     10  F   UNL     1      -0.375  11.097  21.324  0.00  0.00    +0.000 F 
ATOM     11  C   UNL     1       0.970  10.025  19.680  0.00  0.00    +0.000 A 
ATOM     12 CL   UNL     1       0.911  11.451  18.702  0.00  0.00    +0.000 Cl
ATOM     13  C   UNL     1       1.672   8.884  19.260  0.00  0.00    +0.000 A 
ATOM     14  O   UNL     1       2.317   8.962  18.046  0.00  0.00    +0.000 OA
ATOM     15  C   UNL     1       3.044   7.829  17.522  0.00  0.00    +0.000 C 
ENDROOT
BRANCH   1  17
ATOM     16  O   UNL     1       3.356   2.075  18.830  0.00  0.00    +0.000 OA
ATOM     17  C   UNL     1       4.014   3.065  19.119  0.00  0.00    +0.000 C 
BRANCH  17  18
ATOM     18  O   UNL     1       5.308   2.969  19.520  0.00  0.00    +0.000 OA
ATOM     19  H   UNL     1       5.926   3.178  18.793  0.00  0.00    +0.000 HD
ENDBRANCH  17  18
ENDBRANCH   1  17
TORSDOF 2
ENDMDL
MODEL 9
REMARK VINA RESULT:      -6.2      2.741      3.735
REMARK  Name = 
REMARK  2 active torsions:
REMARK  status: ('A' for Active; 'I' for Inactive)
REMARK    1  A    between atoms: C_2  and  O_3
REMARK    2  A    between atoms: C_2  and  C_4
REMARK                            x       y       z     vdW  Elec       q    Type
REMARK                         _______ _______ _______ _____ _____    ______ ____
ROOT
ATOM      1  C   UNL     1       4.693   4.984  17.883  0.00  0.00    +0.000 A 
ATOM      2  C   UNL     1       4.023   4.646  19.045  0.00  0.00    +0.000 A 
ATOM      3  C   UNL     1       3.135   5.673  19.483  0.00  0.00    +0.000 A 
ATOM      4  C   UNL     1       3.132   6.742  18.621  0.00  0.00    +0.000 A 
ATOM      5  S   UNL     1       4.201   6.529  17.322  0.00  0.00    +0.000 S 
ATOM      6  C   UNL     1       2.293   7.909  18.856  0.00  0.00    +0.000 A 
ATOM      7  C   UNL     1       2.251   9.017  17.996  0.00  0.00    +0.000 A 
ATOM      8  C   UNL     1       1.431  10.106  18.290  0.00  0.00    +0.000 A 
ATOM      9  C   UNL     1       0.653  10.093  19.442  0.00  0.00    +0.000 A 
ATOM     10  F   UNL     1      -0.121  11.158  19.699  0.00  0.00    +0.000 F 
ATOM     11  C   UNL     1       0.674   9.000  20.307  0.00  0.00    +0.000 A 
ATOM     12 CL   UNL     1      -0.315   9.035  21.726  0.00  0.00    +0.000 Cl
ATOM     13  C   UNL     1       1.492   7.896  20.019  0.00  0.00    +0.000 A 
ATOM     14  O   UNL     1       1.458   6.847  20.909  0.00  0.00    +0.000 OA
ATOM     15  C   UNL     1       2.285   5.679  20.706  0.00  0.00    +0.000 C 
ENDROOT
BRANCH   1  17
ATOM     16  O   UNL     1       5.527   3.691  16.075  0.00  0.00    +0.000 OA
ATOM     17  C   UNL     1       5.683   4.186  17.183  0.00  0.00    +0.000 C 
BRANCH  17  18
ATOM     18  O   UNL     1       6.831   4.012  17.887  0.00  0.00    +0.000 OA
ATOM     19  H   UNL     1       7.606   3.940  17.298  0.00  0.00    +0.000 HD
ENDBRANCH  17  18
ENDBRANCH   1  17
TORSDOF 2
ENDMDL
