MODEL 1
REMARK VINA RESULT:      -5.4      0.000      0.000
REMARK  Name = 
REMARK  16 active torsions:
REMARK  status: ('A' for Active; 'I' for Inactive)
REMARK    1  A    between atoms: C_1  and  C_2
REMARK    2  A    between atoms: C_2  and  C_3
REMARK    3  A    between atoms: C_3  and  C_4
REMARK    4  A    between atoms: C_4  and  C_5
REMARK    5  A    between atoms: C_5  and  C_6
REMARK    6  A    between atoms: C_6  and  C_7
REMARK    7  A    between atoms: C_7  and  C_8
REMARK    8  A    between atoms: C_8  and  C_9
REMARK    9  A    between atoms: C_9  and  C_10
REMARK   10  A    between atoms: C_10  and  C_11
REMARK   11  A    between atoms: C_11  and  C_12
REMARK   12  A    between atoms: C_12  and  C_13
REMARK   13  A    between atoms: C_13  and  C_14
REMARK   14  A    between atoms: C_14  and  C_15
REMARK   15  A    between atoms: C_15  and  C_16
REMARK   16  A    between atoms: C_19  and  S_20
REMARK                            x       y       z     vdW  Elec       q    Type
REMARK                         _______ _______ _______ _____ _____    ______ ____
ROOT
ATOM      1  C   UNL     1       3.871   5.784  16.953  0.00  0.00    +0.000 C 
ENDROOT
BRANCH   1   2
ATOM      2  C   UNL     1       3.945   6.241  18.401  0.00  0.00    +0.000 C 
BRANCH   2   3
ATOM      3  C   UNL     1       2.700   7.035  18.764  0.00  0.00    +0.000 C 
BRANCH   3   4
ATOM      4  C   UNL     1       2.030   6.427  19.984  0.00  0.00    +0.000 C 
BRANCH   4   5
ATOM      5  C   UNL     1       2.903   5.329  20.566  0.00  0.00    +0.000 C 
BRANCH   5   6
ATOM      6  C   UNL     1       2.036   4.252  21.193  0.00  0.00    +0.000 C 
BRANCH   6   7
ATOM      7  C   UNL     1       0.758   4.084  20.392  0.00  0.00    +0.000 C 
BRANCH   7   8
ATOM      8  C   UNL     1       0.836   2.827  19.544  0.00  0.00    +0.000 C 
BRANCH   8   9
ATOM      9  C   UNL     1       1.332   3.168  18.148  0.00  0.00    +0.000 C 
BRANCH   9  10
ATOM     10  C   UNL     1       2.475   2.243  17.758  0.00  0.00    +0.000 C 
BRANCH  10  12
ATOM     11  C   UNL     1       4.361   2.138  19.390  0.00  0.00    +0.000 C 
ATOM     12  C   UNL     1       3.028   1.533  18.985  0.00  0.00    +0.000 C 
ENDBRANCH  10  12
ENDBRANCH   9  10
ENDBRANCH   8   9
ENDBRANCH   7   8
ENDBRANCH   6   7
ENDBRANCH   5   6
ENDBRANCH   4   5
ENDBRANCH   3   4
ENDBRANCH   2   3
ENDBRANCH   1   2
BRANCH   1  13
ATOM     13  C   UNL     1       4.576   4.446  16.780  0.00  0.00    +0.000 C 
BRANCH  13  14
ATOM     14  C   UNL     1       5.552   4.508  15.610  0.00  0.00    +0.000 C 
BRANCH  14  15
ATOM     15  C   UNL     1       6.990   4.300  16.080  0.00  0.00    +0.000 C 
BRANCH  15  16
ATOM     16  C   UNL     1       7.383   5.329  17.069  0.00  0.00    +0.000 A 
ATOM     17  N   UNL     1       7.665   5.143  18.346  0.00  0.00    +0.000 NA
ATOM     18  N   UNL     1       7.978   6.374  18.895  0.00  0.00    +0.000 NA
ATOM     19  C   UNL     1       7.876   7.263  17.935  0.00  0.00    +0.000 A 
ATOM     20  N   UNL     1       7.500   6.664  16.778  0.00  0.00    +0.000 N 
ATOM     21  H   UNL     1       7.345   7.120  15.894  0.00  0.00    +0.000 HD
BRANCH  19  22
ATOM     22  S   UNL     1       8.145   8.953  18.021  0.00  0.00    +0.000 S 
ATOM     23  H   UNL     1       8.038   9.065  19.351  0.00  0.00    +0.000 HD
ENDBRANCH  19  22
ENDBRANCH  15  16
ENDBRANCH  14  15
ENDBRANCH  13  14
ENDBRANCH   1  13
TORSDOF 15
ENDMDL
MODEL 2
REMARK VINA RESULT:      -5.3      2.782      4.325
REMARK  Name = 
REMARK  16 active torsions:
REMARK  status: ('A' for Active; 'I' for Inactive)
REMARK    1  A    between atoms: C_1  and  C_2
REMARK    2  A    between atoms: C_2  and  C_3
REMARK    3  A    between atoms: C_3  and  C_4
REMARK    4  A    between atoms: C_4  and  C_5
REMARK    5  A    between atoms: C_5  and  C_6
REMARK    6  A    between atoms: C_6  and  C_7
REMARK    7  A    between atoms: C_7  and  C_8
REMARK    8  A    between atoms: C_8  and  C_9
REMARK    9  A    between atoms: C_9  and  C_10
REMARK   10  A    between atoms: C_10  and  C_11
REMARK   11  A    between atoms: C_11  and  C_12
REMARK   12  A    between atoms: C_12  and  C_13
REMARK   13  A    between atoms: C_13  and  C_14
REMARK   14  A    between atoms: C_14  and  C_15
REMARK   15  A    between atoms: C_15  and  C_16
REMARK   16  A    between atoms: C_19  and  S_20
REMARK                            x       y       z     vdW  Elec       q    Type
REMARK                         _______ _______ _______ _____ _____    ______ ____
ROOT
ATOM      1  C   UNL     1       4.113   5.290  17.709  0.00  0.00    +0.000 C 
ENDROOT
BRANCH   1   2
ATOM      2  C   UNL     1       3.464   4.035  17.147  0.00  0.00    +0.000 C 
BRANCH   2   3
ATOM      3  C   UNL     1       3.874   2.821  17.965  0.00  0.00    +0.000 C 
BRANCH   3   4
ATOM      4  C   UNL     1       4.285   3.248  19.364  0.00  0.00    +0.000 C 
BRANCH   4   5
ATOM      5  C   UNL     1       3.600   2.374  20.399  0.00  0.00    +0.000 C 
BRANCH   5   6
ATOM      6  C   UNL     1       2.660   3.212  21.247  0.00  0.00    +0.000 C 
BRANCH   6   7
ATOM      7  C   UNL     1       1.260   3.174  20.662  0.00  0.00    +0.000 C 
BRANCH   7   8
ATOM      8  C   UNL     1       0.887   4.541  20.115  0.00  0.00    +0.000 C 
BRANCH   8   9
ATOM      9  C   UNL     1       1.682   5.624  20.826  0.00  0.00    +0.000 C 
BRANCH   9  10
ATOM     10  C   UNL     1       2.304   6.570  19.810  0.00  0.00    +0.000 C 
BRANCH  10  12
ATOM     11  C   UNL     1       1.158   8.141  21.376  0.00  0.00    +0.000 C 
ATOM     12  C   UNL     1       1.756   7.979  19.989  0.00  0.00    +0.000 C 
ENDBRANCH  10  12
ENDBRANCH   9  10
ENDBRANCH   8   9
ENDBRANCH   7   8
ENDBRANCH   6   7
ENDBRANCH   5   6
ENDBRANCH   4   5
ENDBRANCH   3   4
ENDBRANCH   2   3
ENDBRANCH   1   2
BRANCH   1  13
ATOM     13  C   UNL     1       4.912   6.007  16.629  0.00  0.00    +0.000 C 
BRANCH  13  14
ATOM     14  C   UNL     1       6.396   6.007  16.979  0.00  0.00    +0.000 C 
BRANCH  14  15
ATOM     15  C   UNL     1       7.072   4.721  16.511  0.00  0.00    +0.000 C 
BRANCH  15  16
ATOM     16  C   UNL     1       6.996   4.582  15.039  0.00  0.00    +0.000 A 
ATOM     17  N   UNL     1       7.611   5.323  14.134  0.00  0.00    +0.000 NA
ATOM     18  N   UNL     1       7.256   4.848  12.885  0.00  0.00    +0.000 NA
ATOM     19  C   UNL     1       6.440   3.837  13.072  0.00  0.00    +0.000 A 
ATOM     20  N   UNL     1       6.239   3.635  14.398  0.00  0.00    +0.000 N 
ATOM     21  H   UNL     1       5.652   2.929  14.811  0.00  0.00    +0.000 HD
BRANCH  19  22
ATOM     22  S   UNL     1       5.677   2.855  11.893  0.00  0.00    +0.000 S 
ATOM     23  H   UNL     1       5.257   1.898  12.731  0.00  0.00    +0.000 HD
ENDBRANCH  19  22
ENDBRANCH  15  16
ENDBRANCH  14  15
ENDBRANCH  13  14
ENDBRANCH   1  13
TORSDOF 15
ENDMDL
MODEL 3
REMARK VINA RESULT:      -5.3      2.483      4.140
REMARK  Name = 
REMARK  16 active torsions:
REMARK  status: ('A' for Active; 'I' for Inactive)
REMARK    1  A    between atoms: C_1  and  C_2
REMARK    2  A    between atoms: C_2  and  C_3
REMARK    3  A    between atoms: C_3  and  C_4
REMARK    4  A    between atoms: C_4  and  C_5
REMARK    5  A    between atoms: C_5  and  C_6
REMARK    6  A    between atoms: C_6  and  C_7
REMARK    7  A    between atoms: C_7  and  C_8
REMARK    8  A    between atoms: C_8  and  C_9
REMARK    9  A    between atoms: C_9  and  C_10
REMARK   10  A    between atoms: C_10  and  C_11
REMARK   11  A    between atoms: C_11  and  C_12
REMARK   12  A    between atoms: C_12  and  C_13
REMARK   13  A    between atoms: C_13  and  C_14
REMARK   14  A    between atoms: C_14  and  C_15
REMARK   15  A    between atoms: C_15  and  C_16
REMARK   16  A    between atoms: C_19  and  S_20
REMARK                            x       y       z     vdW  Elec       q    Type
REMARK                         _______ _______ _______ _____ _____    ______ ____
ROOT
ATOM      1  C   UNL     1       4.375   5.533  17.583  0.00  0.00    +0.000 C 
ENDROOT
BRANCH   1   2
ATOM      2  C   UNL     1       3.914   4.107  17.335  0.00  0.00    +0.000 C 
BRANCH   2   3
ATOM      3  C   UNL     1       2.395   4.043  17.311  0.00  0.00    +0.000 C 
BRANCH   3   4
ATOM      4  C   UNL     1       1.928   2.616  17.541  0.00  0.00    +0.000 C 
BRANCH   4   5
ATOM      5  C   UNL     1       2.901   1.890  18.453  0.00  0.00    +0.000 C 
BRANCH   5   6
ATOM      6  C   UNL     1       2.307   1.751  19.843  0.00  0.00    +0.000 C 
BRANCH   6   7
ATOM      7  C   UNL     1       2.982   2.721  20.794  0.00  0.00    +0.000 C 
BRANCH   7   8
ATOM      8  C   UNL     1       1.937   3.528  21.545  0.00  0.00    +0.000 C 
BRANCH   8   9
ATOM      9  C   UNL     1       1.416   4.655  20.668  0.00  0.00    +0.000 C 
BRANCH   9  10
ATOM     10  C   UNL     1       2.377   5.834  20.704  0.00  0.00    +0.000 C 
BRANCH  10  12
ATOM     11  C   UNL     1       1.490   8.164  20.821  0.00  0.00    +0.000 C 
ATOM     12  C   UNL     1       1.819   7.000  19.902  0.00  0.00    +0.000 C 
ENDBRANCH  10  12
ENDBRANCH   9  10
ENDBRANCH   8   9
ENDBRANCH   7   8
ENDBRANCH   6   7
ENDBRANCH   5   6
ENDBRANCH   4   5
ENDBRANCH   3   4
ENDBRANCH   2   3
ENDBRANCH   1   2
BRANCH   1  13
ATOM     13  C   UNL     1       5.576   5.551  18.520  0.00  0.00    +0.000 C 
BRANCH  13  14
ATOM     14  C   UNL     1       6.860   5.786  17.731  0.00  0.00    +0.000 C 
BRANCH  14  15
ATOM     15  C   UNL     1       7.331   4.504  17.051  0.00  0.00    +0.000 C 
BRANCH  15  16
ATOM     16  C   UNL     1       7.193   4.598  15.579  0.00  0.00    +0.000 A 
ATOM     17  N   UNL     1       7.698   5.526  14.787  0.00  0.00    +0.000 NA
ATOM     18  N   UNL     1       7.320   5.228  13.490  0.00  0.00    +0.000 NA
ATOM     19  C   UNL     1       6.602   4.131  13.539  0.00  0.00    +0.000 A 
ATOM     20  N   UNL     1       6.486   3.702  14.819  0.00  0.00    +0.000 N 
ATOM     21  H   UNL     1       5.981   2.888  15.132  0.00  0.00    +0.000 HD
BRANCH  19  22
ATOM     22  S   UNL     1       5.864   3.287  12.242  0.00  0.00    +0.000 S 
ATOM     23  H   UNL     1       6.736   2.271  12.198  0.00  0.00    +0.000 HD
ENDBRANCH  19  22
ENDBRANCH  15  16
ENDBRANCH  14  15
ENDBRANCH  13  14
ENDBRANCH   1  13
TORSDOF 15
ENDMDL
MODEL 4
REMARK VINA RESULT:      -5.1      5.274      6.884
REMARK  Name = 
REMARK  16 active torsions:
REMARK  status: ('A' for Active; 'I' for Inactive)
REMARK    1  A    between atoms: C_1  and  C_2
REMARK    2  A    between atoms: C_2  and  C_3
REMARK    3  A    between atoms: C_3  and  C_4
REMARK    4  A    between atoms: C_4  and  C_5
REMARK    5  A    between atoms: C_5  and  C_6
REMARK    6  A    between atoms: C_6  and  C_7
REMARK    7  A    between atoms: C_7  and  C_8
REMARK    8  A    between atoms: C_8  and  C_9
REMARK    9  A    between atoms: C_9  and  C_10
REMARK   10  A    between atoms: C_10  and  C_11
REMARK   11  A    between atoms: C_11  and  C_12
REMARK   12  A    between atoms: C_12  and  C_13
REMARK   13  A    between atoms: C_13  and  C_14
REMARK   14  A    between atoms: C_14  and  C_15
REMARK   15  A    between atoms: C_15  and  C_16
REMARK   16  A    between atoms: C_19  and  S_20
REMARK                            x       y       z     vdW  Elec       q    Type
REMARK                         _______ _______ _______ _____ _____    ______ ____
ROOT
ATOM      1  C   UNL     1       2.599   8.740  18.063  0.00  0.00    +0.000 C 
ENDROOT
BRANCH   1   2
ATOM      2  C   UNL     1       2.285   7.578  18.991  0.00  0.00    +0.000 C 
BRANCH   2   3
ATOM      3  C   UNL     1       2.360   6.264  18.229  0.00  0.00    +0.000 C 
BRANCH   3   4
ATOM      4  C   UNL     1       3.804   5.941  17.886  0.00  0.00    +0.000 C 
BRANCH   4   5
ATOM      5  C   UNL     1       4.464   5.208  19.041  0.00  0.00    +0.000 C 
BRANCH   5   6
ATOM      6  C   UNL     1       4.878   3.815  18.605  0.00  0.00    +0.000 C 
BRANCH   6   7
ATOM      7  C   UNL     1       3.872   3.261  17.613  0.00  0.00    +0.000 C 
BRANCH   7   8
ATOM      8  C   UNL     1       3.440   1.867  18.032  0.00  0.00    +0.000 C 
BRANCH   8   9
ATOM      9  C   UNL     1       2.504   1.946  19.227  0.00  0.00    +0.000 C 
BRANCH   9  10
ATOM     10  C   UNL     1       1.295   2.806  18.890  0.00  0.00    +0.000 C 
BRANCH  10  12
ATOM     11  C   UNL     1       1.897   3.750  21.121  0.00  0.00    +0.000 C 
ATOM     12  C   UNL     1       0.766   3.494  20.140  0.00  0.00    +0.000 C 
ENDBRANCH  10  12
ENDBRANCH   9  10
ENDBRANCH   8   9
ENDBRANCH   7   8
ENDBRANCH   6   7
ENDBRANCH   5   6
ENDBRANCH   4   5
ENDBRANCH   3   4
ENDBRANCH   2   3
ENDBRANCH   1   2
BRANCH   1  13
ATOM     13  C   UNL     1       1.348   9.568  17.804  0.00  0.00    +0.000 C 
BRANCH  13  14
ATOM     14  C   UNL     1       0.517   9.686  19.077  0.00  0.00    +0.000 C 
BRANCH  14  15
ATOM     15  C   UNL     1       0.988  10.856  19.936  0.00  0.00    +0.000 C 
BRANCH  15  16
ATOM     16  C   UNL     1       0.240  10.918  21.213  0.00  0.00    +0.000 A 
ATOM     17  N   UNL     1       0.550  10.319  22.349  0.00  0.00    +0.000 NA
ATOM     18  N   UNL     1      -0.422  10.646  23.279  0.00  0.00    +0.000 NA
ATOM     19  C   UNL     1      -1.286  11.429  22.677  0.00  0.00    +0.000 A 
ATOM     20  N   UNL     1      -0.923  11.624  21.385  0.00  0.00    +0.000 N 
ATOM     21  H   UNL     1      -1.417  12.177  20.704  0.00  0.00    +0.000 HD
BRANCH  19  22
ATOM     22  S   UNL     1      -2.700  12.148  23.326  0.00  0.00    +0.000 S 
ATOM     23  H   UNL     1      -3.509  11.096  23.148  0.00  0.00    +0.000 HD
ENDBRANCH  19  22
ENDBRANCH  15  16
ENDBRANCH  14  15
ENDBRANCH  13  14
ENDBRANCH   1  13
TORSDOF 15
ENDMDL
MODEL 5
REMARK VINA RESULT:      -5.1      3.778      5.478
REMARK  Name = 
REMARK  16 active torsions:
REMARK  status: ('A' for Active; 'I' for Inactive)
REMARK    1  A    between atoms: C_1  and  C_2
REMARK    2  A    between atoms: C_2  and  C_3
REMARK    3  A    between atoms: C_3  and  C_4
REMARK    4  A    between atoms: C_4  and  C_5
REMARK    5  A    between atoms: C_5  and  C_6
REMARK    6  A    between atoms: C_6  and  C_7
REMARK    7  A    between atoms: C_7  and  C_8
REMARK    8  A    between atoms: C_8  and  C_9
REMARK    9  A    between atoms: C_9  and  C_10
REMARK   10  A    between atoms: C_10  and  C_11
REMARK   11  A    between atoms: C_11  and  C_12
REMARK   12  A    between atoms: C_12  and  C_13
REMARK   13  A    between atoms: C_13  and  C_14
REMARK   14  A    between atoms: C_14  and  C_15
REMARK   15  A    between atoms: C_15  and  C_16
REMARK   16  A    between atoms: C_19  and  S_20
REMARK                            x       y       z     vdW  Elec       q    Type
REMARK                         _______ _______ _______ _____ _____    ______ ____
ROOT
ATOM      1  C   UNL     1       7.712   7.834  17.564  0.00  0.00    +0.000 C 
ENDROOT
BRANCH   1   2
ATOM      2  C   UNL     1       8.174   6.923  18.689  0.00  0.00    +0.000 C 
BRANCH   2   3
ATOM      3  C   UNL     1       7.206   5.762  18.855  0.00  0.00    +0.000 C 
BRANCH   3   4
ATOM      4  C   UNL     1       7.323   4.813  17.675  0.00  0.00    +0.000 C 
BRANCH   4   5
ATOM      5  C   UNL     1       5.945   4.509  17.113  0.00  0.00    +0.000 C 
BRANCH   5   6
ATOM      6  C   UNL     1       4.884   4.768  18.167  0.00  0.00    +0.000 C 
BRANCH   6   7
ATOM      7  C   UNL     1       3.507   4.756  17.530  0.00  0.00    +0.000 C 
BRANCH   7   8
ATOM      8  C   UNL     1       3.030   3.326  17.346  0.00  0.00    +0.000 C 
BRANCH   8   9
ATOM      9  C   UNL     1       2.372   2.825  18.621  0.00  0.00    +0.000 C 
BRANCH   9  10
ATOM     10  C   UNL     1       1.365   3.846  19.127  0.00  0.00    +0.000 C 
BRANCH  10  12
ATOM     11  C   UNL     1       2.244   2.874  21.252  0.00  0.00    +0.000 C 
ATOM     12  C   UNL     1       1.101   3.643  20.612  0.00  0.00    +0.000 C 
ENDBRANCH  10  12
ENDBRANCH   9  10
ENDBRANCH   8   9
ENDBRANCH   7   8
ENDBRANCH   6   7
ENDBRANCH   5   6
ENDBRANCH   4   5
ENDBRANCH   3   4
ENDBRANCH   2   3
ENDBRANCH   1   2
BRANCH   1  13
ATOM     13  C   UNL     1       7.958   9.293  17.923  0.00  0.00    +0.000 C 
BRANCH  13  14
ATOM     14  C   UNL     1       9.136   9.411  18.884  0.00  0.00    +0.000 C 
BRANCH  14  15
ATOM     15  C   UNL     1       9.178  10.791  19.536  0.00  0.00    +0.000 C 
BRANCH  15  16
ATOM     16  C   UNL     1       9.898  11.764  18.683  0.00  0.00    +0.000 A 
ATOM     17  N   UNL     1      10.815  11.500  17.769  0.00  0.00    +0.000 NA
ATOM     18  N   UNL     1      11.221  12.701  17.217  0.00  0.00    +0.000 NA
ATOM     19  C   UNL     1      10.539  13.651  17.812  0.00  0.00    +0.000 A 
ATOM     20  N   UNL     1       9.705  13.120  18.740  0.00  0.00    +0.000 N 
ATOM     21  H   UNL     1       9.078  13.631  19.339  0.00  0.00    +0.000 HD
BRANCH  19  22
ATOM     22  S   UNL     1      10.616  15.342  17.542  0.00  0.00    +0.000 S 
ATOM     23  H   UNL     1      11.838  15.530  18.056  0.00  0.00    +0.000 HD
ENDBRANCH  19  22
ENDBRANCH  15  16
ENDBRANCH  14  15
ENDBRANCH  13  14
ENDBRANCH   1  13
TORSDOF 15
ENDMDL
MODEL 6
REMARK VINA RESULT:      -5.1      2.736      4.423
REMARK  Name = 
REMARK  16 active torsions:
REMARK  status: ('A' for Active; 'I' for Inactive)
REMARK    1  A    between atoms: C_1  and  C_2
REMARK    2  A    between atoms: C_2  and  C_3
REMARK    3  A    between atoms: C_3  and  C_4
REMARK    4  A    between atoms: C_4  and  C_5
REMARK    5  A    between atoms: C_5  and  C_6
REMARK    6  A    between atoms: C_6  and  C_7
REMARK    7  A    between atoms: C_7  and  C_8
REMARK    8  A    between atoms: C_8  and  C_9
REMARK    9  A    between atoms: C_9  and  C_10
REMARK   10  A    between atoms: C_10  and  C_11
REMARK   11  A    between atoms: C_11  and  C_12
REMARK   12  A    between atoms: C_12  and  C_13
REMARK   13  A    between atoms: C_13  and  C_14
REMARK   14  A    between atoms: C_14  and  C_15
REMARK   15  A    between atoms: C_15  and  C_16
REMARK   16  A    between atoms: C_19  and  S_20
REMARK                            x       y       z     vdW  Elec       q    Type
REMARK                         _______ _______ _______ _____ _____    ______ ____
ROOT
ATOM      1  C   UNL     1       4.343   3.673  17.483  0.00  0.00    +0.000 C 
ENDROOT
BRANCH   1   2
ATOM      2  C   UNL     1       3.838   2.466  18.256  0.00  0.00    +0.000 C 
BRANCH   2   3
ATOM      3  C   UNL     1       2.428   2.111  17.812  0.00  0.00    +0.000 C 
BRANCH   3   4
ATOM      4  C   UNL     1       1.463   3.216  18.207  0.00  0.00    +0.000 C 
BRANCH   4   5
ATOM      5  C   UNL     1       0.979   3.002  19.631  0.00  0.00    +0.000 C 
BRANCH   5   6
ATOM      6  C   UNL     1       2.148   3.092  20.596  0.00  0.00    +0.000 C 
BRANCH   6   7
ATOM      7  C   UNL     1       2.162   4.453  21.267  0.00  0.00    +0.000 C 
BRANCH   7   8
ATOM      8  C   UNL     1       1.570   5.499  20.337  0.00  0.00    +0.000 C 
BRANCH   8   9
ATOM      9  C   UNL     1       2.674   6.368  19.757  0.00  0.00    +0.000 C 
BRANCH   9  10
ATOM     10  C   UNL     1       2.448   6.578  18.268  0.00  0.00    +0.000 C 
BRANCH  10  12
ATOM     11  C   UNL     1       1.975   8.992  17.843  0.00  0.00    +0.000 C 
ATOM     12  C   UNL     1       3.038   7.908  17.821  0.00  0.00    +0.000 C 
ENDBRANCH  10  12
ENDBRANCH   9  10
ENDBRANCH   8   9
ENDBRANCH   7   8
ENDBRANCH   6   7
ENDBRANCH   5   6
ENDBRANCH   4   5
ENDBRANCH   3   4
ENDBRANCH   2   3
ENDBRANCH   1   2
BRANCH   1  13
ATOM     13  C   UNL     1       5.480   4.350  18.236  0.00  0.00    +0.000 C 
BRANCH  13  14
ATOM     14  C   UNL     1       6.720   4.442  17.352  0.00  0.00    +0.000 C 
BRANCH  14  15
ATOM     15  C   UNL     1       6.601   5.591  16.354  0.00  0.00    +0.000 C 
BRANCH  15  16
ATOM     16  C   UNL     1       6.778   5.112  14.964  0.00  0.00    +0.000 A 
ATOM     17  N   UNL     1       7.713   5.479  14.106  0.00  0.00    +0.000 NA
ATOM     18  N   UNL     1       7.501   4.787  12.927  0.00  0.00    +0.000 NA
ATOM     19  C   UNL     1       6.447   4.026  13.109  0.00  0.00    +0.000 A 
ATOM     20  N   UNL     1       5.954   4.198  14.360  0.00  0.00    +0.000 N 
ATOM     21  H   UNL     1       5.148   3.738  14.751  0.00  0.00    +0.000 HD
BRANCH  19  22
ATOM     22  S   UNL     1       5.713   2.947  11.999  0.00  0.00    +0.000 S 
ATOM     23  H   UNL     1       5.850   3.718  10.912  0.00  0.00    +0.000 HD
ENDBRANCH  19  22
ENDBRANCH  15  16
ENDBRANCH  14  15
ENDBRANCH  13  14
ENDBRANCH   1  13
TORSDOF 15
ENDMDL
MODEL 7
REMARK VINA RESULT:      -5.1      3.650      5.056
REMARK  Name = 
REMARK  16 active torsions:
REMARK  status: ('A' for Active; 'I' for Inactive)
REMARK    1  A    between atoms: C_1  and  C_2
REMARK    2  A    between atoms: C_2  and  C_3
REMARK    3  A    between atoms: C_3  and  C_4
REMARK    4  A    between atoms: C_4  and  C_5
REMARK    5  A    between atoms: C_5  and  C_6
REMARK    6  A    between atoms: C_6  and  C_7
REMARK    7  A    between atoms: C_7  and  C_8
REMARK    8  A    between atoms: C_8  and  C_9
REMARK    9  A    between atoms: C_9  and  C_10
REMARK   10  A    between atoms: C_10  and  C_11
REMARK   11  A    between atoms: C_11  and  C_12
REMARK   12  A    between atoms: C_12  and  C_13
REMARK   13  A    between atoms: C_13  and  C_14
REMARK   14  A    between atoms: C_14  and  C_15
REMARK   15  A    between atoms: C_15  and  C_16
REMARK   16  A    between atoms: C_19  and  S_20
REMARK                            x       y       z     vdW  Elec       q    Type
REMARK                         _______ _______ _______ _____ _____    ______ ____
ROOT
ATOM      1  C   UNL     1       7.241   7.774  17.385  0.00  0.00    +0.000 C 
ENDROOT
BRANCH   1   2
ATOM      2  C   UNL     1       7.155   6.259  17.292  0.00  0.00    +0.000 C 
BRANCH   2   3
ATOM      3  C   UNL     1       6.735   5.674  18.631  0.00  0.00    +0.000 C 
BRANCH   3   4
ATOM      4  C   UNL     1       5.353   5.054  18.520  0.00  0.00    +0.000 C 
BRANCH   4   5
ATOM      5  C   UNL     1       4.422   5.988  17.767  0.00  0.00    +0.000 C 
BRANCH   5   6
ATOM      6  C   UNL     1       3.066   6.030  18.448  0.00  0.00    +0.000 C 
BRANCH   6   7
ATOM      7  C   UNL     1       3.158   5.401  19.826  0.00  0.00    +0.000 C 
BRANCH   7   8
ATOM      8  C   UNL     1       1.802   5.445  20.510  0.00  0.00    +0.000 C 
BRANCH   8   9
ATOM      9  C   UNL     1       1.255   4.037  20.678  0.00  0.00    +0.000 C 
BRANCH   9  10
ATOM     10  C   UNL     1       2.174   3.033  19.998  0.00  0.00    +0.000 C 
BRANCH  10  12
ATOM     11  C   UNL     1       2.478   2.366  17.612  0.00  0.00    +0.000 C 
ATOM     12  C   UNL     1       1.499   2.439  18.771  0.00  0.00    +0.000 C 
ENDBRANCH  10  12
ENDBRANCH   9  10
ENDBRANCH   8   9
ENDBRANCH   7   8
ENDBRANCH   6   7
ENDBRANCH   5   6
ENDBRANCH   4   5
ENDBRANCH   3   4
ENDBRANCH   2   3
ENDBRANCH   1   2
BRANCH   1  13
ATOM     13  C   UNL     1       8.345   8.188  18.349  0.00  0.00    +0.000 C 
BRANCH  13  14
ATOM     14  C   UNL     1       8.644   9.676  18.206  0.00  0.00    +0.000 C 
BRANCH  14  15
ATOM     15  C   UNL     1       9.236  10.246  19.492  0.00  0.00    +0.000 C 
BRANCH  15  16
ATOM     16  C   UNL     1      10.105  11.412  19.210  0.00  0.00    +0.000 A 
ATOM     17  N   UNL     1      10.446  12.375  20.048  0.00  0.00    +0.000 NA
ATOM     18  N   UNL     1      11.264  13.259  19.367  0.00  0.00    +0.000 NA
ATOM     19  C   UNL     1      11.391  12.804  18.143  0.00  0.00    +0.000 A 
ATOM     20  N   UNL     1      10.682  11.658  17.991  0.00  0.00    +0.000 N 
ATOM     21  H   UNL     1      10.606  11.112  17.149  0.00  0.00    +0.000 HD
BRANCH  19  22
ATOM     22  S   UNL     1      12.288  13.479  16.848  0.00  0.00    +0.000 S 
ATOM     23  H   UNL     1      11.298  14.226  16.341  0.00  0.00    +0.000 HD
ENDBRANCH  19  22
ENDBRANCH  15  16
ENDBRANCH  14  15
ENDBRANCH  13  14
ENDBRANCH   1  13
TORSDOF 15
ENDMDL
MODEL 8
REMARK VINA RESULT:      -5.1      2.702      3.240
REMARK  Name = 
REMARK  16 active torsions:
REMARK  status: ('A' for Active; 'I' for Inactive)
REMARK    1  A    between atoms: C_1  and  C_2
REMARK    2  A    between atoms: C_2  and  C_3
REMARK    3  A    between atoms: C_3  and  C_4
REMARK    4  A    between atoms: C_4  and  C_5
REMARK    5  A    between atoms: C_5  and  C_6
REMARK    6  A    between atoms: C_6  and  C_7
REMARK    7  A    between atoms: C_7  and  C_8
REMARK    8  A    between atoms: C_8  and  C_9
REMARK    9  A    between atoms: C_9  and  C_10
REMARK   10  A    between atoms: C_10  and  C_11
REMARK   11  A    between atoms: C_11  and  C_12
REMARK   12  A    between atoms: C_12  and  C_13
REMARK   13  A    between atoms: C_13  and  C_14
REMARK   14  A    between atoms: C_14  and  C_15
REMARK   15  A    between atoms: C_15  and  C_16
REMARK   16  A    between atoms: C_19  and  S_20
REMARK                            x       y       z     vdW  Elec       q    Type
REMARK                         _______ _______ _______ _____ _____    ______ ____
ROOT
ATOM      1  C   UNL     1       4.892   6.190  18.383  0.00  0.00    +0.000 C 
ENDROOT
BRANCH   1   2
ATOM      2  C   UNL     1       3.670   5.669  17.643  0.00  0.00    +0.000 C 
BRANCH   2   3
ATOM      3  C   UNL     1       2.399   6.168  18.314  0.00  0.00    +0.000 C 
BRANCH   3   4
ATOM      4  C   UNL     1       2.636   6.365  19.801  0.00  0.00    +0.000 C 
BRANCH   4   5
ATOM      5  C   UNL     1       2.417   5.057  20.542  0.00  0.00    +0.000 C 
BRANCH   5   6
ATOM      6  C   UNL     1       0.966   4.627  20.419  0.00  0.00    +0.000 C 
BRANCH   6   7
ATOM      7  C   UNL     1       0.890   3.182  19.962  0.00  0.00    +0.000 C 
BRANCH   7   8
ATOM      8  C   UNL     1       0.824   3.118  18.446  0.00  0.00    +0.000 C 
BRANCH   8   9
ATOM      9  C   UNL     1       1.998   2.318  17.904  0.00  0.00    +0.000 C 
BRANCH   9  10
ATOM     10  C   UNL     1       2.719   1.610  19.041  0.00  0.00    +0.000 C 
BRANCH  10  12
ATOM     11  C   UNL     1       4.709   2.123  20.457  0.00  0.00    +0.000 C 
ATOM     12  C   UNL     1       4.199   1.964  19.036  0.00  0.00    +0.000 C 
ENDBRANCH  10  12
ENDBRANCH   9  10
ENDBRANCH   8   9
ENDBRANCH   7   8
ENDBRANCH   6   7
ENDBRANCH   5   6
ENDBRANCH   4   5
ENDBRANCH   3   4
ENDBRANCH   2   3
ENDBRANCH   1   2
BRANCH   1  13
ATOM     13  C   UNL     1       5.928   5.086  18.544  0.00  0.00    +0.000 C 
BRANCH  13  14
ATOM     14  C   UNL     1       6.223   4.434  17.197  0.00  0.00    +0.000 C 
BRANCH  14  15
ATOM     15  C   UNL     1       7.148   5.309  16.354  0.00  0.00    +0.000 C 
BRANCH  15  16
ATOM     16  C   UNL     1       7.067   4.945  14.920  0.00  0.00    +0.000 A 
ATOM     17  N   UNL     1       7.759   5.466  13.924  0.00  0.00    +0.000 NA
ATOM     18  N   UNL     1       7.365   4.835  12.758  0.00  0.00    +0.000 NA
ATOM     19  C   UNL     1       6.448   3.955  13.085  0.00  0.00    +0.000 A 
ATOM     20  N   UNL     1       6.220   3.989  14.421  0.00  0.00    +0.000 N 
ATOM     21  H   UNL     1       5.561   3.420  14.928  0.00  0.00    +0.000 HD
BRANCH  19  22
ATOM     22  S   UNL     1       5.596   2.878  12.060  0.00  0.00    +0.000 S 
ATOM     23  H   UNL     1       6.600   2.642  11.206  0.00  0.00    +0.000 HD
ENDBRANCH  19  22
ENDBRANCH  15  16
ENDBRANCH  14  15
ENDBRANCH  13  14
ENDBRANCH   1  13
TORSDOF 15
ENDMDL
MODEL 9
REMARK VINA RESULT:      -5.1      2.250      4.822
REMARK  Name = 
REMARK  16 active torsions:
REMARK  status: ('A' for Active; 'I' for Inactive)
REMARK    1  A    between atoms: C_1  and  C_2
REMARK    2  A    between atoms: C_2  and  C_3
REMARK    3  A    between atoms: C_3  and  C_4
REMARK    4  A    between atoms: C_4  and  C_5
REMARK    5  A    between atoms: C_5  and  C_6
REMARK    6  A    between atoms: C_6  and  C_7
REMARK    7  A    between atoms: C_7  and  C_8
REMARK    8  A    between atoms: C_8  and  C_9
REMARK    9  A    between atoms: C_9  and  C_10
REMARK   10  A    between atoms: C_10  and  C_11
REMARK   11  A    between atoms: C_11  and  C_12
REMARK   12  A    between atoms: C_12  and  C_13
REMARK   13  A    between atoms: C_13  and  C_14
REMARK   14  A    between atoms: C_14  and  C_15
REMARK   15  A    between atoms: C_15  and  C_16
REMARK   16  A    between atoms: C_19  and  S_20
REMARK                            x       y       z     vdW  Elec       q    Type
REMARK                         _______ _______ _______ _____ _____    ______ ____
ROOT
ATOM      1  C   UNL     1       2.258   2.490  17.993  0.00  0.00    +0.000 C 
ENDROOT
BRANCH   1   2
ATOM      2  C   UNL     1       1.195   1.975  18.951  0.00  0.00    +0.000 C 
BRANCH   2   3
ATOM      3  C   UNL     1       0.805   3.066  19.936  0.00  0.00    +0.000 C 
BRANCH   3   4
ATOM      4  C   UNL     1       1.812   3.127  21.072  0.00  0.00    +0.000 C 
BRANCH   4   5
ATOM      5  C   UNL     1       2.302   4.552  21.258  0.00  0.00    +0.000 C 
BRANCH   5   6
ATOM      6  C   UNL     1       1.292   5.529  20.684  0.00  0.00    +0.000 C 
BRANCH   6   7
ATOM      7  C   UNL     1       1.973   6.843  20.349  0.00  0.00    +0.000 C 
BRANCH   7   8
ATOM      8  C   UNL     1       1.237   7.995  21.013  0.00  0.00    +0.000 C 
BRANCH   8   9
ATOM      9  C   UNL     1       1.136   9.172  20.057  0.00  0.00    +0.000 C 
BRANCH   9  10
ATOM     10  C   UNL     1      -0.210   9.862  20.216  0.00  0.00    +0.000 C 
BRANCH  10  12
ATOM     11  C   UNL     1       1.094  11.716  19.170  0.00  0.00    +0.000 C 
ATOM     12  C   UNL     1      -0.052  11.371  20.106  0.00  0.00    +0.000 C 
ENDBRANCH  10  12
ENDBRANCH   9  10
ENDBRANCH   8   9
ENDBRANCH   7   8
ENDBRANCH   6   7
ENDBRANCH   5   6
ENDBRANCH   4   5
ENDBRANCH   3   4
ENDBRANCH   2   3
ENDBRANCH   1   2
BRANCH   1  13
ATOM     13  C   UNL     1       1.913   3.896  17.519  0.00  0.00    +0.000 C 
BRANCH  13  14
ATOM     14  C   UNL     1       3.149   4.788  17.564  0.00  0.00    +0.000 C 
BRANCH  14  15
ATOM     15  C   UNL     1       4.428   3.964  17.434  0.00  0.00    +0.000 C 
BRANCH  15  16
ATOM     16  C   UNL     1       5.584   4.823  17.089  0.00  0.00    +0.000 A 
ATOM     17  N   UNL     1       6.479   4.614  16.140  0.00  0.00    +0.000 NA
ATOM     18  N   UNL     1       7.382   5.662  16.171  0.00  0.00    +0.000 NA
ATOM     19  C   UNL     1       7.005   6.469  17.135  0.00  0.00    +0.000 A 
ATOM     20  N   UNL     1       5.894   5.987  17.744  0.00  0.00    +0.000 N 
ATOM     21  H   UNL     1       5.407   6.411  18.516  0.00  0.00    +0.000 HD
BRANCH  19  22
ATOM     22  S   UNL     1       7.738   7.934  17.640  0.00  0.00    +0.000 S 
ATOM     23  H   UNL     1       7.037   8.747  16.840  0.00  0.00    +0.000 HD
ENDBRANCH  19  22
ENDBRANCH  15  16
ENDBRANCH  14  15
ENDBRANCH  13  14
ENDBRANCH   1  13
TORSDOF 15
ENDMDL
