MODEL 1
REMARK VINA RESULT:      -8.1      0.000      0.000
REMARK  Name = 
REMARK  8 active torsions:
REMARK  status: ('A' for Active; 'I' for Inactive)
REMARK    1  A    between atoms: C_1  and  O_2
REMARK    2  A    between atoms: O_2  and  C_3
REMARK    3  A    between atoms: C_7  and  C_8
REMARK    4  A    between atoms: C_11  and  N_12
REMARK    5  A    between atoms: C_13  and  C_15
REMARK    6  A    between atoms: C_28  and  O_29
REMARK    7  A    between atoms: C_30  and  O_31
REMARK    8  A    between atoms: O_31  and  C_32
REMARK                            x       y       z     vdW  Elec       q    Type
REMARK                         _______ _______ _______ _____ _____    ______ ____
ROOT
ATOM      1  C   UNL     1       2.763   3.879  20.377  0.00  0.00    +0.000 A 
ATOM      2  C   UNL     1       2.184   5.045  20.892  0.00  0.00    +0.000 A 
ATOM      3  C   UNL     1       2.206   6.218  20.157  0.00  0.00    +0.000 A 
ATOM      4  O   UNL     1       1.579   7.296  20.723  0.00  0.00    +0.000 OA
ATOM      5  C   UNL     1       1.496   8.464  19.992  0.00  0.00    +0.000 A 
ATOM      6  C   UNL     1       2.056   8.631  18.785  0.00  0.00    +0.000 A 
ATOM      7  C   UNL     1       2.779   7.514  18.171  0.00  0.00    +0.000 A 
ATOM      8  O   UNL     1       3.314   7.626  17.072  0.00  0.00    +0.000 OA
ATOM      9  C   UNL     1       2.826   6.250  18.916  0.00  0.00    +0.000 A 
ATOM     10  C   UNL     1       3.460   5.109  18.400  0.00  0.00    +0.000 A 
ATOM     11  C   UNL     1       3.448   3.907  19.135  0.00  0.00    +0.000 A 
ENDROOT
BRANCH   5  12
ATOM     12  C   UNL     1       0.720   9.532  20.647  0.00  0.00    +0.000 A 
ATOM     13  C   UNL     1       0.249  10.619  19.905  0.00  0.00    +0.000 A 
ATOM     14  C   UNL     1      -0.503  11.622  20.508  0.00  0.00    +0.000 A 
ATOM     15  C   UNL     1      -0.842  11.557  21.863  0.00  0.00    +0.000 A 
ATOM     16  C   UNL     1      -0.365  10.488  22.620  0.00  0.00    +0.000 A 
ATOM     17  C   UNL     1       0.399   9.477  22.013  0.00  0.00    +0.000 A 
BRANCH  15  18
ATOM     18  N   UNL     1      -1.663  12.536  22.473  0.00  0.00    +0.000 N 
ATOM     19  C   UNL     1      -1.199  13.768  22.906  0.00  0.00    +0.000 C 
ATOM     20  O   UNL     1      -0.060  14.199  22.762  0.00  0.00    +0.000 OA
ATOM     21  H   UNL     1      -2.666  12.383  22.436  0.00  0.00    +0.000 HD
BRANCH  19  22
ATOM     22  C   UNL     1      -2.166  14.683  23.561  0.00  0.00    +0.000 A 
ATOM     23  C   UNL     1      -1.671  15.479  24.607  0.00  0.00    +0.000 A 
ATOM     24  C   UNL     1      -2.530  16.265  25.366  0.00  0.00    +0.000 A 
ATOM     25  C   UNL     1      -3.893  16.260  25.084  0.00  0.00    +0.000 A 
ATOM     26  C   UNL     1      -4.384  15.475  24.037  0.00  0.00    +0.000 A 
ATOM     27 BR   UNL     1      -6.245  15.455  23.694  0.00  0.00    +0.000 Br
ATOM     28  C   UNL     1      -3.530  14.685  23.266  0.00  0.00    +0.000 A 
ENDBRANCH  19  22
ENDBRANCH  15  18
ENDBRANCH   5  12
BRANCH   1  30
ATOM     29  C   UNL     1       1.495   2.484  21.802  0.00  0.00    +0.000 C 
ATOM     30  O   UNL     1       2.707   2.690  21.071  0.00  0.00    +0.000 OA
ENDBRANCH   1  30
BRANCH  10  31
ATOM     31  O   UNL     1       4.076   5.175  17.174  0.00  0.00    +0.000 OA
ATOM     32  H   UNL     1       3.600   5.821  16.603  0.00  0.00    +0.000 HD
ENDBRANCH  10  31
BRANCH  11  33
ATOM     33  O   UNL     1       4.032   2.719  18.765  0.00  0.00    +0.000 OA
ATOM     34  C   UNL     1       3.295   1.824  17.940  0.00  0.00    +0.000 C 
ENDBRANCH  11  33
TORSDOF 6
ENDMDL
MODEL 2
REMARK VINA RESULT:      -8.1      0.924      1.237
REMARK  Name = 
REMARK  8 active torsions:
REMARK  status: ('A' for Active; 'I' for Inactive)
REMARK    1  A    between atoms: C_1  and  O_2
REMARK    2  A    between atoms: O_2  and  C_3
REMARK    3  A    between atoms: C_7  and  C_8
REMARK    4  A    between atoms: C_11  and  N_12
REMARK    5  A    between atoms: C_13  and  C_15
REMARK    6  A    between atoms: C_28  and  O_29
REMARK    7  A    between atoms: C_30  and  O_31
REMARK    8  A    between atoms: O_31  and  C_32
REMARK                            x       y       z     vdW  Elec       q    Type
REMARK                         _______ _______ _______ _____ _____    ______ ____
ROOT
ATOM      1  C   UNL     1       2.724   3.776  20.296  0.00  0.00    +0.000 A 
ATOM      2  C   UNL     1       2.121   4.927  20.813  0.00  0.00    +0.000 A 
ATOM      3  C   UNL     1       2.171   6.117  20.107  0.00  0.00    +0.000 A 
ATOM      4  O   UNL     1       1.518   7.181  20.671  0.00  0.00    +0.000 OA
ATOM      5  C   UNL     1       1.463   8.365  19.963  0.00  0.00    +0.000 A 
ATOM      6  C   UNL     1       2.075   8.562  18.787  0.00  0.00    +0.000 A 
ATOM      7  C   UNL     1       2.827   7.461  18.179  0.00  0.00    +0.000 A 
ATOM      8  O   UNL     1       3.408   7.600  17.107  0.00  0.00    +0.000 OA
ATOM      9  C   UNL     1       2.844   6.180  18.895  0.00  0.00    +0.000 A 
ATOM     10  C   UNL     1       3.503   5.052  18.381  0.00  0.00    +0.000 A 
ATOM     11  C   UNL     1       3.463   3.834  19.086  0.00  0.00    +0.000 A 
ENDROOT
BRANCH   5  12
ATOM     12  C   UNL     1       0.657   9.417  20.610  0.00  0.00    +0.000 A 
ATOM     13  C   UNL     1       0.182  10.499  19.864  0.00  0.00    +0.000 A 
ATOM     14  C   UNL     1      -0.599  11.486  20.457  0.00  0.00    +0.000 A 
ATOM     15  C   UNL     1      -0.962  11.409  21.806  0.00  0.00    +0.000 A 
ATOM     16  C   UNL     1      -0.481  10.344  22.566  0.00  0.00    +0.000 A 
ATOM     17  C   UNL     1       0.311   9.349  21.969  0.00  0.00    +0.000 A 
BRANCH  15  18
ATOM     18  N   UNL     1      -1.812  12.370  22.405  0.00  0.00    +0.000 N 
ATOM     19  C   UNL     1      -1.352  13.448  23.145  0.00  0.00    +0.000 C 
ATOM     20  O   UNL     1      -0.177  13.751  23.321  0.00  0.00    +0.000 OA
ATOM     21  H   UNL     1      -2.789  12.352  22.135  0.00  0.00    +0.000 HD
BRANCH  19  22
ATOM     22  C   UNL     1      -2.358  14.357  23.746  0.00  0.00    +0.000 A 
ATOM     23  C   UNL     1      -3.707  14.018  23.555  0.00  0.00    +0.000 A 
ATOM     24  C   UNL     1      -4.719  14.880  23.964  0.00  0.00    +0.000 A 
ATOM     25  C   UNL     1      -4.387  16.089  24.568  0.00  0.00    +0.000 A 
ATOM     26  C   UNL     1      -3.044  16.422  24.766  0.00  0.00    +0.000 A 
ATOM     27 BR   UNL     1      -2.614  18.087  25.555  0.00  0.00    +0.000 Br
ATOM     28  C   UNL     1      -2.020  15.562  24.363  0.00  0.00    +0.000 A 
ENDBRANCH  19  22
ENDBRANCH  15  18
ENDBRANCH   5  12
BRANCH   1  30
ATOM     29  C   UNL     1       1.583   2.489  21.918  0.00  0.00    +0.000 C 
ATOM     30  O   UNL     1       2.641   2.570  20.959  0.00  0.00    +0.000 OA
ENDBRANCH   1  30
BRANCH  10  31
ATOM     31  O   UNL     1       4.172   5.148  17.184  0.00  0.00    +0.000 OA
ATOM     32  H   UNL     1       5.142   5.140  17.350  0.00  0.00    +0.000 HD
ENDBRANCH  10  31
BRANCH  11  33
ATOM     33  O   UNL     1       4.065   2.655  18.714  0.00  0.00    +0.000 OA
ATOM     34  C   UNL     1       3.339   1.746  17.895  0.00  0.00    +0.000 C 
ENDBRANCH  11  33
TORSDOF 6
ENDMDL
MODEL 3
REMARK VINA RESULT:      -8.0      1.279      1.656
REMARK  Name = 
REMARK  8 active torsions:
REMARK  status: ('A' for Active; 'I' for Inactive)
REMARK    1  A    between atoms: C_1  and  O_2
REMARK    2  A    between atoms: O_2  and  C_3
REMARK    3  A    between atoms: C_7  and  C_8
REMARK    4  A    between atoms: C_11  and  N_12
REMARK    5  A    between atoms: C_13  and  C_15
REMARK    6  A    between atoms: C_28  and  O_29
REMARK    7  A    between atoms: C_30  and  O_31
REMARK    8  A    between atoms: O_31  and  C_32
REMARK                            x       y       z     vdW  Elec       q    Type
REMARK                         _______ _______ _______ _____ _____    ______ ____
ROOT
ATOM      1  C   UNL     1       2.753   4.100  20.313  0.00  0.00    +0.000 A 
ATOM      2  C   UNL     1       2.136   5.217  20.887  0.00  0.00    +0.000 A 
ATOM      3  C   UNL     1       2.087   6.416  20.197  0.00  0.00    +0.000 A 
ATOM      4  O   UNL     1       1.428   7.443  20.818  0.00  0.00    +0.000 OA
ATOM      5  C   UNL     1       1.274   8.632  20.134  0.00  0.00    +0.000 A 
ATOM      6  C   UNL     1       1.795   8.869  18.922  0.00  0.00    +0.000 A 
ATOM      7  C   UNL     1       2.552   7.811  18.249  0.00  0.00    +0.000 A 
ATOM      8  O   UNL     1       3.053   7.988  17.142  0.00  0.00    +0.000 OA
ATOM      9  C   UNL     1       2.674   6.523  18.944  0.00  0.00    +0.000 A 
ATOM     10  C   UNL     1       3.345   5.432  18.370  0.00  0.00    +0.000 A 
ATOM     11  C   UNL     1       3.405   4.205  19.058  0.00  0.00    +0.000 A 
ENDROOT
BRANCH   5  12
ATOM     12  C   UNL     1       0.468   9.640  20.848  0.00  0.00    +0.000 A 
ATOM     13  C   UNL     1       0.157  10.857  20.236  0.00  0.00    +0.000 A 
ATOM     14  C   UNL     1      -0.622  11.806  20.891  0.00  0.00    +0.000 A 
ATOM     15  C   UNL     1      -1.147  11.558  22.163  0.00  0.00    +0.000 A 
ATOM     16  C   UNL     1      -0.830  10.356  22.793  0.00  0.00    +0.000 A 
ATOM     17  C   UNL     1      -0.040   9.399  22.135  0.00  0.00    +0.000 A 
BRANCH  15  18
ATOM     18  N   UNL     1      -1.995  12.487  22.813  0.00  0.00    +0.000 N 
ATOM     19  C   UNL     1      -3.225  12.887  22.312  0.00  0.00    +0.000 C 
ATOM     20  O   UNL     1      -3.765  12.452  21.301  0.00  0.00    +0.000 OA
ATOM     21  H   UNL     1      -1.758  12.738  23.766  0.00  0.00    +0.000 HD
BRANCH  19  22
ATOM     22  C   UNL     1      -3.993  13.895  23.081  0.00  0.00    +0.000 A 
ATOM     23  C   UNL     1      -5.393  13.798  23.025  0.00  0.00    +0.000 A 
ATOM     24  C   UNL     1      -6.195  14.776  23.602  0.00  0.00    +0.000 A 
ATOM     25  C   UNL     1      -5.601  15.860  24.241  0.00  0.00    +0.000 A 
ATOM     26  C   UNL     1      -4.207  15.951  24.306  0.00  0.00    +0.000 A 
ATOM     27 BR   UNL     1      -3.420  17.452  25.147  0.00  0.00    +0.000 Br
ATOM     28  C   UNL     1      -3.393  14.973  23.733  0.00  0.00    +0.000 A 
ENDBRANCH  19  22
ENDBRANCH  15  18
ENDBRANCH   5  12
BRANCH   1  30
ATOM     29  C   UNL     1       1.549   2.552  21.633  0.00  0.00    +0.000 C 
ATOM     30  O   UNL     1       2.768   2.884  20.963  0.00  0.00    +0.000 OA
ENDBRANCH   1  30
BRANCH  10  31
ATOM     31  O   UNL     1       3.926   5.571  17.132  0.00  0.00    +0.000 OA
ATOM     32  H   UNL     1       4.839   5.206  17.157  0.00  0.00    +0.000 HD
ENDBRANCH  10  31
BRANCH  11  33
ATOM     33  O   UNL     1       4.032   3.059  18.629  0.00  0.00    +0.000 OA
ATOM     34  C   UNL     1       3.303   2.144  17.818  0.00  0.00    +0.000 C 
ENDBRANCH  11  33
TORSDOF 6
ENDMDL
MODEL 4
REMARK VINA RESULT:      -8.0      1.473      2.019
REMARK  Name = 
REMARK  8 active torsions:
REMARK  status: ('A' for Active; 'I' for Inactive)
REMARK    1  A    between atoms: C_1  and  O_2
REMARK    2  A    between atoms: O_2  and  C_3
REMARK    3  A    between atoms: C_7  and  C_8
REMARK    4  A    between atoms: C_11  and  N_12
REMARK    5  A    between atoms: C_13  and  C_15
REMARK    6  A    between atoms: C_28  and  O_29
REMARK    7  A    between atoms: C_30  and  O_31
REMARK    8  A    between atoms: O_31  and  C_32
REMARK                            x       y       z     vdW  Elec       q    Type
REMARK                         _______ _______ _______ _____ _____    ______ ____
ROOT
ATOM      1  C   UNL     1       2.613   4.600  20.442  0.00  0.00    +0.000 A 
ATOM      2  C   UNL     1       1.941   5.710  20.966  0.00  0.00    +0.000 A 
ATOM      3  C   UNL     1       1.861   6.884  20.237  0.00  0.00    +0.000 A 
ATOM      4  O   UNL     1       1.148   7.903  20.811  0.00  0.00    +0.000 OA
ATOM      5  C   UNL     1       0.964   9.063  20.085  0.00  0.00    +0.000 A 
ATOM      6  C   UNL     1       1.503   9.282  18.877  0.00  0.00    +0.000 A 
ATOM      7  C   UNL     1       2.315   8.234  18.255  0.00  0.00    +0.000 A 
ATOM      8  O   UNL     1       2.833   8.395  17.154  0.00  0.00    +0.000 OA
ATOM      9  C   UNL     1       2.471   6.974  18.993  0.00  0.00    +0.000 A 
ATOM     10  C   UNL     1       3.196   5.893  18.469  0.00  0.00    +0.000 A 
ATOM     11  C   UNL     1       3.288   4.691  19.198  0.00  0.00    +0.000 A 
ENDROOT
BRANCH   5  12
ATOM     12  C   UNL     1       0.104  10.060  20.749  0.00  0.00    +0.000 A 
ATOM     13  C   UNL     1      -0.065  10.032  22.136  0.00  0.00    +0.000 A 
ATOM     14  C   UNL     1      -0.855  10.982  22.777  0.00  0.00    +0.000 A 
ATOM     15  C   UNL     1      -1.474  12.012  22.061  0.00  0.00    +0.000 A 
ATOM     16  C   UNL     1      -1.328  12.041  20.675  0.00  0.00    +0.000 A 
ATOM     17  C   UNL     1      -0.534  11.080  20.026  0.00  0.00    +0.000 A 
BRANCH  15  18
ATOM     18  N   UNL     1      -2.225  13.022  22.708  0.00  0.00    +0.000 N 
ATOM     19  C   UNL     1      -3.609  13.092  22.675  0.00  0.00    +0.000 C 
ATOM     20  O   UNL     1      -4.359  12.273  22.155  0.00  0.00    +0.000 OA
ATOM     21  H   UNL     1      -1.727  13.621  23.358  0.00  0.00    +0.000 HD
BRANCH  19  22
ATOM     22  C   UNL     1      -4.263  14.228  23.370  0.00  0.00    +0.000 A 
ATOM     23  C   UNL     1      -5.663  14.301  23.278  0.00  0.00    +0.000 A 
ATOM     24  C   UNL     1      -6.349  15.401  23.781  0.00  0.00    +0.000 A 
ATOM     25  C   UNL     1      -5.639  16.437  24.380  0.00  0.00    +0.000 A 
ATOM     26  C   UNL     1      -4.247  16.359  24.480  0.00  0.00    +0.000 A 
ATOM     27 BR   UNL     1      -3.297  17.795  25.265  0.00  0.00    +0.000 Br
ATOM     28  C   UNL     1      -3.547  15.258  23.982  0.00  0.00    +0.000 A 
ENDBRANCH  19  22
ENDBRANCH  15  18
ENDBRANCH   5  12
BRANCH   1  30
ATOM     29  C   UNL     1       1.387   2.790  21.341  0.00  0.00    +0.000 C 
ATOM     30  O   UNL     1       2.660   3.407  21.130  0.00  0.00    +0.000 OA
ENDBRANCH   1  30
BRANCH  10  31
ATOM     31  O   UNL     1       3.799   6.016  17.241  0.00  0.00    +0.000 OA
ATOM     32  H   UNL     1       3.109   6.089  16.543  0.00  0.00    +0.000 HD
ENDBRANCH  10  31
BRANCH  11  33
ATOM     33  O   UNL     1       3.968   3.558  18.820  0.00  0.00    +0.000 OA
ATOM     34  C   UNL     1       3.452   2.778  17.747  0.00  0.00    +0.000 C 
ENDBRANCH  11  33
TORSDOF 6
ENDMDL
MODEL 5
REMARK VINA RESULT:      -8.0      0.865      1.225
REMARK  Name = 
REMARK  8 active torsions:
REMARK  status: ('A' for Active; 'I' for Inactive)
REMARK    1  A    between atoms: C_1  and  O_2
REMARK    2  A    between atoms: O_2  and  C_3
REMARK    3  A    between atoms: C_7  and  C_8
REMARK    4  A    between atoms: C_11  and  N_12
REMARK    5  A    between atoms: C_13  and  C_15
REMARK    6  A    between atoms: C_28  and  O_29
REMARK    7  A    between atoms: C_30  and  O_31
REMARK    8  A    between atoms: O_31  and  C_32
REMARK                            x       y       z     vdW  Elec       q    Type
REMARK                         _______ _______ _______ _____ _____    ______ ____
ROOT
ATOM      1  C   UNL     1       2.758   4.029  20.325  0.00  0.00    +0.000 A 
ATOM      2  C   UNL     1       2.183   5.187  20.861  0.00  0.00    +0.000 A 
ATOM      3  C   UNL     1       2.166   6.360  20.126  0.00  0.00    +0.000 A 
ATOM      4  O   UNL     1       1.547   7.431  20.713  0.00  0.00    +0.000 OA
ATOM      5  C   UNL     1       1.425   8.598  19.985  0.00  0.00    +0.000 A 
ATOM      6  C   UNL     1       1.941   8.772  18.760  0.00  0.00    +0.000 A 
ATOM      7  C   UNL     1       2.657   7.664  18.122  0.00  0.00    +0.000 A 
ATOM      8  O   UNL     1       3.152   7.782  17.005  0.00  0.00    +0.000 OA
ATOM      9  C   UNL     1       2.743   6.400  18.864  0.00  0.00    +0.000 A 
ATOM     10  C   UNL     1       3.373   5.267  18.327  0.00  0.00    +0.000 A 
ATOM     11  C   UNL     1       3.400   4.065  19.061  0.00  0.00    +0.000 A 
ENDROOT
BRANCH   5  12
ATOM     12  C   UNL     1       0.659   9.658  20.667  0.00  0.00    +0.000 A 
ATOM     13  C   UNL     1       0.209   9.470  21.977  0.00  0.00    +0.000 A 
ATOM     14  C   UNL     1      -0.494  10.472  22.639  0.00  0.00    +0.000 A 
ATOM     15  C   UNL     1      -0.740  11.707  22.031  0.00  0.00    +0.000 A 
ATOM     16  C   UNL     1      -0.311  11.902  20.720  0.00  0.00    +0.000 A 
ATOM     17  C   UNL     1       0.395  10.890  20.048  0.00  0.00    +0.000 A 
BRANCH  15  18
ATOM     18  N   UNL     1      -1.395  12.758  22.718  0.00  0.00    +0.000 N 
ATOM     19  C   UNL     1      -2.668  13.207  22.402  0.00  0.00    +0.000 C 
ATOM     20  O   UNL     1      -3.412  12.725  21.555  0.00  0.00    +0.000 OA
ATOM     21  H   UNL     1      -0.970  13.077  23.582  0.00  0.00    +0.000 HD
BRANCH  19  22
ATOM     22  C   UNL     1      -3.217  14.342  23.184  0.00  0.00    +0.000 A 
ATOM     23  C   UNL     1      -2.495  14.729  24.325  0.00  0.00    +0.000 A 
ATOM     24  C   UNL     1      -3.002  15.691  25.192  0.00  0.00    +0.000 A 
ATOM     25  C   UNL     1      -4.237  16.272  24.923  0.00  0.00    +0.000 A 
ATOM     26  C   UNL     1      -4.951  15.894  23.782  0.00  0.00    +0.000 A 
ATOM     27 BR   UNL     1      -6.645  16.670  23.456  0.00  0.00    +0.000 Br
ATOM     28  C   UNL     1      -4.449  14.933  22.903  0.00  0.00    +0.000 A 
ENDBRANCH  19  22
ENDBRANCH  15  18
ENDBRANCH   5  12
BRANCH   1  30
ATOM     29  C   UNL     1       1.486   2.529  21.637  0.00  0.00    +0.000 C 
ATOM     30  O   UNL     1       2.739   2.839  21.020  0.00  0.00    +0.000 OA
ENDBRANCH   1  30
BRANCH  10  31
ATOM     31  O   UNL     1       3.946   5.340  17.080  0.00  0.00    +0.000 OA
ATOM     32  H   UNL     1       4.098   6.283  16.845  0.00  0.00    +0.000 HD
ENDBRANCH  10  31
BRANCH  11  33
ATOM     33  O   UNL     1       3.985   2.884  18.671  0.00  0.00    +0.000 OA
ATOM     34  C   UNL     1       3.237   1.988  17.857  0.00  0.00    +0.000 C 
ENDBRANCH  11  33
TORSDOF 6
ENDMDL
MODEL 6
REMARK VINA RESULT:      -7.9      1.179      1.356
REMARK  Name = 
REMARK  8 active torsions:
REMARK  status: ('A' for Active; 'I' for Inactive)
REMARK    1  A    between atoms: C_1  and  O_2
REMARK    2  A    between atoms: O_2  and  C_3
REMARK    3  A    between atoms: C_7  and  C_8
REMARK    4  A    between atoms: C_11  and  N_12
REMARK    5  A    between atoms: C_13  and  C_15
REMARK    6  A    between atoms: C_28  and  O_29
REMARK    7  A    between atoms: C_30  and  O_31
REMARK    8  A    between atoms: O_31  and  C_32
REMARK                            x       y       z     vdW  Elec       q    Type
REMARK                         _______ _______ _______ _____ _____    ______ ____
ROOT
ATOM      1  C   UNL     1       2.788   4.205  20.335  0.00  0.00    +0.000 A 
ATOM      2  C   UNL     1       2.114   5.371  20.715  0.00  0.00    +0.000 A 
ATOM      3  C   UNL     1       2.157   6.495  19.908  0.00  0.00    +0.000 A 
ATOM      4  O   UNL     1       1.434   7.575  20.340  0.00  0.00    +0.000 OA
ATOM      5  C   UNL     1       1.373   8.690  19.527  0.00  0.00    +0.000 A 
ATOM      6  C   UNL     1       2.040   8.808  18.370  0.00  0.00    +0.000 A 
ATOM      7  C   UNL     1       2.867   7.692  17.903  0.00  0.00    +0.000 A 
ATOM      8  O   UNL     1       3.500   7.761  16.854  0.00  0.00    +0.000 OA
ATOM      9  C   UNL     1       2.893   6.480  18.732  0.00  0.00    +0.000 A 
ATOM     10  C   UNL     1       3.622   5.341  18.355  0.00  0.00    +0.000 A 
ATOM     11  C   UNL     1       3.589   4.188  19.164  0.00  0.00    +0.000 A 
ENDROOT
BRANCH   5  12
ATOM     12  C   UNL     1       0.494   9.759  20.034  0.00  0.00    +0.000 A 
ATOM     13  C   UNL     1      -0.418  10.386  19.180  0.00  0.00    +0.000 A 
ATOM     14  C   UNL     1      -1.269  11.380  19.653  0.00  0.00    +0.000 A 
ATOM     15  C   UNL     1      -1.266  11.756  21.000  0.00  0.00    +0.000 A 
ATOM     16  C   UNL     1      -0.351  11.151  21.859  0.00  0.00    +0.000 A 
ATOM     17  C   UNL     1       0.513  10.151  21.382  0.00  0.00    +0.000 A 
BRANCH  15  18
ATOM     18  N   UNL     1      -2.173  12.718  21.507  0.00  0.00    +0.000 N 
ATOM     19  C   UNL     1      -2.921  12.537  22.660  0.00  0.00    +0.000 C 
ATOM     20  O   UNL     1      -2.853  11.576  23.419  0.00  0.00    +0.000 OA
ATOM     21  H   UNL     1      -2.143  13.643  21.091  0.00  0.00    +0.000 HD
BRANCH  19  22
ATOM     22  C   UNL     1      -3.860  13.616  23.055  0.00  0.00    +0.000 A 
ATOM     23  C   UNL     1      -3.290  14.856  23.387  0.00  0.00    +0.000 A 
ATOM     24  C   UNL     1      -4.077  15.883  23.896  0.00  0.00    +0.000 A 
ATOM     25  C   UNL     1      -5.441  15.675  24.079  0.00  0.00    +0.000 A 
ATOM     26  C   UNL     1      -6.009  14.444  23.739  0.00  0.00    +0.000 A 
ATOM     27 BR   UNL     1      -7.859  14.171  24.029  0.00  0.00    +0.000 Br
ATOM     28  C   UNL     1      -5.229  13.407  23.222  0.00  0.00    +0.000 A 
ENDBRANCH  19  22
ENDBRANCH  15  18
ENDBRANCH   5  12
BRANCH   1  30
ATOM     29  C   UNL     1       1.397   2.722  21.540  0.00  0.00    +0.000 C 
ATOM     30  O   UNL     1       2.715   3.060  21.098  0.00  0.00    +0.000 OA
ENDBRANCH   1  30
BRANCH  10  31
ATOM     31  O   UNL     1       4.351   5.360  17.190  0.00  0.00    +0.000 OA
ATOM     32  H   UNL     1       3.760   5.152  16.431  0.00  0.00    +0.000 HD
ENDBRANCH  10  31
BRANCH  11  33
ATOM     33  O   UNL     1       4.255   3.009  18.931  0.00  0.00    +0.000 OA
ATOM     34  C   UNL     1       3.623   2.013  18.135  0.00  0.00    +0.000 C 
ENDBRANCH  11  33
TORSDOF 6
ENDMDL
MODEL 7
REMARK VINA RESULT:      -7.7      0.919      1.273
REMARK  Name = 
REMARK  8 active torsions:
REMARK  status: ('A' for Active; 'I' for Inactive)
REMARK    1  A    between atoms: C_1  and  O_2
REMARK    2  A    between atoms: O_2  and  C_3
REMARK    3  A    between atoms: C_7  and  C_8
REMARK    4  A    between atoms: C_11  and  N_12
REMARK    5  A    between atoms: C_13  and  C_15
REMARK    6  A    between atoms: C_28  and  O_29
REMARK    7  A    between atoms: C_30  and  O_31
REMARK    8  A    between atoms: O_31  and  C_32
REMARK                            x       y       z     vdW  Elec       q    Type
REMARK                         _______ _______ _______ _____ _____    ______ ____
ROOT
ATOM      1  C   UNL     1       2.808   4.068  20.361  0.00  0.00    +0.000 A 
ATOM      2  C   UNL     1       2.216   5.239  20.847  0.00  0.00    +0.000 A 
ATOM      3  C   UNL     1       2.203   6.387  20.073  0.00  0.00    +0.000 A 
ATOM      4  O   UNL     1       1.566   7.472  20.613  0.00  0.00    +0.000 OA
ATOM      5  C   UNL     1       1.448   8.612  19.844  0.00  0.00    +0.000 A 
ATOM      6  C   UNL     1       1.984   8.749  18.623  0.00  0.00    +0.000 A 
ATOM      7  C   UNL     1       2.719   7.626  18.035  0.00  0.00    +0.000 A 
ATOM      8  O   UNL     1       3.232   7.710  16.923  0.00  0.00    +0.000 OA
ATOM      9  C   UNL     1       2.801   6.388  18.821  0.00  0.00    +0.000 A 
ATOM     10  C   UNL     1       3.448   5.242  18.333  0.00  0.00    +0.000 A 
ATOM     11  C   UNL     1       3.472   4.066  19.107  0.00  0.00    +0.000 A 
ENDROOT
BRANCH   5  12
ATOM     12  C   UNL     1       0.663   9.688  20.477  0.00  0.00    +0.000 A 
ATOM     13  C   UNL     1       0.417   9.666  21.853  0.00  0.00    +0.000 A 
ATOM     14  C   UNL     1      -0.302  10.687  22.465  0.00  0.00    +0.000 A 
ATOM     15  C   UNL     1      -0.769  11.784  21.733  0.00  0.00    +0.000 A 
ATOM     16  C   UNL     1      -0.546  11.811  20.358  0.00  0.00    +0.000 A 
ATOM     17  C   UNL     1       0.176  10.778  19.737  0.00  0.00    +0.000 A 
BRANCH  15  18
ATOM     18  N   UNL     1      -1.443  12.862  22.355  0.00  0.00    +0.000 N 
ATOM     19  C   UNL     1      -0.802  13.985  22.855  0.00  0.00    +0.000 C 
ATOM     20  O   UNL     1       0.397  14.227  22.769  0.00  0.00    +0.000 OA
ATOM     21  H   UNL     1      -2.454  12.879  22.277  0.00  0.00    +0.000 HD
BRANCH  19  22
ATOM     22  C   UNL     1      -1.632  15.023  23.514  0.00  0.00    +0.000 A 
ATOM     23  C   UNL     1      -2.015  14.774  24.842  0.00  0.00    +0.000 A 
ATOM     24  C   UNL     1      -2.901  15.623  25.494  0.00  0.00    +0.000 A 
ATOM     25  C   UNL     1      -3.413  16.728  24.821  0.00  0.00    +0.000 A 
ATOM     26  C   UNL     1      -3.024  16.981  23.502  0.00  0.00    +0.000 A 
ATOM     27 BR   UNL     1      -3.760  18.468  22.593  0.00  0.00    +0.000 Br
ATOM     28  C   UNL     1      -2.131  16.137  22.839  0.00  0.00    +0.000 A 
ENDBRANCH  19  22
ENDBRANCH  15  18
ENDBRANCH   5  12
BRANCH   1  30
ATOM     29  C   UNL     1       1.508   2.566  21.642  0.00  0.00    +0.000 C 
ATOM     30  O   UNL     1       2.786   2.902  21.095  0.00  0.00    +0.000 OA
ENDBRANCH   1  30
BRANCH  10  31
ATOM     31  O   UNL     1       4.043   5.278  17.094  0.00  0.00    +0.000 OA
ATOM     32  H   UNL     1       3.585   5.943  16.531  0.00  0.00    +0.000 HD
ENDBRANCH  10  31
BRANCH  11  33
ATOM     33  O   UNL     1       4.071   2.877  18.768  0.00  0.00    +0.000 OA
ATOM     34  C   UNL     1       3.359   1.965  17.940  0.00  0.00    +0.000 C 
ENDBRANCH  11  33
TORSDOF 6
ENDMDL
MODEL 8
REMARK VINA RESULT:      -7.7      1.733      2.236
REMARK  Name = 
REMARK  8 active torsions:
REMARK  status: ('A' for Active; 'I' for Inactive)
REMARK    1  A    between atoms: C_1  and  O_2
REMARK    2  A    between atoms: O_2  and  C_3
REMARK    3  A    between atoms: C_7  and  C_8
REMARK    4  A    between atoms: C_11  and  N_12
REMARK    5  A    between atoms: C_13  and  C_15
REMARK    6  A    between atoms: C_28  and  O_29
REMARK    7  A    between atoms: C_30  and  O_31
REMARK    8  A    between atoms: O_31  and  C_32
REMARK                            x       y       z     vdW  Elec       q    Type
REMARK                         _______ _______ _______ _____ _____    ______ ____
ROOT
ATOM      1  C   UNL     1       2.511   4.927  20.386  0.00  0.00    +0.000 A 
ATOM      2  C   UNL     1       1.815   6.015  20.925  0.00  0.00    +0.000 A 
ATOM      3  C   UNL     1       1.722   7.201  20.218  0.00  0.00    +0.000 A 
ATOM      4  O   UNL     1       0.987   8.197  20.804  0.00  0.00    +0.000 OA
ATOM      5  C   UNL     1       0.790   9.368  20.099  0.00  0.00    +0.000 A 
ATOM      6  C   UNL     1       1.336   9.619  18.901  0.00  0.00    +0.000 A 
ATOM      7  C   UNL     1       2.171   8.597  18.267  0.00  0.00    +0.000 A 
ATOM      8  O   UNL     1       2.697   8.788  17.174  0.00  0.00    +0.000 OA
ATOM      9  C   UNL     1       2.342   7.326  18.982  0.00  0.00    +0.000 A 
ATOM     10  C   UNL     1       3.090   6.267  18.444  0.00  0.00    +0.000 A 
ATOM     11  C   UNL     1       3.196   5.053  19.151  0.00  0.00    +0.000 A 
ENDROOT
BRANCH   5  12
ATOM     12  C   UNL     1      -0.092  10.337  20.774  0.00  0.00    +0.000 A 
ATOM     13  C   UNL     1      -0.682  11.377  20.050  0.00  0.00    +0.000 A 
ATOM     14  C   UNL     1      -1.535  12.284  20.672  0.00  0.00    +0.000 A 
ATOM     15  C   UNL     1      -1.857  12.163  22.027  0.00  0.00    +0.000 A 
ATOM     16  C   UNL     1      -1.263  11.141  22.765  0.00  0.00    +0.000 A 
ATOM     17  C   UNL     1      -0.398  10.227  22.140  0.00  0.00    +0.000 A 
BRANCH  15  18
ATOM     18  N   UNL     1      -2.775  13.039  22.655  0.00  0.00    +0.000 N 
ATOM     19  C   UNL     1      -4.140  13.026  22.411  0.00  0.00    +0.000 C 
ATOM     20  O   UNL     1      -4.735  12.232  21.691  0.00  0.00    +0.000 OA
ATOM     21  H   UNL     1      -2.430  13.583  23.439  0.00  0.00    +0.000 HD
BRANCH  19  22
ATOM     22  C   UNL     1      -4.980  14.026  23.116  0.00  0.00    +0.000 A 
ATOM     23  C   UNL     1      -6.371  13.881  22.989  0.00  0.00    +0.000 A 
ATOM     24  C   UNL     1      -7.233  14.844  23.501  0.00  0.00    +0.000 A 
ATOM     25  C   UNL     1      -6.709  15.962  24.143  0.00  0.00    +0.000 A 
ATOM     26  C   UNL     1      -5.324  16.102  24.277  0.00  0.00    +0.000 A 
ATOM     27 BR   UNL     1      -4.631  17.647  25.119  0.00  0.00    +0.000 Br
ATOM     28  C   UNL     1      -4.449  15.138  23.770  0.00  0.00    +0.000 A 
ENDBRANCH  19  22
ENDBRANCH  15  18
ENDBRANCH   5  12
BRANCH   1  30
ATOM     29  C   UNL     1       1.330   3.016  21.121  0.00  0.00    +0.000 C 
ATOM     30  O   UNL     1       2.572   3.722  21.052  0.00  0.00    +0.000 OA
ENDBRANCH   1  30
BRANCH  10  31
ATOM     31  O   UNL     1       3.702   6.424  17.224  0.00  0.00    +0.000 OA
ATOM     32  H   UNL     1       4.616   6.062  17.267  0.00  0.00    +0.000 HD
ENDBRANCH  10  31
BRANCH  11  33
ATOM     33  O   UNL     1       3.898   3.939  18.757  0.00  0.00    +0.000 OA
ATOM     34  C   UNL     1       5.317   3.951  18.869  0.00  0.00    +0.000 C 
ENDBRANCH  11  33
TORSDOF 6
ENDMDL
MODEL 9
REMARK VINA RESULT:      -7.6      1.950      3.326
REMARK  Name = 
REMARK  8 active torsions:
REMARK  status: ('A' for Active; 'I' for Inactive)
REMARK    1  A    between atoms: C_1  and  O_2
REMARK    2  A    between atoms: O_2  and  C_3
REMARK    3  A    between atoms: C_7  and  C_8
REMARK    4  A    between atoms: C_11  and  N_12
REMARK    5  A    between atoms: C_13  and  C_15
REMARK    6  A    between atoms: C_28  and  O_29
REMARK    7  A    between atoms: C_30  and  O_31
REMARK    8  A    between atoms: O_31  and  C_32
REMARK                            x       y       z     vdW  Elec       q    Type
REMARK                         _______ _______ _______ _____ _____    ______ ____
ROOT
ATOM      1  C   UNL     1       5.445   6.221  17.169  0.00  0.00    +0.000 A 
ATOM      2  C   UNL     1       4.538   7.100  17.771  0.00  0.00    +0.000 A 
ATOM      3  C   UNL     1       3.589   6.623  18.658  0.00  0.00    +0.000 A 
ATOM      4  O   UNL     1       2.771   7.561  19.229  0.00  0.00    +0.000 OA
ATOM      5  C   UNL     1       1.867   7.146  20.188  0.00  0.00    +0.000 A 
ATOM      6  C   UNL     1       1.690   5.866  20.543  0.00  0.00    +0.000 A 
ATOM      7  C   UNL     1       2.512   4.828  19.914  0.00  0.00    +0.000 A 
ATOM      8  O   UNL     1       2.378   3.643  20.204  0.00  0.00    +0.000 OA
ATOM      9  C   UNL     1       3.515   5.265  18.935  0.00  0.00    +0.000 A 
ATOM     10  C   UNL     1       4.379   4.356  18.304  0.00  0.00    +0.000 A 
ATOM     11  C   UNL     1       5.350   4.824  17.398  0.00  0.00    +0.000 A 
ENDROOT
BRANCH   5  12
ATOM     12  C   UNL     1       1.102   8.242  20.810  0.00  0.00    +0.000 A 
ATOM     13  C   UNL     1       0.421   9.167  20.013  0.00  0.00    +0.000 A 
ATOM     14  C   UNL     1      -0.324  10.192  20.589  0.00  0.00    +0.000 A 
ATOM     15  C   UNL     1      -0.444  10.308  21.978  0.00  0.00    +0.000 A 
ATOM     16  C   UNL     1       0.244   9.403  22.784  0.00  0.00    +0.000 A 
ATOM     17  C   UNL     1       1.000   8.370  22.204  0.00  0.00    +0.000 A 
BRANCH  15  18
ATOM     18  N   UNL     1      -1.252  11.304  22.575  0.00  0.00    +0.000 N 
ATOM     19  C   UNL     1      -0.869  12.631  22.703  0.00  0.00    +0.000 C 
ATOM     20  O   UNL     1       0.163  13.127  22.266  0.00  0.00    +0.000 OA
ATOM     21  H   UNL     1      -2.218  11.061  22.765  0.00  0.00    +0.000 HD
BRANCH  19  22
ATOM     22  C   UNL     1      -1.804  13.561  23.383  0.00  0.00    +0.000 A 
ATOM     23  C   UNL     1      -3.173  13.372  23.133  0.00  0.00    +0.000 A 
ATOM     24  C   UNL     1      -4.112  14.275  23.618  0.00  0.00    +0.000 A 
ATOM     25  C   UNL     1      -3.688  15.376  24.356  0.00  0.00    +0.000 A 
ATOM     26  C   UNL     1      -2.326  15.558  24.613  0.00  0.00    +0.000 A 
ATOM     27 BR   UNL     1      -1.767  17.081  25.586  0.00  0.00    +0.000 Br
ATOM     28  C   UNL     1      -1.374  14.655  24.134  0.00  0.00    +0.000 A 
ENDBRANCH  19  22
ENDBRANCH  15  18
ENDBRANCH   5  12
BRANCH   1  30
ATOM     29  C   UNL     1       7.455   7.448  16.963  0.00  0.00    +0.000 C 
ATOM     30  O   UNL     1       6.429   6.684  16.323  0.00  0.00    +0.000 OA
ENDBRANCH   1  30
BRANCH  10  31
ATOM     31  O   UNL     1       4.274   3.016  18.589  0.00  0.00    +0.000 OA
ATOM     32  H   UNL     1       3.811   2.559  17.851  0.00  0.00    +0.000 HD
ENDBRANCH  10  31
BRANCH  11  33
ATOM     33  O   UNL     1       6.253   4.057  16.701  0.00  0.00    +0.000 OA
ATOM     34  C   UNL     1       5.924   3.649  15.377  0.00  0.00    +0.000 C 
ENDBRANCH  11  33
TORSDOF 6
ENDMDL
