MODEL 1
REMARK VINA RESULT:      -7.5      0.000      0.000
REMARK  Name = 
REMARK  10 active torsions:
REMARK  status: ('A' for Active; 'I' for Inactive)
REMARK    1  A    between atoms: C_1  and  C_2
REMARK    2  A    between atoms: C_2  and  C_3
REMARK    3  A    between atoms: C_3  and  C_4
REMARK    4  A    between atoms: C_4  and  C_5
REMARK    5  A    between atoms: C_5  and  O_6
REMARK    6  A    between atoms: N_10  and  C_11
REMARK    7  A    between atoms: C_11  and  C_12
REMARK    8  A    between atoms: C_15  and  O_16
REMARK    9  A    between atoms: O_16  and  C_17
REMARK   10  A    between atoms: C_17  and  C_18
REMARK                            x       y       z     vdW  Elec       q    Type
REMARK                         _______ _______ _______ _____ _____    ______ ____
ROOT
ATOM      1  C   UNL     1       2.447   7.144  19.105  0.00  0.00    +0.000 A 
ATOM      2  C   UNL     1       1.833   7.555  20.297  0.00  0.00    +0.000 A 
ATOM      3  C   UNL     1       1.136   8.764  20.360  0.00  0.00    +0.000 A 
ATOM      4  C   UNL     1       1.068   9.600  19.247  0.00  0.00    +0.000 A 
ATOM      5  C   UNL     1       1.649   9.189  18.045  0.00  0.00    +0.000 A 
ATOM      6  C   UNL     1       2.331   7.964  17.976  0.00  0.00    +0.000 A 
ENDROOT
BRANCH   1   7
ATOM      7  C   UNL     1       3.244   5.853  19.056  0.00  0.00    +0.000 C 
BRANCH   7  12
ATOM      8  C   UNL     1       6.967   5.737  18.184  0.00  0.00    +0.000 C 
ATOM      9  C   UNL     1       6.875   4.635  17.102  0.00  0.00    +0.000 C 
ATOM     10  C   UNL     1       5.612   4.775  16.261  0.00  0.00    +0.000 C 
ATOM     11  C   UNL     1       4.356   4.837  17.135  0.00  0.00    +0.000 C 
ATOM     12  N   UNL     1       4.431   5.877  18.174  0.00  0.00    +0.000 NA
ATOM     13  C   UNL     1       5.646   5.697  19.005  0.00  0.00    +0.000 C 
BRANCH   8  14
ATOM     14  C   UNL     1       7.141   7.161  17.565  0.00  0.00    +0.000 C 
BRANCH  14  16
ATOM     15  C   UNL     1       8.084   9.481  17.874  0.00  0.00    +0.000 C 
ATOM     16  C   UNL     1       8.274   8.001  18.166  0.00  0.00    +0.000 C 
ENDBRANCH  14  16
ENDBRANCH   8  14
BRANCH   8  17
ATOM     17  C   UNL     1       8.150   5.391  19.123  0.00  0.00    +0.000 C 
BRANCH  17  18
ATOM     18  O   UNL     1       7.782   5.440  20.495  0.00  0.00    +0.000 OA
ATOM     19  H   UNL     1       8.138   4.645  20.926  0.00  0.00    +0.000 HD
ENDBRANCH  17  18
ENDBRANCH   8  17
ENDBRANCH   7  12
ENDBRANCH   1   7
BRANCH   4  20
ATOM     20  O   UNL     1       0.394  10.776  19.440  0.00  0.00    +0.000 OA
BRANCH  20  21
ATOM     21  C   UNL     1       1.017  11.925  18.876  0.00  0.00    +0.000 C 
BRANCH  21  22
ATOM     22  C   UNL     1       1.753  12.739  19.943  0.00  0.00    +0.000 C 
ATOM     23  O   UNL     1       1.612  12.475  21.140  0.00  0.00    +0.000 OA
ATOM     24  N   UNL     1       2.627  13.719  19.524  0.00  0.00    +0.000 N 
ATOM     25  C   UNL     1       2.872  14.174  18.170  0.00  0.00    +0.000 C 
ATOM     26  C   UNL     1       4.300  14.688  18.238  0.00  0.00    +0.000 C 
ATOM     27  C   UNL     1       4.399  15.288  19.637  0.00  0.00    +0.000 C 
ATOM     28  C   UNL     1       3.425  14.467  20.478  0.00  0.00    +0.000 C 
ENDBRANCH  21  22
ENDBRANCH  20  21
ENDBRANCH   4  20
TORSDOF 9
ENDMDL
MODEL 2
REMARK VINA RESULT:      -7.5      2.742      2.898
REMARK  Name = 
REMARK  10 active torsions:
REMARK  status: ('A' for Active; 'I' for Inactive)
REMARK    1  A    between atoms: C_1  and  C_2
REMARK    2  A    between atoms: C_2  and  C_3
REMARK    3  A    between atoms: C_3  and  C_4
REMARK    4  A    between atoms: C_4  and  C_5
REMARK    5  A    between atoms: C_5  and  O_6
REMARK    6  A    between atoms: N_10  and  C_11
REMARK    7  A    between atoms: C_11  and  C_12
REMARK    8  A    between atoms: C_15  and  O_16
REMARK    9  A    between atoms: O_16  and  C_17
REMARK   10  A    between atoms: C_17  and  C_18
REMARK                            x       y       z     vdW  Elec       q    Type
REMARK                         _______ _______ _______ _____ _____    ______ ____
ROOT
ATOM      1  C   UNL     1       2.754   6.556  18.757  0.00  0.00    +0.000 A 
ATOM      2  C   UNL     1       2.216   6.694  20.044  0.00  0.00    +0.000 A 
ATOM      3  C   UNL     1       1.589   7.881  20.430  0.00  0.00    +0.000 A 
ATOM      4  C   UNL     1       1.517   8.962  19.553  0.00  0.00    +0.000 A 
ATOM      5  C   UNL     1       2.022   8.826  18.257  0.00  0.00    +0.000 A 
ATOM      6  C   UNL     1       2.634   7.626  17.862  0.00  0.00    +0.000 A 
ENDROOT
BRANCH   1   7
ATOM      7  C   UNL     1       3.478   5.282  18.359  0.00  0.00    +0.000 C 
BRANCH   7  12
ATOM      8  C   UNL     1       7.265   5.794  18.203  0.00  0.00    +0.000 C 
ATOM      9  C   UNL     1       7.572   4.647  17.213  0.00  0.00    +0.000 C 
ATOM     10  C   UNL     1       6.493   4.521  16.145  0.00  0.00    +0.000 C 
ATOM     11  C   UNL     1       5.098   4.396  16.763  0.00  0.00    +0.000 C 
ATOM     12  N   UNL     1       4.794   5.478  17.713  0.00  0.00    +0.000 NA
ATOM     13  C   UNL     1       5.834   5.555  18.766  0.00  0.00    +0.000 C 
BRANCH   8  14
ATOM     14  C   UNL     1       7.317   7.198  17.518  0.00  0.00    +0.000 C 
BRANCH  14  16
ATOM     15  C   UNL     1       7.976   9.621  17.771  0.00  0.00    +0.000 C 
ATOM     16  C   UNL     1       8.328   8.182  18.118  0.00  0.00    +0.000 C 
ENDBRANCH  14  16
ENDBRANCH   8  14
BRANCH   8  17
ATOM     17  C   UNL     1       8.282   5.708  19.369  0.00  0.00    +0.000 C 
BRANCH  17  18
ATOM     18  O   UNL     1       7.678   5.274  20.581  0.00  0.00    +0.000 OA
ATOM     19  H   UNL     1       7.726   4.303  20.604  0.00  0.00    +0.000 HD
ENDBRANCH  17  18
ENDBRANCH   8  17
ENDBRANCH   7  12
ENDBRANCH   1   7
BRANCH   4  20
ATOM     20  O   UNL     1       0.916  10.084  20.056  0.00  0.00    +0.000 OA
BRANCH  20  21
ATOM     21  C   UNL     1      -0.318   9.855  20.727  0.00  0.00    +0.000 C 
BRANCH  21  22
ATOM     22  C   UNL     1      -0.432  10.711  21.991  0.00  0.00    +0.000 C 
ATOM     23  O   UNL     1       0.168  10.390  23.020  0.00  0.00    +0.000 OA
ATOM     24  N   UNL     1      -1.159  11.880  21.921  0.00  0.00    +0.000 N 
ATOM     25  C   UNL     1      -1.948  12.372  20.809  0.00  0.00    +0.000 C 
ATOM     26  C   UNL     1      -1.918  13.878  21.013  0.00  0.00    +0.000 C 
ATOM     27  C   UNL     1      -1.933  14.034  22.531  0.00  0.00    +0.000 C 
ATOM     28  C   UNL     1      -1.233  12.784  23.054  0.00  0.00    +0.000 C 
ENDBRANCH  21  22
ENDBRANCH  20  21
ENDBRANCH   4  20
TORSDOF 9
ENDMDL
MODEL 3
REMARK VINA RESULT:      -7.3      2.242      3.121
REMARK  Name = 
REMARK  10 active torsions:
REMARK  status: ('A' for Active; 'I' for Inactive)
REMARK    1  A    between atoms: C_1  and  C_2
REMARK    2  A    between atoms: C_2  and  C_3
REMARK    3  A    between atoms: C_3  and  C_4
REMARK    4  A    between atoms: C_4  and  C_5
REMARK    5  A    between atoms: C_5  and  O_6
REMARK    6  A    between atoms: N_10  and  C_11
REMARK    7  A    between atoms: C_11  and  C_12
REMARK    8  A    between atoms: C_15  and  O_16
REMARK    9  A    between atoms: O_16  and  C_17
REMARK   10  A    between atoms: C_17  and  C_18
REMARK                            x       y       z     vdW  Elec       q    Type
REMARK                         _______ _______ _______ _____ _____    ______ ____
ROOT
ATOM      1  C   UNL     1       2.607   6.541  18.517  0.00  0.00    +0.000 A 
ATOM      2  C   UNL     1       2.259   6.466  19.872  0.00  0.00    +0.000 A 
ATOM      3  C   UNL     1       1.687   7.561  20.524  0.00  0.00    +0.000 A 
ATOM      4  C   UNL     1       1.483   8.761  19.844  0.00  0.00    +0.000 A 
ATOM      5  C   UNL     1       1.796   8.839  18.485  0.00  0.00    +0.000 A 
ATOM      6  C   UNL     1       2.352   7.732  17.825  0.00  0.00    +0.000 A 
ENDROOT
BRANCH   1   7
ATOM      7  C   UNL     1       3.273   5.364  17.827  0.00  0.00    +0.000 C 
BRANCH   7  12
ATOM      8  C   UNL     1       7.058   5.891  17.983  0.00  0.00    +0.000 C 
ATOM      9  C   UNL     1       7.440   4.854  16.901  0.00  0.00    +0.000 C 
ATOM     10  C   UNL     1       6.436   4.840  15.755  0.00  0.00    +0.000 C 
ATOM     11  C   UNL     1       5.004   4.651  16.261  0.00  0.00    +0.000 C 
ATOM     12  N   UNL     1       4.628   5.627  17.296  0.00  0.00    +0.000 NA
ATOM     13  C   UNL     1       5.595   5.594  18.419  0.00  0.00    +0.000 C 
BRANCH   8  14
ATOM     14  C   UNL     1       7.145   7.359  17.453  0.00  0.00    +0.000 C 
BRANCH  14  16
ATOM     15  C   UNL     1       8.037   9.693  17.811  0.00  0.00    +0.000 C 
ATOM     16  C   UNL     1       8.264   8.210  18.066  0.00  0.00    +0.000 C 
ENDBRANCH  14  16
ENDBRANCH   8  14
BRANCH   8  17
ATOM     17  C   UNL     1       7.995   5.684  19.199  0.00  0.00    +0.000 C 
BRANCH  17  18
ATOM     18  O   UNL     1       7.288   5.262  20.359  0.00  0.00    +0.000 OA
ATOM     19  H   UNL     1       6.340   5.399  20.194  0.00  0.00    +0.000 HD
ENDBRANCH  17  18
ENDBRANCH   8  17
ENDBRANCH   7  12
ENDBRANCH   1   7
BRANCH   4  20
ATOM     20  O   UNL     1       0.954   9.776  20.595  0.00  0.00    +0.000 OA
BRANCH  20  21
ATOM     21  C   UNL     1       0.925  11.046  19.953  0.00  0.00    +0.000 C 
BRANCH  21  22
ATOM     22  C   UNL     1      -0.510  11.548  19.777  0.00  0.00    +0.000 C 
ATOM     23  O   UNL     1      -1.084  11.434  18.690  0.00  0.00    +0.000 OA
ATOM     24  N   UNL     1      -1.160  12.060  20.879  0.00  0.00    +0.000 N 
ATOM     25  C   UNL     1      -0.617  12.298  22.202  0.00  0.00    +0.000 C 
ATOM     26  C   UNL     1      -1.841  12.187  23.096  0.00  0.00    +0.000 C 
ATOM     27  C   UNL     1      -2.962  12.773  22.243  0.00  0.00    +0.000 C 
ATOM     28  C   UNL     1      -2.550  12.470  20.805  0.00  0.00    +0.000 C 
ENDBRANCH  21  22
ENDBRANCH  20  21
ENDBRANCH   4  20
TORSDOF 9
ENDMDL
MODEL 4
REMARK VINA RESULT:      -7.3      3.675      5.267
REMARK  Name = 
REMARK  10 active torsions:
REMARK  status: ('A' for Active; 'I' for Inactive)
REMARK    1  A    between atoms: C_1  and  C_2
REMARK    2  A    between atoms: C_2  and  C_3
REMARK    3  A    between atoms: C_3  and  C_4
REMARK    4  A    between atoms: C_4  and  C_5
REMARK    5  A    between atoms: C_5  and  O_6
REMARK    6  A    between atoms: N_10  and  C_11
REMARK    7  A    between atoms: C_11  and  C_12
REMARK    8  A    between atoms: C_15  and  O_16
REMARK    9  A    between atoms: O_16  and  C_17
REMARK   10  A    between atoms: C_17  and  C_18
REMARK                            x       y       z     vdW  Elec       q    Type
REMARK                         _______ _______ _______ _____ _____    ______ ____
ROOT
ATOM      1  C   UNL     1       1.822   8.382  19.032  0.00  0.00    +0.000 A 
ATOM      2  C   UNL     1       1.756   7.871  20.335  0.00  0.00    +0.000 A 
ATOM      3  C   UNL     1       1.236   8.641  21.378  0.00  0.00    +0.000 A 
ATOM      4  C   UNL     1       0.802   9.945  21.146  0.00  0.00    +0.000 A 
ATOM      5  C   UNL     1       0.833  10.456  19.847  0.00  0.00    +0.000 A 
ATOM      6  C   UNL     1       1.337   9.675  18.795  0.00  0.00    +0.000 A 
ENDROOT
BRANCH   1   7
ATOM      7  C   UNL     1       2.434   7.560  17.913  0.00  0.00    +0.000 C 
BRANCH   7  12
ATOM      8  C   UNL     1       3.082   3.820  18.388  0.00  0.00    +0.000 C 
ATOM      9  C   UNL     1       4.498   3.791  17.767  0.00  0.00    +0.000 C 
ATOM     10  C   UNL     1       5.295   5.040  18.123  0.00  0.00    +0.000 C 
ATOM     11  C   UNL     1       4.531   6.318  17.767  0.00  0.00    +0.000 C 
ATOM     12  N   UNL     1       3.178   6.357  18.346  0.00  0.00    +0.000 NA
ATOM     13  C   UNL     1       2.408   5.153  17.952  0.00  0.00    +0.000 C 
BRANCH   8  14
ATOM     14  C   UNL     1       3.118   3.752  19.949  0.00  0.00    +0.000 C 
BRANCH  14  16
ATOM     15  C   UNL     1       1.485   2.771  21.604  0.00  0.00    +0.000 C 
ATOM     16  C   UNL     1       1.761   3.917  20.642  0.00  0.00    +0.000 C 
ENDBRANCH  14  16
ENDBRANCH   8  14
BRANCH   8  17
ATOM     17  C   UNL     1       2.275   2.636  17.799  0.00  0.00    +0.000 C 
BRANCH  17  18
ATOM     18  O   UNL     1       2.695   1.382  18.322  0.00  0.00    +0.000 OA
ATOM     19  H   UNL     1       2.212   0.686  17.846  0.00  0.00    +0.000 HD
ENDBRANCH  17  18
ENDBRANCH   8  17
ENDBRANCH   7  12
ENDBRANCH   1   7
BRANCH   4  20
ATOM     20  O   UNL     1       0.349  10.615  22.251  0.00  0.00    +0.000 OA
BRANCH  20  21
ATOM     21  C   UNL     1      -0.913  11.253  22.091  0.00  0.00    +0.000 C 
BRANCH  21  22
ATOM     22  C   UNL     1      -0.920  12.643  22.732  0.00  0.00    +0.000 C 
ATOM     23  O   UNL     1       0.046  13.399  22.599  0.00  0.00    +0.000 OA
ATOM     24  N   UNL     1      -2.060  13.047  23.395  0.00  0.00    +0.000 N 
ATOM     25  C   UNL     1      -3.251  12.269  23.673  0.00  0.00    +0.000 C 
ATOM     26  C   UNL     1      -4.334  13.331  23.765  0.00  0.00    +0.000 C 
ATOM     27  C   UNL     1      -3.619  14.518  24.404  0.00  0.00    +0.000 C 
ATOM     28  C   UNL     1      -2.169  14.384  23.949  0.00  0.00    +0.000 C 
ENDBRANCH  21  22
ENDBRANCH  20  21
ENDBRANCH   4  20
TORSDOF 9
ENDMDL
MODEL 5
REMARK VINA RESULT:      -7.2      2.716      3.783
REMARK  Name = 
REMARK  10 active torsions:
REMARK  status: ('A' for Active; 'I' for Inactive)
REMARK    1  A    between atoms: C_1  and  C_2
REMARK    2  A    between atoms: C_2  and  C_3
REMARK    3  A    between atoms: C_3  and  C_4
REMARK    4  A    between atoms: C_4  and  C_5
REMARK    5  A    between atoms: C_5  and  O_6
REMARK    6  A    between atoms: N_10  and  C_11
REMARK    7  A    between atoms: C_11  and  C_12
REMARK    8  A    between atoms: C_15  and  O_16
REMARK    9  A    between atoms: O_16  and  C_17
REMARK   10  A    between atoms: C_17  and  C_18
REMARK                            x       y       z     vdW  Elec       q    Type
REMARK                         _______ _______ _______ _____ _____    ______ ____
ROOT
ATOM      1  C   UNL     1       2.504   7.064  19.032  0.00  0.00    +0.000 A 
ATOM      2  C   UNL     1       2.408   7.878  17.895  0.00  0.00    +0.000 A 
ATOM      3  C   UNL     1       1.731   9.099  17.948  0.00  0.00    +0.000 A 
ATOM      4  C   UNL     1       1.110   9.514  19.125  0.00  0.00    +0.000 A 
ATOM      5  C   UNL     1       1.225   8.727  20.273  0.00  0.00    +0.000 A 
ATOM      6  C   UNL     1       1.922   7.510  20.226  0.00  0.00    +0.000 A 
ENDROOT
BRANCH   1   7
ATOM      7  C   UNL     1       3.198   5.716  18.956  0.00  0.00    +0.000 C 
BRANCH   7  12
ATOM      8  C   UNL     1       6.873   5.571  17.906  0.00  0.00    +0.000 C 
ATOM      9  C   UNL     1       6.763   4.324  16.998  0.00  0.00    +0.000 C 
ATOM     10  C   UNL     1       5.455   4.310  16.217  0.00  0.00    +0.000 C 
ATOM     11  C   UNL     1       4.244   4.464  17.140  0.00  0.00    +0.000 C 
ATOM     12  N   UNL     1       4.337   5.643  18.016  0.00  0.00    +0.000 NA
ATOM     13  C   UNL     1       5.597   5.615  18.796  0.00  0.00    +0.000 C 
BRANCH   8  14
ATOM     14  C   UNL     1       6.968   6.896  17.084  0.00  0.00    +0.000 C 
BRANCH  14  16
ATOM     15  C   UNL     1       8.292   8.883  17.902  0.00  0.00    +0.000 C 
ATOM     16  C   UNL     1       6.940   8.185  17.915  0.00  0.00    +0.000 C 
ENDBRANCH  14  16
ENDBRANCH   8  14
BRANCH   8  17
ATOM     17  C   UNL     1       8.113   5.393  18.818  0.00  0.00    +0.000 C 
BRANCH  17  18
ATOM     18  O   UNL     1       7.798   5.555  20.196  0.00  0.00    +0.000 OA
ATOM     19  H   UNL     1       6.888   5.891  20.253  0.00  0.00    +0.000 HD
ENDBRANCH  17  18
ENDBRANCH   8  17
ENDBRANCH   7  12
ENDBRANCH   1   7
BRANCH   4  20
ATOM     20  O   UNL     1       0.443  10.707  19.045  0.00  0.00    +0.000 OA
BRANCH  20  21
ATOM     21  C   UNL     1      -0.650  10.845  19.946  0.00  0.00    +0.000 C 
BRANCH  21  22
ATOM     22  C   UNL     1      -1.800  11.629  19.310  0.00  0.00    +0.000 C 
ATOM     23  O   UNL     1      -2.047  12.783  19.671  0.00  0.00    +0.000 OA
ATOM     24  N   UNL     1      -2.498  11.036  18.279  0.00  0.00    +0.000 N 
ATOM     25  C   UNL     1      -2.360   9.686  17.771  0.00  0.00    +0.000 C 
ATOM     26  C   UNL     1      -2.810   9.820  16.325  0.00  0.00    +0.000 C 
ATOM     27  C   UNL     1      -3.920  10.865  16.391  0.00  0.00    +0.000 C 
ATOM     28  C   UNL     1      -3.541  11.756  17.571  0.00  0.00    +0.000 C 
ENDBRANCH  21  22
ENDBRANCH  20  21
ENDBRANCH   4  20
TORSDOF 9
ENDMDL
MODEL 6
REMARK VINA RESULT:      -7.2      2.664      3.567
REMARK  Name = 
REMARK  10 active torsions:
REMARK  status: ('A' for Active; 'I' for Inactive)
REMARK    1  A    between atoms: C_1  and  C_2
REMARK    2  A    between atoms: C_2  and  C_3
REMARK    3  A    between atoms: C_3  and  C_4
REMARK    4  A    between atoms: C_4  and  C_5
REMARK    5  A    between atoms: C_5  and  O_6
REMARK    6  A    between atoms: N_10  and  C_11
REMARK    7  A    between atoms: C_11  and  C_12
REMARK    8  A    between atoms: C_15  and  O_16
REMARK    9  A    between atoms: O_16  and  C_17
REMARK   10  A    between atoms: C_17  and  C_18
REMARK                            x       y       z     vdW  Elec       q    Type
REMARK                         _______ _______ _______ _____ _____    ______ ____
ROOT
ATOM      1  C   UNL     1       2.372   7.011  19.246  0.00  0.00    +0.000 A 
ATOM      2  C   UNL     1       1.800   7.404  20.465  0.00  0.00    +0.000 A 
ATOM      3  C   UNL     1       1.174   8.646  20.592  0.00  0.00    +0.000 A 
ATOM      4  C   UNL     1       1.136   9.532  19.516  0.00  0.00    +0.000 A 
ATOM      5  C   UNL     1       1.673   9.141  18.287  0.00  0.00    +0.000 A 
ATOM      6  C   UNL     1       2.284   7.884  18.154  0.00  0.00    +0.000 A 
ENDROOT
BRANCH   1   7
ATOM      7  C   UNL     1       3.094   5.681  19.128  0.00  0.00    +0.000 C 
BRANCH   7  12
ATOM      8  C   UNL     1       6.805   5.770  18.208  0.00  0.00    +0.000 C 
ATOM      9  C   UNL     1       6.809   4.513  17.308  0.00  0.00    +0.000 C 
ATOM     10  C   UNL     1       5.533   4.408  16.481  0.00  0.00    +0.000 C 
ATOM     11  C   UNL     1       4.282   4.489  17.361  0.00  0.00    +0.000 C 
ATOM     12  N   UNL     1       4.268   5.677  18.229  0.00  0.00    +0.000 NA
ATOM     13  C   UNL     1       5.499   5.736  19.052  0.00  0.00    +0.000 C 
BRANCH   8  14
ATOM     14  C   UNL     1       6.843   7.094  17.378  0.00  0.00    +0.000 C 
BRANCH  14  16
ATOM     15  C   UNL     1       7.999   9.257  17.971  0.00  0.00    +0.000 C 
ATOM     16  C   UNL     1       8.175   7.852  17.415  0.00  0.00    +0.000 C 
ENDBRANCH  14  16
ENDBRANCH   8  14
BRANCH   8  17
ATOM     17  C   UNL     1       8.021   5.680  19.164  0.00  0.00    +0.000 C 
BRANCH  17  18
ATOM     18  O   UNL     1       7.635   5.400  20.504  0.00  0.00    +0.000 OA
ATOM     19  H   UNL     1       6.665   5.444  20.547  0.00  0.00    +0.000 HD
ENDBRANCH  17  18
ENDBRANCH   8  17
ENDBRANCH   7  12
ENDBRANCH   1   7
BRANCH   4  20
ATOM     20  O   UNL     1       0.532  10.734  19.770  0.00  0.00    +0.000 OA
BRANCH  20  21
ATOM     21  C   UNL     1      -0.491  10.694  20.759  0.00  0.00    +0.000 C 
BRANCH  21  22
ATOM     22  C   UNL     1      -1.564  11.753  20.493  0.00  0.00    +0.000 C 
ATOM     23  O   UNL     1      -1.851  12.077  19.337  0.00  0.00    +0.000 OA
ATOM     24  N   UNL     1      -2.246  12.273  21.572  0.00  0.00    +0.000 N 
ATOM     25  C   UNL     1      -2.003  12.029  22.980  0.00  0.00    +0.000 C 
ATOM     26  C   UNL     1      -3.370  12.258  23.604  0.00  0.00    +0.000 C 
ATOM     27  C   UNL     1      -3.962  13.388  22.767  0.00  0.00    +0.000 C 
ATOM     28  C   UNL     1      -3.337  13.212  21.386  0.00  0.00    +0.000 C 
ENDBRANCH  21  22
ENDBRANCH  20  21
ENDBRANCH   4  20
TORSDOF 9
ENDMDL
MODEL 7
REMARK VINA RESULT:      -7.1      3.572      5.510
REMARK  Name = 
REMARK  10 active torsions:
REMARK  status: ('A' for Active; 'I' for Inactive)
REMARK    1  A    between atoms: C_1  and  C_2
REMARK    2  A    between atoms: C_2  and  C_3
REMARK    3  A    between atoms: C_3  and  C_4
REMARK    4  A    between atoms: C_4  and  C_5
REMARK    5  A    between atoms: C_5  and  O_6
REMARK    6  A    between atoms: N_10  and  C_11
REMARK    7  A    between atoms: C_11  and  C_12
REMARK    8  A    between atoms: C_15  and  O_16
REMARK    9  A    between atoms: O_16  and  C_17
REMARK   10  A    between atoms: C_17  and  C_18
REMARK                            x       y       z     vdW  Elec       q    Type
REMARK                         _______ _______ _______ _____ _____    ______ ____
ROOT
ATOM      1  C   UNL     1       2.138   8.418  18.465  0.00  0.00    +0.000 A 
ATOM      2  C   UNL     1       1.421   9.413  17.786  0.00  0.00    +0.000 A 
ATOM      3  C   UNL     1       0.450  10.169  18.447  0.00  0.00    +0.000 A 
ATOM      4  C   UNL     1       0.155   9.925  19.787  0.00  0.00    +0.000 A 
ATOM      5  C   UNL     1       0.884   8.958  20.484  0.00  0.00    +0.000 A 
ATOM      6  C   UNL     1       1.873   8.212  19.825  0.00  0.00    +0.000 A 
ENDROOT
BRANCH   1   7
ATOM      7  C   UNL     1       3.156   7.565  17.729  0.00  0.00    +0.000 C 
BRANCH   7  12
ATOM      8  C   UNL     1       3.001   3.856  18.650  0.00  0.00    +0.000 C 
ATOM      9  C   UNL     1       4.488   3.531  18.382  0.00  0.00    +0.000 C 
ATOM     10  C   UNL     1       5.401   4.673  18.810  0.00  0.00    +0.000 C 
ATOM     11  C   UNL     1       4.975   6.003  18.181  0.00  0.00    +0.000 C 
ATOM     12  N   UNL     1       3.559   6.323  18.422  0.00  0.00    +0.000 NA
ATOM     13  C   UNL     1       2.688   5.216  17.960  0.00  0.00    +0.000 C 
BRANCH   8  14
ATOM     14  C   UNL     1       2.685   3.973  20.176  0.00  0.00    +0.000 C 
BRANCH  14  16
ATOM     15  C   UNL     1       1.566   2.478  21.873  0.00  0.00    +0.000 C 
ATOM     16  C   UNL     1       2.772   2.661  20.964  0.00  0.00    +0.000 C 
ENDBRANCH  14  16
ENDBRANCH   8  14
BRANCH   8  17
ATOM     17  C   UNL     1       2.140   2.750  17.988  0.00  0.00    +0.000 C 
BRANCH  17  18
ATOM     18  O   UNL     1       0.748   2.950  18.199  0.00  0.00    +0.000 OA
ATOM     19  H   UNL     1       0.445   2.275  18.830  0.00  0.00    +0.000 HD
ENDBRANCH  17  18
ENDBRANCH   8  17
ENDBRANCH   7  12
ENDBRANCH   1   7
BRANCH   4  20
ATOM     20  O   UNL     1      -0.841  10.701  20.317  0.00  0.00    +0.000 OA
BRANCH  20  21
ATOM     21  C   UNL     1      -1.162  11.864  19.562  0.00  0.00    +0.000 C 
BRANCH  21  22
ATOM     22  C   UNL     1      -2.651  12.203  19.668  0.00  0.00    +0.000 C 
ATOM     23  O   UNL     1      -3.066  12.923  20.580  0.00  0.00    +0.000 OA
ATOM     24  N   UNL     1      -3.495  11.743  18.679  0.00  0.00    +0.000 N 
ATOM     25  C   UNL     1      -3.174  10.862  17.574  0.00  0.00    +0.000 C 
ATOM     26  C   UNL     1      -4.196  11.254  16.520  0.00  0.00    +0.000 C 
ATOM     27  C   UNL     1      -5.441  11.592  17.336  0.00  0.00    +0.000 C 
ATOM     28  C   UNL     1      -4.901  12.103  18.668  0.00  0.00    +0.000 C 
ENDBRANCH  21  22
ENDBRANCH  20  21
ENDBRANCH   4  20
TORSDOF 9
ENDMDL
MODEL 8
REMARK VINA RESULT:      -7.1      3.558      5.330
REMARK  Name = 
REMARK  10 active torsions:
REMARK  status: ('A' for Active; 'I' for Inactive)
REMARK    1  A    between atoms: C_1  and  C_2
REMARK    2  A    between atoms: C_2  and  C_3
REMARK    3  A    between atoms: C_3  and  C_4
REMARK    4  A    between atoms: C_4  and  C_5
REMARK    5  A    between atoms: C_5  and  O_6
REMARK    6  A    between atoms: N_10  and  C_11
REMARK    7  A    between atoms: C_11  and  C_12
REMARK    8  A    between atoms: C_15  and  O_16
REMARK    9  A    between atoms: O_16  and  C_17
REMARK   10  A    between atoms: C_17  and  C_18
REMARK                            x       y       z     vdW  Elec       q    Type
REMARK                         _______ _______ _______ _____ _____    ______ ____
ROOT
ATOM      1  C   UNL     1       2.165   8.295  18.510  0.00  0.00    +0.000 A 
ATOM      2  C   UNL     1       1.949   7.994  19.862  0.00  0.00    +0.000 A 
ATOM      3  C   UNL     1       1.050   8.744  20.625  0.00  0.00    +0.000 A 
ATOM      4  C   UNL     1       0.375   9.825  20.062  0.00  0.00    +0.000 A 
ATOM      5  C   UNL     1       0.557  10.116  18.708  0.00  0.00    +0.000 A 
ATOM      6  C   UNL     1       1.445   9.350  17.936  0.00  0.00    +0.000 A 
ENDROOT
BRANCH   1   7
ATOM      7  C   UNL     1       3.180   7.509  17.700  0.00  0.00    +0.000 C 
BRANCH   7  12
ATOM      8  C   UNL     1       2.839   3.815  18.633  0.00  0.00    +0.000 C 
ATOM      9  C   UNL     1       4.188   3.344  18.042  0.00  0.00    +0.000 C 
ATOM     10  C   UNL     1       5.289   4.376  18.257  0.00  0.00    +0.000 C 
ATOM     11  C   UNL     1       4.878   5.756  17.738  0.00  0.00    +0.000 C 
ATOM     12  N   UNL     1       3.592   6.215  18.286  0.00  0.00    +0.000 NA
ATOM     13  C   UNL     1       2.528   5.215  18.029  0.00  0.00    +0.000 C 
BRANCH   8  14
ATOM     14  C   UNL     1       2.882   3.928  20.191  0.00  0.00    +0.000 C 
BRANCH  14  16
ATOM     15  C   UNL     1       1.430   2.594  21.766  0.00  0.00    +0.000 C 
ATOM     16  C   UNL     1       1.521   3.835  20.891  0.00  0.00    +0.000 C 
ENDBRANCH  14  16
ENDBRANCH   8  14
BRANCH   8  17
ATOM     17  C   UNL     1       1.742   2.820  18.178  0.00  0.00    +0.000 C 
BRANCH  17  18
ATOM     18  O   UNL     1       2.239   1.847  17.267  0.00  0.00    +0.000 OA
ATOM     19  H   UNL     1       2.239   2.246  16.380  0.00  0.00    +0.000 HD
ENDBRANCH  17  18
ENDBRANCH   8  17
ENDBRANCH   7  12
ENDBRANCH   1   7
BRANCH   4  20
ATOM     20  O   UNL     1      -0.449  10.509  20.916  0.00  0.00    +0.000 OA
BRANCH  20  21
ATOM     21  C   UNL     1      -0.613  11.890  20.614  0.00  0.00    +0.000 C 
BRANCH  21  22
ATOM     22  C   UNL     1      -2.091  12.250  20.443  0.00  0.00    +0.000 C 
ATOM     23  O   UNL     1      -2.631  12.172  19.336  0.00  0.00    +0.000 OA
ATOM     24  N   UNL     1      -2.811  12.591  21.568  0.00  0.00    +0.000 N 
ATOM     25  C   UNL     1      -2.319  12.768  22.920  0.00  0.00    +0.000 C 
ATOM     26  C   UNL     1      -3.539  12.449  23.769  0.00  0.00    +0.000 C 
ATOM     27  C   UNL     1      -4.702  12.986  22.940  0.00  0.00    +0.000 C 
ATOM     28  C   UNL     1      -4.236  12.856  21.493  0.00  0.00    +0.000 C 
ENDBRANCH  21  22
ENDBRANCH  20  21
ENDBRANCH   4  20
TORSDOF 9
ENDMDL
MODEL 9
REMARK VINA RESULT:      -7.1      3.315      5.040
REMARK  Name = 
REMARK  10 active torsions:
REMARK  status: ('A' for Active; 'I' for Inactive)
REMARK    1  A    between atoms: C_1  and  C_2
REMARK    2  A    between atoms: C_2  and  C_3
REMARK    3  A    between atoms: C_3  and  C_4
REMARK    4  A    between atoms: C_4  and  C_5
REMARK    5  A    between atoms: C_5  and  O_6
REMARK    6  A    between atoms: N_10  and  C_11
REMARK    7  A    between atoms: C_11  and  C_12
REMARK    8  A    between atoms: C_15  and  O_16
REMARK    9  A    between atoms: O_16  and  C_17
REMARK   10  A    between atoms: C_17  and  C_18
REMARK                            x       y       z     vdW  Elec       q    Type
REMARK                         _______ _______ _______ _____ _____    ______ ____
ROOT
ATOM      1  C   UNL     1       2.095   8.349  18.486  0.00  0.00    +0.000 A 
ATOM      2  C   UNL     1       1.279   9.358  17.954  0.00  0.00    +0.000 A 
ATOM      3  C   UNL     1       0.345  10.017  18.757  0.00  0.00    +0.000 A 
ATOM      4  C   UNL     1       0.186   9.661  20.095  0.00  0.00    +0.000 A 
ATOM      5  C   UNL     1       1.014   8.680  20.645  0.00  0.00    +0.000 A 
ATOM      6  C   UNL     1       1.966   8.031  19.844  0.00  0.00    +0.000 A 
ENDROOT
BRANCH   1   7
ATOM      7  C   UNL     1       3.073   7.602  17.598  0.00  0.00    +0.000 C 
BRANCH   7  12
ATOM      8  C   UNL     1       3.255   3.860  18.365  0.00  0.00    +0.000 C 
ATOM      9  C   UNL     1       4.712   3.639  17.895  0.00  0.00    +0.000 C 
ATOM     10  C   UNL     1       5.605   4.821  18.254  0.00  0.00    +0.000 C 
ATOM     11  C   UNL     1       5.024   6.143  17.744  0.00  0.00    +0.000 C 
ATOM     12  N   UNL     1       3.635   6.364  18.178  0.00  0.00    +0.000 NA
ATOM     13  C   UNL     1       2.777   5.221  17.782  0.00  0.00    +0.000 C 
BRANCH   8  14
ATOM     14  C   UNL     1       3.135   3.901  19.923  0.00  0.00    +0.000 C 
BRANCH  14  16
ATOM     15  C   UNL     1       1.248   2.911  21.276  0.00  0.00    +0.000 C 
ATOM     16  C   UNL     1       1.716   4.110  20.464  0.00  0.00    +0.000 C 
ENDBRANCH  14  16
ENDBRANCH   8  14
BRANCH   8  17
ATOM     17  C   UNL     1       2.382   2.727  17.771  0.00  0.00    +0.000 C 
BRANCH  17  18
ATOM     18  O   UNL     1       2.745   1.446  18.270  0.00  0.00    +0.000 OA
ATOM     19  H   UNL     1       2.094   0.804  17.940  0.00  0.00    +0.000 HD
ENDBRANCH  17  18
ENDBRANCH   8  17
ENDBRANCH   7  12
ENDBRANCH   1   7
BRANCH   4  20
ATOM     20  O   UNL     1      -0.787  10.348  20.771  0.00  0.00    +0.000 OA
BRANCH  20  21
ATOM     21  C   UNL     1      -0.439  10.733  22.096  0.00  0.00    +0.000 C 
BRANCH  21  22
ATOM     22  C   UNL     1      -0.509  12.251  22.272  0.00  0.00    +0.000 C 
ATOM     23  O   UNL     1       0.410  12.971  21.870  0.00  0.00    +0.000 OA
ATOM     24  N   UNL     1      -1.653  12.791  22.821  0.00  0.00    +0.000 N 
ATOM     25  C   UNL     1      -2.792  12.086  23.374  0.00  0.00    +0.000 C 
ATOM     26  C   UNL     1      -3.930  13.073  23.174  0.00  0.00    +0.000 C 
ATOM     27  C   UNL     1      -3.267  14.431  23.381  0.00  0.00    +0.000 C 
ATOM     28  C   UNL     1      -1.823  14.228  22.933  0.00  0.00    +0.000 C 
ENDBRANCH  21  22
ENDBRANCH  20  21
ENDBRANCH   4  20
TORSDOF 9
ENDMDL
