MODEL 1
REMARK VINA RESULT:      -7.6      0.000      0.000
REMARK  Name = 
REMARK  6 active torsions:
REMARK  status: ('A' for Active; 'I' for Inactive)
REMARK    1  A    between atoms: N_1  and  C_2
REMARK    2  A    between atoms: C_2  and  N_4
REMARK    3  A    between atoms: N_4  and  N_5
REMARK    4  A    between atoms: C_6  and  C_7
REMARK    5  A    between atoms: C_6  and  C_16
REMARK    6  A    between atoms: C_8  and  C_9
REMARK                            x       y       z     vdW  Elec       q    Type
REMARK                         _______ _______ _______ _____ _____    ______ ____
ROOT
ATOM      1  N   UNL     1       2.322   7.493  19.641  0.00  0.00    +0.000 NA
ATOM      2  C   UNL     1       2.627   6.273  19.284  0.00  0.00    +0.000 C 
ENDROOT
BRANCH   2   3
ATOM      3  C   UNL     1       2.125   4.994  19.893  0.00  0.00    +0.000 A 
ATOM      4  C   UNL     1       1.284   4.135  19.170  0.00  0.00    +0.000 A 
ATOM      5  C   UNL     1       0.825   2.943  19.738  0.00  0.00    +0.000 A 
ATOM      6  C   UNL     1       1.243   2.574  21.013  0.00  0.00    +0.000 A 
ATOM      7  C   UNL     1       2.109   3.399  21.728  0.00  0.00    +0.000 A 
ATOM      8  C   UNL     1       2.538   4.611  21.178  0.00  0.00    +0.000 A 
ENDBRANCH   2   3
BRANCH   1   9
ATOM      9  N   UNL     1       1.640   7.706  20.800  0.00  0.00    +0.000 N 
ATOM     10  H   UNL     1       1.555   6.964  21.488  0.00  0.00    +0.000 HD
BRANCH   9  11
ATOM     11  C   UNL     1       1.006   8.895  21.035  0.00  0.00    +0.000 C 
ATOM     12  S   UNL     1       0.433   9.319  22.532  0.00  0.00    +0.000 S 
BRANCH  11  13
ATOM     13  N   UNL     1       0.830   9.684  19.949  0.00  0.00    +0.000 N 
ATOM     14  H   UNL     1       1.447   9.636  19.152  0.00  0.00    +0.000 HD
ATOM     15  H   UNL     1      -0.036  10.208  19.907  0.00  0.00    +0.000 HD
ENDBRANCH  11  13
ENDBRANCH   9  11
ENDBRANCH   1   9
BRANCH   2  16
ATOM     16  C   UNL     1       3.471   6.088  18.061  0.00  0.00    +0.000 C 
ATOM     17  C   UNL     1       4.496   5.222  18.065  0.00  0.00    +0.000 C 
BRANCH  17  18
ATOM     18  C   UNL     1       5.359   5.045  16.893  0.00  0.00    +0.000 A 
ATOM     19  C   UNL     1       4.815   4.399  15.772  0.00  0.00    +0.000 A 
ATOM     20  C   UNL     1       5.584   4.194  14.625  0.00  0.00    +0.000 A 
ATOM     21  C   UNL     1       6.905   4.632  14.582  0.00  0.00    +0.000 A 
ATOM     22  C   UNL     1       7.465   5.274  15.688  0.00  0.00    +0.000 A 
ATOM     23  C   UNL     1       6.695   5.478  16.842  0.00  0.00    +0.000 A 
ATOM     24 CL   UNL     1       7.449   6.268  18.182  0.00  0.00    +0.000 Cl
ENDBRANCH  17  18
ENDBRANCH   2  16
TORSDOF 6
ENDMDL
MODEL 2
REMARK VINA RESULT:      -7.6      4.606      7.346
REMARK  Name = 
REMARK  6 active torsions:
REMARK  status: ('A' for Active; 'I' for Inactive)
REMARK    1  A    between atoms: N_1  and  C_2
REMARK    2  A    between atoms: C_2  and  N_4
REMARK    3  A    between atoms: N_4  and  N_5
REMARK    4  A    between atoms: C_6  and  C_7
REMARK    5  A    between atoms: C_6  and  C_16
REMARK    6  A    between atoms: C_8  and  C_9
REMARK                            x       y       z     vdW  Elec       q    Type
REMARK                         _______ _______ _______ _____ _____    ______ ____
ROOT
ATOM      1  N   UNL     1       6.073   4.070  15.145  0.00  0.00    +0.000 NA
ATOM      2  C   UNL     1       5.922   4.399  16.400  0.00  0.00    +0.000 C 
ENDROOT
BRANCH   2   3
ATOM      3  C   UNL     1       6.720   5.406  17.180  0.00  0.00    +0.000 A 
ATOM      4  C   UNL     1       6.743   6.755  16.799  0.00  0.00    +0.000 A 
ATOM      5  C   UNL     1       7.483   7.689  17.531  0.00  0.00    +0.000 A 
ATOM      6  C   UNL     1       8.163   7.293  18.679  0.00  0.00    +0.000 A 
ATOM      7  C   UNL     1       8.117   5.963  19.091  0.00  0.00    +0.000 A 
ATOM      8  C   UNL     1       7.411   5.018  18.338  0.00  0.00    +0.000 A 
ENDBRANCH   2   3
BRANCH   1   9
ATOM      9  N   UNL     1       7.171   4.497  14.462  0.00  0.00    +0.000 N 
ATOM     10  H   UNL     1       7.994   4.814  14.966  0.00  0.00    +0.000 HD
BRANCH   9  11
ATOM     11  C   UNL     1       7.168   4.567  13.096  0.00  0.00    +0.000 C 
ATOM     12  S   UNL     1       6.355   3.475  12.150  0.00  0.00    +0.000 S 
BRANCH  11  13
ATOM     13  N   UNL     1       7.920   5.560  12.564  0.00  0.00    +0.000 N 
ATOM     14  H   UNL     1       8.792   5.848  12.982  0.00  0.00    +0.000 HD
ATOM     15  H   UNL     1       7.648   5.888  11.645  0.00  0.00    +0.000 HD
ENDBRANCH  11  13
ENDBRANCH   9  11
ENDBRANCH   1   9
BRANCH   2  16
ATOM     16  C   UNL     1       4.758   3.820  17.145  0.00  0.00    +0.000 C 
ATOM     17  C   UNL     1       3.831   4.622  17.690  0.00  0.00    +0.000 C 
BRANCH  17  18
ATOM     18  C   UNL     1       2.700   4.085  18.453  0.00  0.00    +0.000 A 
ATOM     19  C   UNL     1       2.238   2.802  18.119  0.00  0.00    +0.000 A 
ATOM     20  C   UNL     1       1.162   2.233  18.803  0.00  0.00    +0.000 A 
ATOM     21  C   UNL     1       0.534   2.937  19.827  0.00  0.00    +0.000 A 
ATOM     22  C   UNL     1       0.976   4.215  20.171  0.00  0.00    +0.000 A 
ATOM     23  C   UNL     1       2.056   4.790  19.483  0.00  0.00    +0.000 A 
ATOM     24 CL   UNL     1       2.549   6.380  19.947  0.00  0.00    +0.000 Cl
ENDBRANCH  17  18
ENDBRANCH   2  16
TORSDOF 6
ENDMDL
MODEL 3
REMARK VINA RESULT:      -7.6      0.091      1.057
REMARK  Name = 
REMARK  6 active torsions:
REMARK  status: ('A' for Active; 'I' for Inactive)
REMARK    1  A    between atoms: N_1  and  C_2
REMARK    2  A    between atoms: C_2  and  N_4
REMARK    3  A    between atoms: N_4  and  N_5
REMARK    4  A    between atoms: C_6  and  C_7
REMARK    5  A    between atoms: C_6  and  C_16
REMARK    6  A    between atoms: C_8  and  C_9
REMARK                            x       y       z     vdW  Elec       q    Type
REMARK                         _______ _______ _______ _____ _____    ______ ____
ROOT
ATOM      1  N   UNL     1       2.344   7.449  19.573  0.00  0.00    +0.000 NA
ATOM      2  C   UNL     1       2.659   6.230  19.223  0.00  0.00    +0.000 C 
ENDROOT
BRANCH   2   3
ATOM      3  C   UNL     1       2.182   4.951  19.850  0.00  0.00    +0.000 A 
ATOM      4  C   UNL     1       2.563   4.603  21.154  0.00  0.00    +0.000 A 
ATOM      5  C   UNL     1       2.112   3.415  21.736  0.00  0.00    +0.000 A 
ATOM      6  C   UNL     1       1.236   2.588  21.039  0.00  0.00    +0.000 A 
ATOM      7  C   UNL     1       0.819   2.939  19.757  0.00  0.00    +0.000 A 
ATOM      8  C   UNL     1       1.300   4.108  19.157  0.00  0.00    +0.000 A 
ENDBRANCH   2   3
BRANCH   1   9
ATOM      9  N   UNL     1       1.675   7.665  20.739  0.00  0.00    +0.000 N 
ATOM     10  H   UNL     1       1.622   6.933  21.441  0.00  0.00    +0.000 HD
BRANCH   9  11
ATOM     11  C   UNL     1       1.013   8.841  20.964  0.00  0.00    +0.000 C 
ATOM     12  S   UNL     1       0.542   9.322  22.479  0.00  0.00    +0.000 S 
BRANCH  11  13
ATOM     13  N   UNL     1       0.720   9.564  19.857  0.00  0.00    +0.000 N 
ATOM     14  H   UNL     1       0.528   9.122  18.971  0.00  0.00    +0.000 HD
ATOM     15  H   UNL     1       0.549  10.552  19.996  0.00  0.00    +0.000 HD
ENDBRANCH  11  13
ENDBRANCH   9  11
ENDBRANCH   1   9
BRANCH   2  16
ATOM     16  C   UNL     1       3.488   6.044  17.989  0.00  0.00    +0.000 C 
ATOM     17  C   UNL     1       4.540   5.212  17.995  0.00  0.00    +0.000 C 
BRANCH  17  18
ATOM     18  C   UNL     1       5.389   5.036  16.812  0.00  0.00    +0.000 A 
ATOM     19  C   UNL     1       4.822   4.418  15.687  0.00  0.00    +0.000 A 
ATOM     20  C   UNL     1       5.577   4.216  14.530  0.00  0.00    +0.000 A 
ATOM     21  C   UNL     1       6.906   4.628  14.481  0.00  0.00    +0.000 A 
ATOM     22  C   UNL     1       7.489   5.241  15.591  0.00  0.00    +0.000 A 
ATOM     23  C   UNL     1       6.733   5.442  16.756  0.00  0.00    +0.000 A 
ATOM     24 CL   UNL     1       7.515   6.196  18.101  0.00  0.00    +0.000 Cl
ENDBRANCH  17  18
ENDBRANCH   2  16
TORSDOF 6
ENDMDL
MODEL 4
REMARK VINA RESULT:      -7.5      4.395      7.398
REMARK  Name = 
REMARK  6 active torsions:
REMARK  status: ('A' for Active; 'I' for Inactive)
REMARK    1  A    between atoms: N_1  and  C_2
REMARK    2  A    between atoms: C_2  and  N_4
REMARK    3  A    between atoms: N_4  and  N_5
REMARK    4  A    between atoms: C_6  and  C_7
REMARK    5  A    between atoms: C_6  and  C_16
REMARK    6  A    between atoms: C_8  and  C_9
REMARK                            x       y       z     vdW  Elec       q    Type
REMARK                         _______ _______ _______ _____ _____    ______ ____
ROOT
ATOM      1  N   UNL     1       6.085   4.290  16.344  0.00  0.00    +0.000 NA
ATOM      2  C   UNL     1       5.999   5.044  17.408  0.00  0.00    +0.000 C 
ENDROOT
BRANCH   2   3
ATOM      3  C   UNL     1       6.878   6.207  17.774  0.00  0.00    +0.000 A 
ATOM      4  C   UNL     1       6.777   7.428  17.091  0.00  0.00    +0.000 A 
ATOM      5  C   UNL     1       7.592   8.508  17.438  0.00  0.00    +0.000 A 
ATOM      6  C   UNL     1       8.480   8.396  18.505  0.00  0.00    +0.000 A 
ATOM      7  C   UNL     1       8.564   7.201  19.217  0.00  0.00    +0.000 A 
ATOM      8  C   UNL     1       7.777   6.105  18.846  0.00  0.00    +0.000 A 
ENDBRANCH   2   3
BRANCH   1   9
ATOM      9  N   UNL     1       7.178   4.383  15.537  0.00  0.00    +0.000 N 
ATOM     10  H   UNL     1       8.111   4.327  15.933  0.00  0.00    +0.000 HD
BRANCH   9  11
ATOM     11  C   UNL     1       7.045   4.616  14.196  0.00  0.00    +0.000 C 
ATOM     12  S   UNL     1       5.983   3.769  13.246  0.00  0.00    +0.000 S 
BRANCH  11  13
ATOM     13  N   UNL     1       7.880   5.551  13.683  0.00  0.00    +0.000 N 
ATOM     14  H   UNL     1       7.879   6.503  14.018  0.00  0.00    +0.000 HD
ATOM     15  H   UNL     1       8.607   5.216  13.064  0.00  0.00    +0.000 HD
ENDBRANCH  11  13
ENDBRANCH   9  11
ENDBRANCH   1   9
BRANCH   2  16
ATOM     16  C   UNL     1       4.834   4.835  18.327  0.00  0.00    +0.000 C 
ATOM     17  C   UNL     1       4.370   3.599  18.567  0.00  0.00    +0.000 C 
BRANCH  17  18
ATOM     18  C   UNL     1       3.211   3.367  19.435  0.00  0.00    +0.000 A 
ATOM     19  C   UNL     1       3.442   2.781  20.690  0.00  0.00    +0.000 A 
ATOM     20  C   UNL     1       2.382   2.529  21.563  0.00  0.00    +0.000 A 
ATOM     21  C   UNL     1       1.080   2.858  21.196  0.00  0.00    +0.000 A 
ATOM     22  C   UNL     1       0.830   3.438  19.951  0.00  0.00    +0.000 A 
ATOM     23  C   UNL     1       1.894   3.689  19.071  0.00  0.00    +0.000 A 
ATOM     24 CL   UNL     1       1.518   4.398  17.539  0.00  0.00    +0.000 Cl
ENDBRANCH  17  18
ENDBRANCH   2  16
TORSDOF 6
ENDMDL
MODEL 5
REMARK VINA RESULT:      -7.4      4.391      7.458
REMARK  Name = 
REMARK  6 active torsions:
REMARK  status: ('A' for Active; 'I' for Inactive)
REMARK    1  A    between atoms: N_1  and  C_2
REMARK    2  A    between atoms: C_2  and  N_4
REMARK    3  A    between atoms: N_4  and  N_5
REMARK    4  A    between atoms: C_6  and  C_7
REMARK    5  A    between atoms: C_6  and  C_16
REMARK    6  A    between atoms: C_8  and  C_9
REMARK                            x       y       z     vdW  Elec       q    Type
REMARK                         _______ _______ _______ _____ _____    ______ ____
ROOT
ATOM      1  N   UNL     1       6.277   4.247  16.596  0.00  0.00    +0.000 NA
ATOM      2  C   UNL     1       6.149   5.049  17.620  0.00  0.00    +0.000 C 
ENDROOT
BRANCH   2   3
ATOM      3  C   UNL     1       6.913   6.315  17.886  0.00  0.00    +0.000 A 
ATOM      4  C   UNL     1       7.928   6.353  18.853  0.00  0.00    +0.000 A 
ATOM      5  C   UNL     1       8.640   7.532  19.093  0.00  0.00    +0.000 A 
ATOM      6  C   UNL     1       8.381   8.669  18.333  0.00  0.00    +0.000 A 
ATOM      7  C   UNL     1       7.402   8.635  17.342  0.00  0.00    +0.000 A 
ATOM      8  C   UNL     1       6.660   7.468  17.128  0.00  0.00    +0.000 A 
ENDBRANCH   2   3
BRANCH   1   9
ATOM      9  N   UNL     1       7.325   4.405  15.741  0.00  0.00    +0.000 N 
ATOM     10  H   UNL     1       8.278   4.388  16.093  0.00  0.00    +0.000 HD
BRANCH   9  11
ATOM     11  C   UNL     1       7.119   4.650  14.411  0.00  0.00    +0.000 C 
ATOM     12  S   UNL     1       5.958   3.861  13.530  0.00  0.00    +0.000 S 
BRANCH  11  13
ATOM     13  N   UNL     1       7.965   5.545  13.848  0.00  0.00    +0.000 N 
ATOM     14  H   UNL     1       8.285   6.360  14.349  0.00  0.00    +0.000 HD
ATOM     15  H   UNL     1       8.382   5.278  12.965  0.00  0.00    +0.000 HD
ENDBRANCH  11  13
ENDBRANCH   9  11
ENDBRANCH   1   9
BRANCH   2  16
ATOM     16  C   UNL     1       5.046   4.775  18.595  0.00  0.00    +0.000 C 
ATOM     17  C   UNL     1       4.302   3.664  18.488  0.00  0.00    +0.000 C 
BRANCH  17  18
ATOM     18  C   UNL     1       3.194   3.387  19.408  0.00  0.00    +0.000 A 
ATOM     19  C   UNL     1       3.503   2.796  20.643  0.00  0.00    +0.000 A 
ATOM     20  C   UNL     1       2.496   2.502  21.563  0.00  0.00    +0.000 A 
ATOM     21  C   UNL     1       1.168   2.793  21.263  0.00  0.00    +0.000 A 
ATOM     22  C   UNL     1       0.840   3.377  20.038  0.00  0.00    +0.000 A 
ATOM     23  C   UNL     1       1.851   3.671  19.110  0.00  0.00    +0.000 A 
ATOM     24 CL   UNL     1       1.380   4.382  17.607  0.00  0.00    +0.000 Cl
ENDBRANCH  17  18
ENDBRANCH   2  16
TORSDOF 6
ENDMDL
MODEL 6
REMARK VINA RESULT:      -7.4      4.565      7.394
REMARK  Name = 
REMARK  6 active torsions:
REMARK  status: ('A' for Active; 'I' for Inactive)
REMARK    1  A    between atoms: N_1  and  C_2
REMARK    2  A    between atoms: C_2  and  N_4
REMARK    3  A    between atoms: N_4  and  N_5
REMARK    4  A    between atoms: C_6  and  C_7
REMARK    5  A    between atoms: C_6  and  C_16
REMARK    6  A    between atoms: C_8  and  C_9
REMARK                            x       y       z     vdW  Elec       q    Type
REMARK                         _______ _______ _______ _____ _____    ______ ____
ROOT
ATOM      1  N   UNL     1       5.794   4.250  15.022  0.00  0.00    +0.000 NA
ATOM      2  C   UNL     1       5.700   4.496  16.302  0.00  0.00    +0.000 C 
ENDROOT
BRANCH   2   3
ATOM      3  C   UNL     1       6.538   5.446  17.111  0.00  0.00    +0.000 A 
ATOM      4  C   UNL     1       7.313   4.984  18.184  0.00  0.00    +0.000 A 
ATOM      5  C   UNL     1       8.096   5.870  18.931  0.00  0.00    +0.000 A 
ATOM      6  C   UNL     1       8.151   7.215  18.579  0.00  0.00    +0.000 A 
ATOM      7  C   UNL     1       7.416   7.681  17.491  0.00  0.00    +0.000 A 
ATOM      8  C   UNL     1       6.600   6.804  16.767  0.00  0.00    +0.000 A 
ENDBRANCH   2   3
BRANCH   1   9
ATOM      9  N   UNL     1       6.866   4.716  14.322  0.00  0.00    +0.000 N 
ATOM     10  H   UNL     1       7.567   5.287  14.783  0.00  0.00    +0.000 HD
BRANCH   9  11
ATOM     11  C   UNL     1       6.988   4.479  12.980  0.00  0.00    +0.000 C 
ATOM     12  S   UNL     1       6.170   3.258  12.213  0.00  0.00    +0.000 S 
BRANCH  11  13
ATOM     13  N   UNL     1       7.864   5.279  12.326  0.00  0.00    +0.000 N 
ATOM     14  H   UNL     1       8.662   5.684  12.792  0.00  0.00    +0.000 HD
ATOM     15  H   UNL     1       7.770   5.322  11.319  0.00  0.00    +0.000 HD
ENDBRANCH  11  13
ENDBRANCH   9  11
ENDBRANCH   1   9
BRANCH   2  16
ATOM     16  C   UNL     1       4.564   3.875  17.056  0.00  0.00    +0.000 C 
ATOM     17  C   UNL     1       3.659   4.644  17.679  0.00  0.00    +0.000 C 
BRANCH  17  18
ATOM     18  C   UNL     1       2.557   4.064  18.452  0.00  0.00    +0.000 A 
ATOM     19  C   UNL     1       2.083   2.800  18.068  0.00  0.00    +0.000 A 
ATOM     20  C   UNL     1       1.034   2.191  18.759  0.00  0.00    +0.000 A 
ATOM     21  C   UNL     1       0.444   2.837  19.842  0.00  0.00    +0.000 A 
ATOM     22  C   UNL     1       0.897   4.096  20.237  0.00  0.00    +0.000 A 
ATOM     23  C   UNL     1       1.950   4.710  19.542  0.00  0.00    +0.000 A 
ATOM     24 CL   UNL     1       2.459   6.275  20.073  0.00  0.00    +0.000 Cl
ENDBRANCH  17  18
ENDBRANCH   2  16
TORSDOF 6
ENDMDL
MODEL 7
REMARK VINA RESULT:      -7.4      3.616      6.342
REMARK  Name = 
REMARK  6 active torsions:
REMARK  status: ('A' for Active; 'I' for Inactive)
REMARK    1  A    between atoms: N_1  and  C_2
REMARK    2  A    between atoms: C_2  and  N_4
REMARK    3  A    between atoms: N_4  and  N_5
REMARK    4  A    between atoms: C_6  and  C_7
REMARK    5  A    between atoms: C_6  and  C_16
REMARK    6  A    between atoms: C_8  and  C_9
REMARK                            x       y       z     vdW  Elec       q    Type
REMARK                         _______ _______ _______ _____ _____    ______ ____
ROOT
ATOM      1  N   UNL     1       4.287   6.407  17.704  0.00  0.00    +0.000 NA
ATOM      2  C   UNL     1       3.068   6.394  18.175  0.00  0.00    +0.000 C 
ENDROOT
BRANCH   2   3
ATOM      3  C   UNL     1       2.340   5.230  18.786  0.00  0.00    +0.000 A 
ATOM      4  C   UNL     1       1.686   4.287  17.980  0.00  0.00    +0.000 A 
ATOM      5  C   UNL     1       1.015   3.203  18.553  0.00  0.00    +0.000 A 
ATOM      6  C   UNL     1       1.035   3.023  19.933  0.00  0.00    +0.000 A 
ATOM      7  C   UNL     1       1.712   3.931  20.744  0.00  0.00    +0.000 A 
ATOM      8  C   UNL     1       2.351   5.039  20.176  0.00  0.00    +0.000 A 
ENDBRANCH   2   3
BRANCH   1   9
ATOM      9  N   UNL     1       4.959   5.234  17.537  0.00  0.00    +0.000 N 
ATOM     10  H   UNL     1       4.718   4.612  16.772  0.00  0.00    +0.000 HD
BRANCH   9  11
ATOM     11  C   UNL     1       5.922   4.842  18.426  0.00  0.00    +0.000 C 
ATOM     12  S   UNL     1       7.324   5.697  18.654  0.00  0.00    +0.000 S 
BRANCH  11  13
ATOM     13  N   UNL     1       5.678   3.677  19.071  0.00  0.00    +0.000 N 
ATOM     14  H   UNL     1       4.815   3.169  18.941  0.00  0.00    +0.000 HD
ATOM     15  H   UNL     1       6.459   3.261  19.563  0.00  0.00    +0.000 HD
ENDBRANCH  11  13
ENDBRANCH   9  11
ENDBRANCH   1   9
BRANCH   2  16
ATOM     16  C   UNL     1       2.325   7.693  18.241  0.00  0.00    +0.000 C 
ATOM     17  C   UNL     1       1.856   8.151  19.411  0.00  0.00    +0.000 C 
BRANCH  17  18
ATOM     18  C   UNL     1       1.097   9.402  19.500  0.00  0.00    +0.000 A 
ATOM     19  C   UNL     1       1.406  10.421  18.586  0.00  0.00    +0.000 A 
ATOM     20  C   UNL     1       0.724  11.639  18.618  0.00  0.00    +0.000 A 
ATOM     21  C   UNL     1      -0.275  11.855  19.563  0.00  0.00    +0.000 A 
ATOM     22  C   UNL     1      -0.594  10.856  20.484  0.00  0.00    +0.000 A 
ATOM     23  C   UNL     1       0.092   9.632  20.455  0.00  0.00    +0.000 A 
ATOM     24 CL   UNL     1      -0.342   8.439  21.628  0.00  0.00    +0.000 Cl
ENDBRANCH  17  18
ENDBRANCH   2  16
TORSDOF 6
ENDMDL
MODEL 8
REMARK VINA RESULT:      -7.4      4.584      7.479
REMARK  Name = 
REMARK  6 active torsions:
REMARK  status: ('A' for Active; 'I' for Inactive)
REMARK    1  A    between atoms: N_1  and  C_2
REMARK    2  A    between atoms: C_2  and  N_4
REMARK    3  A    between atoms: N_4  and  N_5
REMARK    4  A    between atoms: C_6  and  C_7
REMARK    5  A    between atoms: C_6  and  C_16
REMARK    6  A    between atoms: C_8  and  C_9
REMARK                            x       y       z     vdW  Elec       q    Type
REMARK                         _______ _______ _______ _____ _____    ______ ____
ROOT
ATOM      1  N   UNL     1       6.115   4.301  15.384  0.00  0.00    +0.000 NA
ATOM      2  C   UNL     1       5.873   4.814  16.561  0.00  0.00    +0.000 C 
ENDROOT
BRANCH   2   3
ATOM      3  C   UNL     1       6.704   5.822  17.303  0.00  0.00    +0.000 A 
ATOM      4  C   UNL     1       7.527   5.431  18.369  0.00  0.00    +0.000 A 
ATOM      5  C   UNL     1       8.303   6.372  19.053  0.00  0.00    +0.000 A 
ATOM      6  C   UNL     1       8.303   7.702  18.645  0.00  0.00    +0.000 A 
ATOM      7  C   UNL     1       7.520   8.098  17.563  0.00  0.00    +0.000 A 
ATOM      8  C   UNL     1       6.712   7.167  16.902  0.00  0.00    +0.000 A 
ENDBRANCH   2   3
BRANCH   1   9
ATOM      9  N   UNL     1       7.325   4.505  14.794  0.00  0.00    +0.000 N 
ATOM     10  H   UNL     1       8.171   4.520  15.355  0.00  0.00    +0.000 HD
BRANCH   9  11
ATOM     11  C   UNL     1       7.422   4.754  13.452  0.00  0.00    +0.000 C 
ATOM     12  S   UNL     1       6.646   3.829  12.316  0.00  0.00    +0.000 S 
BRANCH  11  13
ATOM     13  N   UNL     1       8.238   5.779  13.109  0.00  0.00    +0.000 N 
ATOM     14  H   UNL     1       8.836   5.732  12.298  0.00  0.00    +0.000 HD
ATOM     15  H   UNL     1       8.104   6.649  13.609  0.00  0.00    +0.000 HD
ENDBRANCH  11  13
ENDBRANCH   9  11
ENDBRANCH   1   9
BRANCH   2  16
ATOM     16  C   UNL     1       4.572   4.476  17.222  0.00  0.00    +0.000 C 
ATOM     17  C   UNL     1       4.510   4.294  18.550  0.00  0.00    +0.000 C 
BRANCH  17  18
ATOM     18  C   UNL     1       3.258   3.929  19.220  0.00  0.00    +0.000 A 
ATOM     19  C   UNL     1       2.552   4.946  19.882  0.00  0.00    +0.000 A 
ATOM     20  C   UNL     1       1.354   4.666  20.543  0.00  0.00    +0.000 A 
ATOM     21  C   UNL     1       0.847   3.370  20.552  0.00  0.00    +0.000 A 
ATOM     22  C   UNL     1       1.536   2.345  19.902  0.00  0.00    +0.000 A 
ATOM     23  C   UNL     1       2.741   2.623  19.239  0.00  0.00    +0.000 A 
ATOM     24 CL   UNL     1       3.554   1.309  18.463  0.00  0.00    +0.000 Cl
ENDBRANCH  17  18
ENDBRANCH   2  16
TORSDOF 6
ENDMDL
MODEL 9
REMARK VINA RESULT:      -7.4      3.520      6.353
REMARK  Name = 
REMARK  6 active torsions:
REMARK  status: ('A' for Active; 'I' for Inactive)
REMARK    1  A    between atoms: N_1  and  C_2
REMARK    2  A    between atoms: C_2  and  N_4
REMARK    3  A    between atoms: N_4  and  N_5
REMARK    4  A    between atoms: C_6  and  C_7
REMARK    5  A    between atoms: C_6  and  C_16
REMARK    6  A    between atoms: C_8  and  C_9
REMARK                            x       y       z     vdW  Elec       q    Type
REMARK                         _______ _______ _______ _____ _____    ______ ____
ROOT
ATOM      1  N   UNL     1       4.220   6.368  17.794  0.00  0.00    +0.000 NA
ATOM      2  C   UNL     1       3.001   6.289  18.259  0.00  0.00    +0.000 C 
ENDROOT
BRANCH   2   3
ATOM      3  C   UNL     1       2.325   5.078  18.838  0.00  0.00    +0.000 A 
ATOM      4  C   UNL     1       2.288   4.868  20.224  0.00  0.00    +0.000 A 
ATOM      5  C   UNL     1       1.652   3.744  20.758  0.00  0.00    +0.000 A 
ATOM      6  C   UNL     1       1.003   2.846  19.916  0.00  0.00    +0.000 A 
ATOM      7  C   UNL     1       0.999   3.062  18.539  0.00  0.00    +0.000 A 
ATOM      8  C   UNL     1       1.669   4.165  17.999  0.00  0.00    +0.000 A 
ENDBRANCH   2   3
BRANCH   1   9
ATOM      9  N   UNL     1       4.944   5.231  17.599  0.00  0.00    +0.000 N 
ATOM     10  H   UNL     1       4.750   4.633  16.802  0.00  0.00    +0.000 HD
BRANCH   9  11
ATOM     11  C   UNL     1       5.897   4.840  18.499  0.00  0.00    +0.000 C 
ATOM     12  S   UNL     1       7.282   5.712  18.764  0.00  0.00    +0.000 S 
BRANCH  11  13
ATOM     13  N   UNL     1       5.658   3.663  19.124  0.00  0.00    +0.000 N 
ATOM     14  H   UNL     1       5.831   3.541  20.110  0.00  0.00    +0.000 HD
ATOM     15  H   UNL     1       5.153   2.964  18.592  0.00  0.00    +0.000 HD
ENDBRANCH  11  13
ENDBRANCH   9  11
ENDBRANCH   1   9
BRANCH   2  16
ATOM     16  C   UNL     1       2.201   7.551  18.356  0.00  0.00    +0.000 C 
ATOM     17  C   UNL     1       1.892   8.071  19.554  0.00  0.00    +0.000 C 
BRANCH  17  18
ATOM     18  C   UNL     1       1.082   9.287  19.679  0.00  0.00    +0.000 A 
ATOM     19  C   UNL     1       0.655   9.913  18.498  0.00  0.00    +0.000 A 
ATOM     20  C   UNL     1      -0.116  11.076  18.546  0.00  0.00    +0.000 A 
ATOM     21  C   UNL     1      -0.470  11.629  19.774  0.00  0.00    +0.000 A 
ATOM     22  C   UNL     1      -0.052  11.024  20.960  0.00  0.00    +0.000 A 
ATOM     23  C   UNL     1       0.726   9.856  20.913  0.00  0.00    +0.000 A 
ATOM     24 CL   UNL     1       1.222   9.161  22.416  0.00  0.00    +0.000 Cl
ENDBRANCH  17  18
ENDBRANCH   2  16
TORSDOF 6
ENDMDL
