MODEL 1
REMARK VINA RESULT:      -7.7      0.000      0.000
REMARK  Name = 
REMARK  6 active torsions:
REMARK  status: ('A' for Active; 'I' for Inactive)
REMARK    1  A    between atoms: C_1  and  C_2
REMARK    2  A    between atoms: C_3  and  C_4
REMARK    3  A    between atoms: C_11  and  C_12
REMARK    4  A    between atoms: C_14  and  C_15
REMARK    5  A    between atoms: C_15  and  O_17
REMARK    6  A    between atoms: N_20  and  C_21
REMARK                            x       y       z     vdW  Elec       q    Type
REMARK                         _______ _______ _______ _____ _____    ______ ____
ROOT
ATOM      1  C   UNK     1       1.275   5.301  19.933  0.00  0.00    +0.000 C 
ATOM      2  C   UNK     1       2.324   5.933  19.080  0.00  0.00    +0.000 A 
ATOM      3  C   UNK     1       2.534   7.262  18.730  0.00  0.00    +0.000 A 
ATOM      4  N   UNK     1       3.657   7.385  17.946  0.00  0.00    +0.000 NA
ATOM      5  C   UNK     1       4.170   6.172  17.827  0.00  0.00    +0.000 A 
ATOM      6  N   UNK     1       3.409   5.233  18.532  0.00  0.00    +0.000 N 
ENDROOT
BRANCH   3   7
ATOM      7  C   UNK     1       1.712   8.417  19.098  0.00  0.00    +0.000 A 
ATOM      8  C   UNK     1       1.329   8.660  20.426  0.00  0.00    +0.000 A 
ATOM      9  C   UNK     1       0.483   9.722  20.757  0.00  0.00    +0.000 A 
ATOM     10  C   UNK     1       0.056  10.602  19.767  0.00  0.00    +0.000 A 
ATOM     11  C   UNK     1       0.478  10.418  18.452  0.00  0.00    +0.000 A 
ATOM     12  C   UNK     1       1.298   9.330  18.119  0.00  0.00    +0.000 A 
ENDBRANCH   3   7
BRANCH   6  13
ATOM     13  C   UNK     1       3.695   3.836  18.671  0.00  0.00    +0.000 A 
ATOM     14  C   UNK     1       3.248   2.917  17.710  0.00  0.00    +0.000 A 
ATOM     15  C   UNK     1       3.350   1.543  17.935  0.00  0.00    +0.000 A 
ATOM     16  C   UNK     1       3.982   1.074  19.081  0.00  0.00    +0.000 A 
ATOM     17  C   UNK     1       4.508   1.977  20.000  0.00  0.00    +0.000 A 
ATOM     18  C   UNK     1       4.349   3.350  19.807  0.00  0.00    +0.000 A 
ENDBRANCH   6  13
BRANCH   5  19
ATOM     19  C   UNK     1       5.351   5.869  17.047  0.00  0.00    +0.000 A 
ATOM     20  N   UNK     1       5.334   5.677  15.737  0.00  0.00    +0.000 NA
ATOM     21  C   UNK     1       6.540   5.100  15.318  0.00  0.00    +0.000 A 
ATOM     22  C   UNK     1       7.488   4.977  16.312  0.00  0.00    +0.000 A 
ATOM     23  S   UNK     1       6.871   5.568  17.798  0.00  0.00    +0.000 S 
BRANCH  21  24
ATOM     24  C   UNK     1       6.708   4.624  13.937  0.00  0.00    +0.000 C 
ATOM     25  O   UNK     1       6.066   3.703  13.446  0.00  0.00    +0.000 OA
BRANCH  24  26
ATOM     26  O   UNK     1       7.620   5.343  13.242  0.00  0.00    +0.000 OA
ATOM     27  H   UNK     1       8.443   5.430  13.785  0.00  0.00    +0.000 HD
ENDBRANCH  24  26
ENDBRANCH  21  24
ENDBRANCH   5  19
TORSDOF 5
ENDMDL
MODEL 2
REMARK VINA RESULT:      -7.6      0.334      1.178
REMARK  Name = 
REMARK  6 active torsions:
REMARK  status: ('A' for Active; 'I' for Inactive)
REMARK    1  A    between atoms: C_1  and  C_2
REMARK    2  A    between atoms: C_3  and  C_4
REMARK    3  A    between atoms: C_11  and  C_12
REMARK    4  A    between atoms: C_14  and  C_15
REMARK    5  A    between atoms: C_15  and  O_17
REMARK    6  A    between atoms: N_20  and  C_21
REMARK                            x       y       z     vdW  Elec       q    Type
REMARK                         _______ _______ _______ _____ _____    ______ ____
ROOT
ATOM      1  C   UNK     1       1.068   5.279  20.062  0.00  0.00    +0.000 C 
ATOM      2  C   UNK     1       2.189   5.884  19.284  0.00  0.00    +0.000 A 
ATOM      3  C   UNK     1       2.471   7.209  18.974  0.00  0.00    +0.000 A 
ATOM      4  N   UNK     1       3.643   7.301  18.259  0.00  0.00    +0.000 NA
ATOM      5  C   UNK     1       4.114   6.071  18.146  0.00  0.00    +0.000 A 
ATOM      6  N   UNK     1       3.277   5.150  18.785  0.00  0.00    +0.000 N 
ENDROOT
BRANCH   3   7
ATOM      7  C   UNK     1       1.676   8.389  19.317  0.00  0.00    +0.000 A 
ATOM      8  C   UNK     1       1.263   8.647  20.633  0.00  0.00    +0.000 A 
ATOM      9  C   UNK     1       0.440   9.736  20.938  0.00  0.00    +0.000 A 
ATOM     10  C   UNK     1       0.069  10.626  19.935  0.00  0.00    +0.000 A 
ATOM     11  C   UNK     1       0.523  10.426  18.633  0.00  0.00    +0.000 A 
ATOM     12  C   UNK     1       1.318   9.312  18.325  0.00  0.00    +0.000 A 
ENDBRANCH   3   7
BRANCH   6  13
ATOM     13  C   UNK     1       3.499   3.740  18.913  0.00  0.00    +0.000 A 
ATOM     14  C   UNK     1       4.148   3.220  20.043  0.00  0.00    +0.000 A 
ATOM     15  C   UNK     1       4.543   1.883  20.086  0.00  0.00    +0.000 A 
ATOM     16  C   UNK     1       4.213   1.029  19.039  0.00  0.00    +0.000 A 
ATOM     17  C   UNK     1       3.492   1.513  17.951  0.00  0.00    +0.000 A 
ATOM     18  C   UNK     1       3.154   2.866  17.878  0.00  0.00    +0.000 A 
ENDBRANCH   6  13
BRANCH   5  19
ATOM     19  C   UNK     1       5.327   5.734  17.429  0.00  0.00    +0.000 A 
ATOM     20  N   UNK     1       5.399   5.653  16.110  0.00  0.00    +0.000 NA
ATOM     21  C   UNK     1       6.586   5.012  15.731  0.00  0.00    +0.000 A 
ATOM     22  C   UNK     1       7.440   4.728  16.776  0.00  0.00    +0.000 A 
ATOM     23  S   UNK     1       6.753   5.245  18.259  0.00  0.00    +0.000 S 
BRANCH  21  24
ATOM     24  C   UNK     1       6.826   4.640  14.329  0.00  0.00    +0.000 C 
ATOM     25  O   UNK     1       7.478   5.315  13.541  0.00  0.00    +0.000 OA
BRANCH  24  26
ATOM     26  O   UNK     1       6.284   3.443  14.005  0.00  0.00    +0.000 OA
ATOM     27  H   UNK     1       5.631   3.185  14.702  0.00  0.00    +0.000 HD
ENDBRANCH  24  26
ENDBRANCH  21  24
ENDBRANCH   5  19
TORSDOF 5
ENDMDL
MODEL 3
REMARK VINA RESULT:      -7.5      0.609      1.154
REMARK  Name = 
REMARK  6 active torsions:
REMARK  status: ('A' for Active; 'I' for Inactive)
REMARK    1  A    between atoms: C_1  and  C_2
REMARK    2  A    between atoms: C_3  and  C_4
REMARK    3  A    between atoms: C_11  and  C_12
REMARK    4  A    between atoms: C_14  and  C_15
REMARK    5  A    between atoms: C_15  and  O_17
REMARK    6  A    between atoms: N_20  and  C_21
REMARK                            x       y       z     vdW  Elec       q    Type
REMARK                         _______ _______ _______ _____ _____    ______ ____
ROOT
ATOM      1  C   UNK     1       1.127   5.230  20.307  0.00  0.00    +0.000 C 
ATOM      2  C   UNK     1       2.144   5.974  19.507  0.00  0.00    +0.000 A 
ATOM      3  C   UNK     1       2.352   7.338  19.341  0.00  0.00    +0.000 A 
ATOM      4  N   UNK     1       3.442   7.567  18.532  0.00  0.00    +0.000 NA
ATOM      5  C   UNK     1       3.936   6.382  18.220  0.00  0.00    +0.000 A 
ATOM      6  N   UNK     1       3.197   5.354  18.816  0.00  0.00    +0.000 N 
ENDROOT
BRANCH   3   7
ATOM      7  C   UNK     1       1.560   8.431  19.906  0.00  0.00    +0.000 A 
ATOM      8  C   UNK     1       1.027   9.452  19.104  0.00  0.00    +0.000 A 
ATOM      9  C   UNK     1       0.336  10.531  19.662  0.00  0.00    +0.000 A 
ATOM     10  C   UNK     1       0.110  10.574  21.034  0.00  0.00    +0.000 A 
ATOM     11  C   UNK     1       0.572   9.537  21.842  0.00  0.00    +0.000 A 
ATOM     12  C   UNK     1       1.296   8.474  21.282  0.00  0.00    +0.000 A 
ENDBRANCH   3   7
BRANCH   6  13
ATOM     13  C   UNK     1       3.475   3.951  18.743  0.00  0.00    +0.000 A 
ATOM     14  C   UNK     1       2.880   3.157  17.750  0.00  0.00    +0.000 A 
ATOM     15  C   UNK     1       2.988   1.766  17.790  0.00  0.00    +0.000 A 
ATOM     16  C   UNK     1       3.767   1.159  18.768  0.00  0.00    +0.000 A 
ATOM     17  C   UNK     1       4.434   1.942  19.706  0.00  0.00    +0.000 A 
ATOM     18  C   UNK     1       4.274   3.329  19.707  0.00  0.00    +0.000 A 
ENDBRANCH   6  13
BRANCH   5  19
ATOM     19  C   UNK     1       5.079   6.188  17.352  0.00  0.00    +0.000 A 
ATOM     20  N   UNK     1       4.981   5.835  16.080  0.00  0.00    +0.000 NA
ATOM     21  C   UNK     1       6.230   5.423  15.596  0.00  0.00    +0.000 A 
ATOM     22  C   UNK     1       7.269   5.587  16.489  0.00  0.00    +0.000 A 
ATOM     23  S   UNK     1       6.689   6.244  17.961  0.00  0.00    +0.000 S 
BRANCH  21  24
ATOM     24  C   UNK     1       6.358   4.815  14.263  0.00  0.00    +0.000 C 
ATOM     25  O   UNK     1       5.559   4.012  13.796  0.00  0.00    +0.000 OA
BRANCH  24  26
ATOM     26  O   UNK     1       7.435   5.270  13.581  0.00  0.00    +0.000 OA
ATOM     27  H   UNK     1       8.249   5.109  14.118  0.00  0.00    +0.000 HD
ENDBRANCH  24  26
ENDBRANCH  21  24
ENDBRANCH   5  19
TORSDOF 5
ENDMDL
MODEL 4
REMARK VINA RESULT:      -7.5      0.572      1.450
REMARK  Name = 
REMARK  6 active torsions:
REMARK  status: ('A' for Active; 'I' for Inactive)
REMARK    1  A    between atoms: C_1  and  C_2
REMARK    2  A    between atoms: C_3  and  C_4
REMARK    3  A    between atoms: C_11  and  C_12
REMARK    4  A    between atoms: C_14  and  C_15
REMARK    5  A    between atoms: C_15  and  O_17
REMARK    6  A    between atoms: N_20  and  C_21
REMARK                            x       y       z     vdW  Elec       q    Type
REMARK                         _______ _______ _______ _____ _____    ______ ____
ROOT
ATOM      1  C   UNK     1       1.047   5.142  20.268  0.00  0.00    +0.000 C 
ATOM      2  C   UNK     1       2.166   5.788  19.521  0.00  0.00    +0.000 A 
ATOM      3  C   UNK     1       2.451   7.128  19.289  0.00  0.00    +0.000 A 
ATOM      4  N   UNK     1       3.619   7.258  18.574  0.00  0.00    +0.000 NA
ATOM      5  C   UNK     1       4.084   6.036  18.384  0.00  0.00    +0.000 A 
ATOM      6  N   UNK     1       3.247   5.081  18.972  0.00  0.00    +0.000 N 
ENDROOT
BRANCH   3   7
ATOM      7  C   UNK     1       1.663   8.288  19.708  0.00  0.00    +0.000 A 
ATOM      8  C   UNK     1       1.263   9.280  18.799  0.00  0.00    +0.000 A 
ATOM      9  C   UNK     1       0.575  10.421  19.221  0.00  0.00    +0.000 A 
ATOM     10  C   UNK     1       0.217  10.558  20.559  0.00  0.00    +0.000 A 
ATOM     11  C   UNK     1       0.545   9.554  21.467  0.00  0.00    +0.000 A 
ATOM     12  C   UNK     1       1.267   8.428  21.045  0.00  0.00    +0.000 A 
ENDBRANCH   3   7
BRANCH   6  13
ATOM     13  C   UNK     1       3.465   3.666  19.014  0.00  0.00    +0.000 A 
ATOM     14  C   UNK     1       4.155   3.081  20.087  0.00  0.00    +0.000 A 
ATOM     15  C   UNK     1       4.542   1.741  20.041  0.00  0.00    +0.000 A 
ATOM     16  C   UNK     1       4.165   0.948  18.963  0.00  0.00    +0.000 A 
ATOM     17  C   UNK     1       3.405   1.495  17.933  0.00  0.00    +0.000 A 
ATOM     18  C   UNK     1       3.073   2.851  17.947  0.00  0.00    +0.000 A 
ENDBRANCH   6  13
BRANCH   5  19
ATOM     19  C   UNK     1       5.291   5.738  17.641  0.00  0.00    +0.000 A 
ATOM     20  N   UNK     1       5.336   5.654  16.321  0.00  0.00    +0.000 NA
ATOM     21  C   UNK     1       6.536   5.054  15.916  0.00  0.00    +0.000 A 
ATOM     22  C   UNK     1       7.423   4.804  16.943  0.00  0.00    +0.000 A 
ATOM     23  S   UNK     1       6.753   5.303  18.440  0.00  0.00    +0.000 S 
BRANCH  21  24
ATOM     24  C   UNK     1       6.756   4.683  14.511  0.00  0.00    +0.000 C 
ATOM     25  O   UNK     1       6.118   3.819  13.921  0.00  0.00    +0.000 OA
BRANCH  24  26
ATOM     26  O   UNK     1       7.715   5.431  13.916  0.00  0.00    +0.000 OA
ATOM     27  H   UNK     1       8.218   5.923  14.611  0.00  0.00    +0.000 HD
ENDBRANCH  24  26
ENDBRANCH  21  24
ENDBRANCH   5  19
TORSDOF 5
ENDMDL
MODEL 5
REMARK VINA RESULT:      -7.4      3.575      6.774
REMARK  Name = 
REMARK  6 active torsions:
REMARK  status: ('A' for Active; 'I' for Inactive)
REMARK    1  A    between atoms: C_1  and  C_2
REMARK    2  A    between atoms: C_3  and  C_4
REMARK    3  A    between atoms: C_11  and  C_12
REMARK    4  A    between atoms: C_14  and  C_15
REMARK    5  A    between atoms: C_15  and  O_17
REMARK    6  A    between atoms: N_20  and  C_21
REMARK                            x       y       z     vdW  Elec       q    Type
REMARK                         _______ _______ _______ _____ _____    ______ ____
ROOT
ATOM      1  C   UNK     1       4.367   2.617  17.416  0.00  0.00    +0.000 C 
ATOM      2  C   UNK     1       4.196   4.099  17.368  0.00  0.00    +0.000 A 
ATOM      3  C   UNK     1       4.683   5.043  16.472  0.00  0.00    +0.000 A 
ATOM      4  N   UNK     1       4.236   6.301  16.803  0.00  0.00    +0.000 NA
ATOM      5  C   UNK     1       3.456   6.159  17.861  0.00  0.00    +0.000 A 
ATOM      6  N   UNK     1       3.364   4.815  18.242  0.00  0.00    +0.000 N 
ENDROOT
BRANCH   3   7
ATOM      7  C   UNK     1       5.560   4.807  15.324  0.00  0.00    +0.000 A 
ATOM      8  C   UNK     1       6.865   5.320  15.271  0.00  0.00    +0.000 A 
ATOM      9  C   UNK     1       7.668   5.153  14.139  0.00  0.00    +0.000 A 
ATOM     10  C   UNK     1       7.198   4.410  13.060  0.00  0.00    +0.000 A 
ATOM     11  C   UNK     1       5.931   3.835  13.119  0.00  0.00    +0.000 A 
ATOM     12  C   UNK     1       5.115   4.036  14.242  0.00  0.00    +0.000 A 
ENDBRANCH   3   7
BRANCH   6  13
ATOM     13  C   UNK     1       2.567   4.284  19.307  0.00  0.00    +0.000 A 
ATOM     14  C   UNK     1       3.113   4.108  20.588  0.00  0.00    +0.000 A 
ATOM     15  C   UNK     1       2.411   3.414  21.574  0.00  0.00    +0.000 A 
ATOM     16  C   UNK     1       1.119   2.967  21.319  0.00  0.00    +0.000 A 
ATOM     17  C   UNK     1       0.533   3.212  20.081  0.00  0.00    +0.000 A 
ATOM     18  C   UNK     1       1.259   3.849  19.073  0.00  0.00    +0.000 A 
ENDBRANCH   6  13
BRANCH   5  19
ATOM     19  C   UNK     1       2.807   7.262  18.539  0.00  0.00    +0.000 A 
ATOM     20  N   UNK     1       2.453   7.230  19.815  0.00  0.00    +0.000 NA
ATOM     21  C   UNK     1       1.581   8.290  20.099  0.00  0.00    +0.000 A 
ATOM     22  C   UNK     1       1.390   9.167  19.052  0.00  0.00    +0.000 A 
ATOM     23  S   UNK     1       2.290   8.663  17.683  0.00  0.00    +0.000 S 
BRANCH  21  24
ATOM     24  C   UNK     1       0.904   8.378  21.401  0.00  0.00    +0.000 C 
ATOM     25  O   UNK     1      -0.287   8.146  21.572  0.00  0.00    +0.000 OA
BRANCH  24  26
ATOM     26  O   UNK     1       1.746   8.703  22.409  0.00  0.00    +0.000 OA
ATOM     27  H   UNK     1       1.216   8.974  23.199  0.00  0.00    +0.000 HD
ENDBRANCH  24  26
ENDBRANCH  21  24
ENDBRANCH   5  19
TORSDOF 5
ENDMDL
MODEL 6
REMARK VINA RESULT:      -6.9      2.742      4.634
REMARK  Name = 
REMARK  6 active torsions:
REMARK  status: ('A' for Active; 'I' for Inactive)
REMARK    1  A    between atoms: C_1  and  C_2
REMARK    2  A    between atoms: C_3  and  C_4
REMARK    3  A    between atoms: C_11  and  C_12
REMARK    4  A    between atoms: C_14  and  C_15
REMARK    5  A    between atoms: C_15  and  O_17
REMARK    6  A    between atoms: N_20  and  C_21
REMARK                            x       y       z     vdW  Elec       q    Type
REMARK                         _______ _______ _______ _____ _____    ______ ____
ROOT
ATOM      1  C   UNK     1       4.197   8.142  17.159  0.00  0.00    +0.000 C 
ATOM      2  C   UNK     1       3.606   7.034  17.966  0.00  0.00    +0.000 A 
ATOM      3  C   UNK     1       2.539   7.024  18.856  0.00  0.00    +0.000 A 
ATOM      4  N   UNK     1       2.326   5.755  19.344  0.00  0.00    +0.000 NA
ATOM      5  C   UNK     1       3.212   4.971  18.755  0.00  0.00    +0.000 A 
ATOM      6  N   UNK     1       4.015   5.695  17.867  0.00  0.00    +0.000 N 
ENDROOT
BRANCH   3   7
ATOM      7  C   UNK     1       1.718   8.163  19.269  0.00  0.00    +0.000 A 
ATOM      8  C   UNK     1       1.200   9.079  18.341  0.00  0.00    +0.000 A 
ATOM      9  C   UNK     1       0.481  10.205  18.752  0.00  0.00    +0.000 A 
ATOM     10  C   UNK     1       0.213  10.400  20.103  0.00  0.00    +0.000 A 
ATOM     11  C   UNK     1       0.660   9.469  21.037  0.00  0.00    +0.000 A 
ATOM     12  C   UNK     1       1.412   8.359  20.623  0.00  0.00    +0.000 A 
ENDBRANCH   3   7
BRANCH   6  13
ATOM     13  C   UNK     1       5.041   5.164  17.019  0.00  0.00    +0.000 A 
ATOM     14  C   UNK     1       6.357   5.031  17.488  0.00  0.00    +0.000 A 
ATOM     15  C   UNK     1       7.395   4.703  16.616  0.00  0.00    +0.000 A 
ATOM     16  C   UNK     1       7.117   4.417  15.284  0.00  0.00    +0.000 A 
ATOM     17  C   UNK     1       5.803   4.461  14.826  0.00  0.00    +0.000 A 
ATOM     18  C   UNK     1       4.773   4.851  15.683  0.00  0.00    +0.000 A 
ENDBRANCH   6  13
BRANCH   5  19
ATOM     19  C   UNK     1       3.338   3.553  19.024  0.00  0.00    +0.000 A 
ATOM     20  N   UNK     1       4.116   3.054  19.972  0.00  0.00    +0.000 NA
ATOM     21  C   UNK     1       4.274   1.674  19.789  0.00  0.00    +0.000 A 
ATOM     22  C   UNK     1       3.514   1.144  18.768  0.00  0.00    +0.000 A 
ATOM     23  S   UNK     1       2.600   2.377  18.006  0.00  0.00    +0.000 S 
BRANCH  21  24
ATOM     24  C   UNK     1       5.232   0.912  20.604  0.00  0.00    +0.000 C 
ATOM     25  O   UNK     1       5.600   1.248  21.724  0.00  0.00    +0.000 OA
BRANCH  24  26
ATOM     26  O   UNK     1       5.636  -0.232  20.004  0.00  0.00    +0.000 OA
ATOM     27  H   UNK     1       5.360  -0.213  19.054  0.00  0.00    +0.000 HD
ENDBRANCH  24  26
ENDBRANCH  21  24
ENDBRANCH   5  19
TORSDOF 5
ENDMDL
MODEL 7
REMARK VINA RESULT:      -6.9      2.906      4.699
REMARK  Name = 
REMARK  6 active torsions:
REMARK  status: ('A' for Active; 'I' for Inactive)
REMARK    1  A    between atoms: C_1  and  C_2
REMARK    2  A    between atoms: C_3  and  C_4
REMARK    3  A    between atoms: C_11  and  C_12
REMARK    4  A    between atoms: C_14  and  C_15
REMARK    5  A    between atoms: C_15  and  O_17
REMARK    6  A    between atoms: N_20  and  C_21
REMARK                            x       y       z     vdW  Elec       q    Type
REMARK                         _______ _______ _______ _____ _____    ______ ____
ROOT
ATOM      1  C   UNK     1       2.474   9.005  18.090  0.00  0.00    +0.000 C 
ATOM      2  C   UNK     1       2.146   7.955  19.099  0.00  0.00    +0.000 A 
ATOM      3  C   UNK     1       1.339   7.999  20.229  0.00  0.00    +0.000 A 
ATOM      4  N   UNK     1       1.303   6.770  20.847  0.00  0.00    +0.000 NA
ATOM      5  C   UNK     1       2.040   5.956  20.112  0.00  0.00    +0.000 A 
ATOM      6  N   UNK     1       2.566   6.620  18.998  0.00  0.00    +0.000 N 
ENDROOT
BRANCH   3   7
ATOM      7  C   UNK     1       0.608   9.154  20.753  0.00  0.00    +0.000 A 
ATOM      8  C   UNK     1       0.063  10.131  19.907  0.00  0.00    +0.000 A 
ATOM      9  C   UNK     1      -0.567  11.269  20.420  0.00  0.00    +0.000 A 
ATOM     10  C   UNK     1      -0.719  11.416  21.795  0.00  0.00    +0.000 A 
ATOM     11  C   UNK     1      -0.245  10.426  22.651  0.00  0.00    +0.000 A 
ATOM     12  C   UNK     1       0.419   9.303  22.134  0.00  0.00    +0.000 A 
ENDBRANCH   3   7
BRANCH   6  13
ATOM     13  C   UNK     1       3.363   6.040  17.958  0.00  0.00    +0.000 A 
ATOM     14  C   UNK     1       3.054   4.771  17.446  0.00  0.00    +0.000 A 
ATOM     15  C   UNK     1       3.931   4.118  16.579  0.00  0.00    +0.000 A 
ATOM     16  C   UNK     1       5.083   4.764  16.144  0.00  0.00    +0.000 A 
ATOM     17  C   UNK     1       5.357   6.058  16.577  0.00  0.00    +0.000 A 
ATOM     18  C   UNK     1       4.513   6.686  17.494  0.00  0.00    +0.000 A 
ENDBRANCH   6  13
BRANCH   5  19
ATOM     19  C   UNK     1       2.281   4.567  20.443  0.00  0.00    +0.000 A 
ATOM     20  N   UNK     1       3.490   4.030  20.511  0.00  0.00    +0.000 NA
ATOM     21  C   UNK     1       3.396   2.632  20.536  0.00  0.00    +0.000 A 
ATOM     22  C   UNK     1       2.105   2.149  20.604  0.00  0.00    +0.000 A 
ATOM     23  S   UNK     1       0.986   3.447  20.617  0.00  0.00    +0.000 S 
BRANCH  21  24
ATOM     24  C   UNK     1       4.599   1.794  20.433  0.00  0.00    +0.000 C 
ATOM     25  O   UNK     1       5.407   1.639  21.342  0.00  0.00    +0.000 OA
BRANCH  24  26
ATOM     26  O   UNK     1       4.703   1.172  19.236  0.00  0.00    +0.000 OA
ATOM     27  H   UNK     1       4.328   1.758  18.533  0.00  0.00    +0.000 HD
ENDBRANCH  24  26
ENDBRANCH  21  24
ENDBRANCH   5  19
TORSDOF 5
ENDMDL
MODEL 8
REMARK VINA RESULT:      -6.9      2.712      4.364
REMARK  Name = 
REMARK  6 active torsions:
REMARK  status: ('A' for Active; 'I' for Inactive)
REMARK    1  A    between atoms: C_1  and  C_2
REMARK    2  A    between atoms: C_3  and  C_4
REMARK    3  A    between atoms: C_11  and  C_12
REMARK    4  A    between atoms: C_14  and  C_15
REMARK    5  A    between atoms: C_15  and  O_17
REMARK    6  A    between atoms: N_20  and  C_21
REMARK                            x       y       z     vdW  Elec       q    Type
REMARK                         _______ _______ _______ _____ _____    ______ ____
ROOT
ATOM      1  C   UNK     1       4.154   8.392  17.345  0.00  0.00    +0.000 C 
ATOM      2  C   UNK     1       3.549   7.237  18.073  0.00  0.00    +0.000 A 
ATOM      3  C   UNK     1       2.449   7.170  18.920  0.00  0.00    +0.000 A 
ATOM      4  N   UNK     1       2.236   5.876  19.336  0.00  0.00    +0.000 NA
ATOM      5  C   UNK     1       3.154   5.133  18.744  0.00  0.00    +0.000 A 
ATOM      6  N   UNK     1       3.979   5.910  17.924  0.00  0.00    +0.000 N 
ENDROOT
BRANCH   3   7
ATOM      7  C   UNK     1       1.598   8.278  19.358  0.00  0.00    +0.000 A 
ATOM      8  C   UNK     1       1.267   8.469  20.708  0.00  0.00    +0.000 A 
ATOM      9  C   UNK     1       0.394   9.485  21.107  0.00  0.00    +0.000 A 
ATOM     10  C   UNK     1      -0.115  10.371  20.163  0.00  0.00    +0.000 A 
ATOM     11  C   UNK     1       0.252  10.241  18.826  0.00  0.00    +0.000 A 
ATOM     12  C   UNK     1       1.101   9.198  18.425  0.00  0.00    +0.000 A 
ENDBRANCH   3   7
BRANCH   6  13
ATOM     13  C   UNK     1       5.043   5.435  17.089  0.00  0.00    +0.000 A 
ATOM     14  C   UNK     1       4.806   5.116  15.744  0.00  0.00    +0.000 A 
ATOM     15  C   UNK     1       5.781   4.471  14.981  0.00  0.00    +0.000 A 
ATOM     16  C   UNK     1       7.034   4.220  15.528  0.00  0.00    +0.000 A 
ATOM     17  C   UNK     1       7.310   4.610  16.835  0.00  0.00    +0.000 A 
ATOM     18  C   UNK     1       6.315   5.196  17.619  0.00  0.00    +0.000 A 
ENDBRANCH   6  13
BRANCH   5  19
ATOM     19  C   UNK     1       3.289   3.705  18.946  0.00  0.00    +0.000 A 
ATOM     20  N   UNK     1       4.013   3.169  19.917  0.00  0.00    +0.000 NA
ATOM     21  C   UNK     1       4.209   1.803  19.673  0.00  0.00    +0.000 A 
ATOM     22  C   UNK     1       3.527   1.315  18.578  0.00  0.00    +0.000 A 
ATOM     23  S   UNK     1       2.641   2.573  17.823  0.00  0.00    +0.000 S 
BRANCH  21  24
ATOM     24  C   UNK     1       5.126   1.013  20.508  0.00  0.00    +0.000 C 
ATOM     25  O   UNK     1       5.473   1.335  21.639  0.00  0.00    +0.000 OA
BRANCH  24  26
ATOM     26  O   UNK     1       5.518  -0.137  19.913  0.00  0.00    +0.000 OA
ATOM     27  H   UNK     1       5.648  -0.831  20.606  0.00  0.00    +0.000 HD
ENDBRANCH  24  26
ENDBRANCH  21  24
ENDBRANCH   5  19
TORSDOF 5
ENDMDL
MODEL 9
REMARK VINA RESULT:      -6.7      3.260      6.473
REMARK  Name = 
REMARK  6 active torsions:
REMARK  status: ('A' for Active; 'I' for Inactive)
REMARK    1  A    between atoms: C_1  and  C_2
REMARK    2  A    between atoms: C_3  and  C_4
REMARK    3  A    between atoms: C_11  and  C_12
REMARK    4  A    between atoms: C_14  and  C_15
REMARK    5  A    between atoms: C_15  and  O_17
REMARK    6  A    between atoms: N_20  and  C_21
REMARK                            x       y       z     vdW  Elec       q    Type
REMARK                         _______ _______ _______ _____ _____    ______ ____
ROOT
ATOM      1  C   UNK     1       4.507   2.531  17.529  0.00  0.00    +0.000 C 
ATOM      2  C   UNK     1       4.200   3.989  17.448  0.00  0.00    +0.000 A 
ATOM      3  C   UNK     1       4.620   4.959  16.544  0.00  0.00    +0.000 A 
ATOM      4  N   UNK     1       4.050   6.176  16.840  0.00  0.00    +0.000 NA
ATOM      5  C   UNK     1       3.262   5.981  17.883  0.00  0.00    +0.000 A 
ATOM      6  N   UNK     1       3.286   4.642  18.289  0.00  0.00    +0.000 N 
ENDROOT
BRANCH   3   7
ATOM      7  C   UNK     1       5.541   4.785  15.421  0.00  0.00    +0.000 A 
ATOM      8  C   UNK     1       6.835   5.326  15.433  0.00  0.00    +0.000 A 
ATOM      9  C   UNK     1       7.681   5.219  14.325  0.00  0.00    +0.000 A 
ATOM     10  C   UNK     1       7.265   4.507  13.204  0.00  0.00    +0.000 A 
ATOM     11  C   UNK     1       6.010   3.904  13.195  0.00  0.00    +0.000 A 
ATOM     12  C   UNK     1       5.151   4.046  14.296  0.00  0.00    +0.000 A 
ENDBRANCH   3   7
BRANCH   6  13
ATOM     13  C   UNK     1       2.516   4.057  19.348  0.00  0.00    +0.000 A 
ATOM     14  C   UNK     1       3.103   3.793  20.594  0.00  0.00    +0.000 A 
ATOM     15  C   UNK     1       2.423   3.050  21.560  0.00  0.00    +0.000 A 
ATOM     16  C   UNK     1       1.115   2.641  21.324  0.00  0.00    +0.000 A 
ATOM     17  C   UNK     1       0.491   2.973  20.125  0.00  0.00    +0.000 A 
ATOM     18  C   UNK     1       1.193   3.660  19.133  0.00  0.00    +0.000 A 
ENDBRANCH   6  13
BRANCH   5  19
ATOM     19  C   UNK     1       2.498   7.030  18.525  0.00  0.00    +0.000 A 
ATOM     20  N   UNK     1       2.093   8.126  17.902  0.00  0.00    +0.000 NA
ATOM     21  C   UNK     1       1.665   9.081  18.835  0.00  0.00    +0.000 A 
ATOM     22  C   UNK     1       1.651   8.635  20.140  0.00  0.00    +0.000 A 
ATOM     23  S   UNK     1       2.194   7.012  20.219  0.00  0.00    +0.000 S 
BRANCH  21  24
ATOM     24  C   UNK     1       1.332  10.449  18.412  0.00  0.00    +0.000 C 
ATOM     25  O   UNK     1       0.437  11.122  18.911  0.00  0.00    +0.000 OA
BRANCH  24  26
ATOM     26  O   UNK     1       2.149  10.910  17.437  0.00  0.00    +0.000 OA
ATOM     27  H   UNK     1       3.060  10.554  17.585  0.00  0.00    +0.000 HD
ENDBRANCH  24  26
ENDBRANCH  21  24
ENDBRANCH   5  19
TORSDOF 5
ENDMDL
