MODEL 1
REMARK VINA RESULT:      -8.5      0.000      0.000
REMARK  Name = 
REMARK  9 active torsions:
REMARK  status: ('A' for Active; 'I' for Inactive)
REMARK    1  A    between atoms: C_1  and  O_2
REMARK    2  A    between atoms: O_2  and  C_3
REMARK    3  A    between atoms: C_5  and  C_6
REMARK    4  A    between atoms: C_13  and  C_14
REMARK    5  A    between atoms: C_17  and  N_18
REMARK    6  A    between atoms: C_26  and  O_27
REMARK    7  A    between atoms: O_27  and  C_28
REMARK    8  A    between atoms: C_29  and  O_30
REMARK    9  A    between atoms: O_30  and  C_31
REMARK                            x       y       z     vdW  Elec       q    Type
REMARK                         _______ _______ _______ _____ _____    ______ ____
ROOT
ATOM      1  C   UNL     1       2.200   7.886  17.962  0.00  0.00    +0.000 C 
ATOM      2  C   UNL     1       1.903   8.606  19.057  0.00  0.00    +0.000 C 
ATOM      3  C   UNL     1       2.022   8.181  20.482  0.00  0.00    +0.000 C 
ATOM      4  C   UNL     1       0.658   8.070  21.158  0.00  0.00    +0.000 C 
ATOM      5  C   UNL     1       0.142   9.430  21.619  0.00  0.00    +0.000 C 
ATOM      6  C   UNL     1      -0.480  10.335  20.548  0.00  0.00    +0.000 C 
ATOM      7  C   UNL     1      -0.031  10.205  19.121  0.00  0.00    +0.000 C 
ATOM      8  C   UNL     1      -0.821  10.308  18.033  0.00  0.00    +0.000 C 
ATOM      9  C   UNL     1       1.406   9.989  18.800  0.00  0.00    +0.000 C 
ATOM     10  O   UNL     1       2.093  10.844  18.263  0.00  0.00    +0.000 OA
ENDROOT
BRANCH   1  13
ATOM     11  C   UNL     1       4.493   4.891  17.946  0.00  0.00    +0.000 A 
ATOM     12  C   UNL     1       4.002   6.195  17.742  0.00  0.00    +0.000 A 
ATOM     13  C   UNL     1       2.648   6.489  17.914  0.00  0.00    +0.000 A 
ATOM     14  C   UNL     1       1.760   5.449  18.166  0.00  0.00    +0.000 A 
ATOM     15  C   UNL     1       2.224   4.136  18.340  0.00  0.00    +0.000 A 
ATOM     16  C   UNL     1       3.602   3.838  18.243  0.00  0.00    +0.000 A 
BRANCH  11  18
ATOM     17  C   UNL     1       6.314   4.424  16.487  0.00  0.00    +0.000 C 
ATOM     18  O   UNL     1       5.832   4.618  17.813  0.00  0.00    +0.000 OA
ENDBRANCH  11  18
BRANCH  15  19
ATOM     19  O   UNL     1       1.210   3.235  18.571  0.00  0.00    +0.000 OA
ATOM     20  C   UNL     1       0.753   3.137  19.916  0.00  0.00    +0.000 C 
ENDBRANCH  15  19
BRANCH  16  21
ATOM     21  O   UNL     1       3.937   2.517  18.398  0.00  0.00    +0.000 OA
ATOM     22  C   UNL     1       4.309   2.026  19.678  0.00  0.00    +0.000 C 
ENDBRANCH  16  21
ENDBRANCH   1  13
BRANCH   8  23
ATOM     23  C   UNL     1      -2.269  10.538  18.073  0.00  0.00    +0.000 A 
ATOM     24  C   UNL     1      -2.783  11.701  18.649  0.00  0.00    +0.000 A 
ATOM     25  C   UNL     1      -4.165  11.924  18.682  0.00  0.00    +0.000 A 
ATOM     26  C   UNL     1      -5.031  10.969  18.130  0.00  0.00    +0.000 A 
ATOM     27  C   UNL     1      -4.522   9.796  17.557  0.00  0.00    +0.000 A 
ATOM     28  C   UNL     1      -3.140   9.585  17.531  0.00  0.00    +0.000 A 
BRANCH  26  29
ATOM     29  N   UNL     1      -6.482  11.203  18.146  0.00  0.00    +0.000 N 
ATOM     30  O   UNL     1      -7.181  10.442  18.829  0.00  0.00    +0.000 OA
ATOM     31  O   UNL     1      -6.919  12.149  17.477  0.00  0.00    +0.000 OA
ENDBRANCH  26  29
ENDBRANCH   8  23
TORSDOF 6
ENDMDL
MODEL 2
REMARK VINA RESULT:      -8.4      0.417      2.519
REMARK  Name = 
REMARK  9 active torsions:
REMARK  status: ('A' for Active; 'I' for Inactive)
REMARK    1  A    between atoms: C_1  and  O_2
REMARK    2  A    between atoms: O_2  and  C_3
REMARK    3  A    between atoms: C_5  and  C_6
REMARK    4  A    between atoms: C_13  and  C_14
REMARK    5  A    between atoms: C_17  and  N_18
REMARK    6  A    between atoms: C_26  and  O_27
REMARK    7  A    between atoms: O_27  and  C_28
REMARK    8  A    between atoms: C_29  and  O_30
REMARK    9  A    between atoms: O_30  and  C_31
REMARK                            x       y       z     vdW  Elec       q    Type
REMARK                         _______ _______ _______ _____ _____    ______ ____
ROOT
ATOM      1  C   UNL     1       2.174   7.737  18.036  0.00  0.00    +0.000 C 
ATOM      2  C   UNL     1       1.888   8.521  19.088  0.00  0.00    +0.000 C 
ATOM      3  C   UNL     1       1.984   8.169  20.534  0.00  0.00    +0.000 C 
ATOM      4  C   UNL     1       0.612   8.132  21.202  0.00  0.00    +0.000 C 
ATOM      5  C   UNL     1       0.131   9.528  21.586  0.00  0.00    +0.000 C 
ATOM      6  C   UNL     1      -0.458  10.392  20.463  0.00  0.00    +0.000 C 
ATOM      7  C   UNL     1      -0.001  10.174  19.049  0.00  0.00    +0.000 C 
ATOM      8  C   UNL     1      -0.779  10.241  17.950  0.00  0.00    +0.000 C 
ATOM      9  C   UNL     1       1.432   9.902  18.754  0.00  0.00    +0.000 C 
ATOM     10  O   UNL     1       2.147  10.708  18.178  0.00  0.00    +0.000 OA
ENDROOT
BRANCH   1  13
ATOM     11  C   UNL     1       1.962   3.974  17.881  0.00  0.00    +0.000 A 
ATOM     12  C   UNL     1       1.617   5.320  18.108  0.00  0.00    +0.000 A 
ATOM     13  C   UNL     1       2.584   6.327  18.065  0.00  0.00    +0.000 A 
ATOM     14  C   UNL     1       3.921   5.972  17.922  0.00  0.00    +0.000 A 
ATOM     15  C   UNL     1       4.290   4.632  17.727  0.00  0.00    +0.000 A 
ATOM     16  C   UNL     1       3.313   3.611  17.693  0.00  0.00    +0.000 A 
BRANCH  11  18
ATOM     17  C   UNL     1       0.558   2.542  19.161  0.00  0.00    +0.000 C 
ATOM     18  O   UNL     1       1.001   2.994  17.885  0.00  0.00    +0.000 OA
ENDBRANCH  11  18
BRANCH  15  19
ATOM     19  O   UNL     1       5.650   4.462  17.615  0.00  0.00    +0.000 OA
ATOM     20  C   UNL     1       6.193   4.599  16.306  0.00  0.00    +0.000 C 
ENDBRANCH  15  19
BRANCH  16  21
ATOM     21  O   UNL     1       3.791   2.337  17.530  0.00  0.00    +0.000 OA
ATOM     22  C   UNL     1       3.936   1.484  18.658  0.00  0.00    +0.000 C 
ENDBRANCH  16  21
ENDBRANCH   1  13
BRANCH   8  23
ATOM     23  C   UNL     1      -2.220  10.512  17.963  0.00  0.00    +0.000 A 
ATOM     24  C   UNL     1      -3.115   9.599  17.402  0.00  0.00    +0.000 A 
ATOM     25  C   UNL     1      -4.491   9.854  17.420  0.00  0.00    +0.000 A 
ATOM     26  C   UNL     1      -4.966  11.035  18.006  0.00  0.00    +0.000 A 
ATOM     27  C   UNL     1      -4.074  11.960  18.565  0.00  0.00    +0.000 A 
ATOM     28  C   UNL     1      -2.701  11.694  18.540  0.00  0.00    +0.000 A 
BRANCH  26  29
ATOM     29  N   UNL     1      -6.411  11.303  18.043  0.00  0.00    +0.000 N 
ATOM     30  O   UNL     1      -6.837  12.261  17.384  0.00  0.00    +0.000 OA
ATOM     31  O   UNL     1      -7.117  10.553  18.732  0.00  0.00    +0.000 OA
ENDBRANCH  26  29
ENDBRANCH   8  23
TORSDOF 6
ENDMDL
MODEL 3
REMARK VINA RESULT:      -8.4      0.323      1.083
REMARK  Name = 
REMARK  9 active torsions:
REMARK  status: ('A' for Active; 'I' for Inactive)
REMARK    1  A    between atoms: C_1  and  O_2
REMARK    2  A    between atoms: O_2  and  C_3
REMARK    3  A    between atoms: C_5  and  C_6
REMARK    4  A    between atoms: C_13  and  C_14
REMARK    5  A    between atoms: C_17  and  N_18
REMARK    6  A    between atoms: C_26  and  O_27
REMARK    7  A    between atoms: O_27  and  C_28
REMARK    8  A    between atoms: C_29  and  O_30
REMARK    9  A    between atoms: O_30  and  C_31
REMARK                            x       y       z     vdW  Elec       q    Type
REMARK                         _______ _______ _______ _____ _____    ______ ____
ROOT
ATOM      1  C   UNL     1       2.207   7.921  17.954  0.00  0.00    +0.000 C 
ATOM      2  C   UNL     1       1.890   8.599  19.069  0.00  0.00    +0.000 C 
ATOM      3  C   UNL     1       1.991   8.124  20.479  0.00  0.00    +0.000 C 
ATOM      4  C   UNL     1       0.617   7.983  21.131  0.00  0.00    +0.000 C 
ATOM      5  C   UNL     1       0.089   9.323  21.633  0.00  0.00    +0.000 C 
ATOM      6  C   UNL     1      -0.523  10.263  20.586  0.00  0.00    +0.000 C 
ATOM      7  C   UNL     1      -0.052  10.187  19.162  0.00  0.00    +0.000 C 
ATOM      8  C   UNL     1      -0.827  10.326  18.068  0.00  0.00    +0.000 C 
ATOM      9  C   UNL     1       1.390   9.989  18.855  0.00  0.00    +0.000 C 
ATOM     10  O   UNL     1       2.080  10.865  18.358  0.00  0.00    +0.000 OA
ENDROOT
BRANCH   1  13
ATOM     11  C   UNL     1       4.487   4.918  18.043  0.00  0.00    +0.000 A 
ATOM     12  C   UNL     1       4.028   6.238  17.873  0.00  0.00    +0.000 A 
ATOM     13  C   UNL     1       2.662   6.528  17.862  0.00  0.00    +0.000 A 
ATOM     14  C   UNL     1       1.750   5.479  17.893  0.00  0.00    +0.000 A 
ATOM     15  C   UNL     1       2.188   4.152  18.030  0.00  0.00    +0.000 A 
ATOM     16  C   UNL     1       3.566   3.851  18.117  0.00  0.00    +0.000 A 
BRANCH  11  18
ATOM     17  C   UNL     1       6.683   5.497  17.332  0.00  0.00    +0.000 C 
ATOM     18  O   UNL     1       5.831   4.645  18.092  0.00  0.00    +0.000 OA
ENDBRANCH  11  18
BRANCH  15  19
ATOM     19  O   UNL     1       1.154   3.244  18.033  0.00  0.00    +0.000 OA
ATOM     20  C   UNL     1       0.631   2.895  19.310  0.00  0.00    +0.000 C 
ENDBRANCH  15  19
BRANCH  16  21
ATOM     21  O   UNL     1       3.879   2.520  18.215  0.00  0.00    +0.000 OA
ATOM     22  C   UNL     1       4.198   1.958  19.481  0.00  0.00    +0.000 C 
ENDBRANCH  16  21
ENDBRANCH   1  13
BRANCH   8  23
ATOM     23  C   UNL     1      -2.276  10.547  18.094  0.00  0.00    +0.000 A 
ATOM     24  C   UNL     1      -3.145   9.601  17.549  0.00  0.00    +0.000 A 
ATOM     25  C   UNL     1      -4.529   9.808  17.579  0.00  0.00    +0.000 A 
ATOM     26  C   UNL     1      -5.038  10.977  18.162  0.00  0.00    +0.000 A 
ATOM     27  C   UNL     1      -4.172  11.936  18.705  0.00  0.00    +0.000 A 
ATOM     28  C   UNL     1      -2.792  11.716  18.668  0.00  0.00    +0.000 A 
BRANCH  26  29
ATOM     29  N   UNL     1      -6.491  11.195  18.212  0.00  0.00    +0.000 N 
ATOM     30  O   UNL     1      -6.968  12.071  17.477  0.00  0.00    +0.000 OA
ATOM     31  O   UNL     1      -7.152  10.489  18.986  0.00  0.00    +0.000 OA
ENDBRANCH  26  29
ENDBRANCH   8  23
TORSDOF 6
ENDMDL
MODEL 4
REMARK VINA RESULT:      -7.7      0.586      2.254
REMARK  Name = 
REMARK  9 active torsions:
REMARK  status: ('A' for Active; 'I' for Inactive)
REMARK    1  A    between atoms: C_1  and  O_2
REMARK    2  A    between atoms: O_2  and  C_3
REMARK    3  A    between atoms: C_5  and  C_6
REMARK    4  A    between atoms: C_13  and  C_14
REMARK    5  A    between atoms: C_17  and  N_18
REMARK    6  A    between atoms: C_26  and  O_27
REMARK    7  A    between atoms: O_27  and  C_28
REMARK    8  A    between atoms: C_29  and  O_30
REMARK    9  A    between atoms: O_30  and  C_31
REMARK                            x       y       z     vdW  Elec       q    Type
REMARK                         _______ _______ _______ _____ _____    ______ ____
ROOT
ATOM      1  C   UNL     1       2.186   7.842  18.198  0.00  0.00    +0.000 C 
ATOM      2  C   UNL     1       1.886   8.651  19.227  0.00  0.00    +0.000 C 
ATOM      3  C   UNL     1       1.994   8.346  20.683  0.00  0.00    +0.000 C 
ATOM      4  C   UNL     1       0.625   8.301  21.357  0.00  0.00    +0.000 C 
ATOM      5  C   UNL     1       0.116   9.697  21.700  0.00  0.00    +0.000 C 
ATOM      6  C   UNL     1      -0.494  10.513  20.554  0.00  0.00    +0.000 C 
ATOM      7  C   UNL     1      -0.037  10.262  19.145  0.00  0.00    +0.000 C 
ATOM      8  C   UNL     1      -0.819  10.280  18.048  0.00  0.00    +0.000 C 
ATOM      9  C   UNL     1       1.400  10.012  18.853  0.00  0.00    +0.000 C 
ATOM     10  O   UNL     1       2.096  10.815  18.251  0.00  0.00    +0.000 OA
ENDROOT
BRANCH   1  13
ATOM     11  C   UNL     1       2.122   4.130  18.867  0.00  0.00    +0.000 A 
ATOM     12  C   UNL     1       1.874   5.511  18.989  0.00  0.00    +0.000 A 
ATOM     13  C   UNL     1       2.624   6.443  18.269  0.00  0.00    +0.000 A 
ATOM     14  C   UNL     1       3.711   6.000  17.521  0.00  0.00    +0.000 A 
ATOM     15  C   UNL     1       3.995   4.629  17.413  0.00  0.00    +0.000 A 
ATOM     16  C   UNL     1       3.197   3.671  18.077  0.00  0.00    +0.000 A 
BRANCH  11  18
ATOM     17  C   UNL     1       0.464   2.427  18.767  0.00  0.00    +0.000 C 
ATOM     18  O   UNL     1       1.355   3.218  19.548  0.00  0.00    +0.000 OA
ENDBRANCH  11  18
BRANCH  15  19
ATOM     19  O   UNL     1       5.108   4.373  16.645  0.00  0.00    +0.000 OA
ATOM     20  C   UNL     1       5.420   5.342  15.650  0.00  0.00    +0.000 C 
ENDBRANCH  15  19
BRANCH  16  21
ATOM     21  O   UNL     1       3.588   2.365  17.926  0.00  0.00    +0.000 OA
ATOM     22  C   UNL     1       4.187   1.675  19.014  0.00  0.00    +0.000 C 
ENDBRANCH  16  21
ENDBRANCH   1  13
BRANCH   8  23
ATOM     23  C   UNL     1      -2.266  10.521  18.059  0.00  0.00    +0.000 A 
ATOM     24  C   UNL     1      -2.780  11.710  18.580  0.00  0.00    +0.000 A 
ATOM     25  C   UNL     1      -4.160  11.944  18.585  0.00  0.00    +0.000 A 
ATOM     26  C   UNL     1      -5.025  10.973  18.062  0.00  0.00    +0.000 A 
ATOM     27  C   UNL     1      -4.518   9.774  17.543  0.00  0.00    +0.000 A 
ATOM     28  C   UNL     1      -3.138   9.553  17.545  0.00  0.00    +0.000 A 
BRANCH  26  29
ATOM     29  N   UNL     1      -6.475  11.218  18.049  0.00  0.00    +0.000 N 
ATOM     30  O   UNL     1      -7.199  10.425  18.667  0.00  0.00    +0.000 OA
ATOM     31  O   UNL     1      -6.886  12.204  17.422  0.00  0.00    +0.000 OA
ENDBRANCH  26  29
ENDBRANCH   8  23
TORSDOF 6
ENDMDL
MODEL 5
REMARK VINA RESULT:      -7.5      0.977      2.491
REMARK  Name = 
REMARK  9 active torsions:
REMARK  status: ('A' for Active; 'I' for Inactive)
REMARK    1  A    between atoms: C_1  and  O_2
REMARK    2  A    between atoms: O_2  and  C_3
REMARK    3  A    between atoms: C_5  and  C_6
REMARK    4  A    between atoms: C_13  and  C_14
REMARK    5  A    between atoms: C_17  and  N_18
REMARK    6  A    between atoms: C_26  and  O_27
REMARK    7  A    between atoms: O_27  and  C_28
REMARK    8  A    between atoms: C_29  and  O_30
REMARK    9  A    between atoms: O_30  and  C_31
REMARK                            x       y       z     vdW  Elec       q    Type
REMARK                         _______ _______ _______ _____ _____    ______ ____
ROOT
ATOM      1  C   UNL     1       2.068   8.276  18.586  0.00  0.00    +0.000 C 
ATOM      2  C   UNL     1       1.718   9.097  19.590  0.00  0.00    +0.000 C 
ATOM      3  C   UNL     1       1.800   8.826  21.055  0.00  0.00    +0.000 C 
ATOM      4  C   UNL     1       0.418   8.749  21.697  0.00  0.00    +0.000 C 
ATOM      5  C   UNL     1      -0.145  10.134  21.998  0.00  0.00    +0.000 C 
ATOM      6  C   UNL     1      -0.754  10.905  20.819  0.00  0.00    +0.000 C 
ATOM      7  C   UNL     1      -0.256  10.640  19.428  0.00  0.00    +0.000 C 
ATOM      8  C   UNL     1      -1.011  10.608  18.312  0.00  0.00    +0.000 C 
ATOM      9  C   UNL     1       1.196  10.431  19.175  0.00  0.00    +0.000 C 
ATOM     10  O   UNL     1       1.879  11.245  18.572  0.00  0.00    +0.000 OA
ENDROOT
BRANCH   1  13
ATOM     11  C   UNL     1       2.177   4.614  19.485  0.00  0.00    +0.000 A 
ATOM     12  C   UNL     1       1.903   5.994  19.546  0.00  0.00    +0.000 A 
ATOM     13  C   UNL     1       2.551   6.894  18.698  0.00  0.00    +0.000 A 
ATOM     14  C   UNL     1       3.570   6.428  17.873  0.00  0.00    +0.000 A 
ATOM     15  C   UNL     1       3.881   5.061  17.821  0.00  0.00    +0.000 A 
ATOM     16  C   UNL     1       3.181   4.129  18.620  0.00  0.00    +0.000 A 
BRANCH  11  18
ATOM     17  C   UNL     1       2.094   3.460  21.564  0.00  0.00    +0.000 C 
ATOM     18  O   UNL     1       1.507   3.731  20.294  0.00  0.00    +0.000 OA
ENDBRANCH  11  18
BRANCH  15  19
ATOM     19  O   UNL     1       4.919   4.780  16.962  0.00  0.00    +0.000 OA
ATOM     20  C   UNL     1       5.305   5.830  16.081  0.00  0.00    +0.000 C 
ENDBRANCH  15  19
BRANCH  16  21
ATOM     21  O   UNL     1       3.591   2.825  18.511  0.00  0.00    +0.000 OA
ATOM     22  C   UNL     1       2.846   1.912  17.718  0.00  0.00    +0.000 C 
ENDBRANCH  16  21
ENDBRANCH   1  13
BRANCH   8  23
ATOM     23  C   UNL     1      -2.465  10.800  18.284  0.00  0.00    +0.000 A 
ATOM     24  C   UNL     1      -3.287   9.878  17.633  0.00  0.00    +0.000 A 
ATOM     25  C   UNL     1      -4.674  10.057  17.610  0.00  0.00    +0.000 A 
ATOM     26  C   UNL     1      -5.236  11.173  18.247  0.00  0.00    +0.000 A 
ATOM     27  C   UNL     1      -4.418  12.107  18.896  0.00  0.00    +0.000 A 
ATOM     28  C   UNL     1      -3.033  11.916  18.911  0.00  0.00    +0.000 A 
BRANCH  26  29
ATOM     29  N   UNL     1      -6.694  11.360  18.242  0.00  0.00    +0.000 N 
ATOM     30  O   UNL     1      -7.366  10.680  19.030  0.00  0.00    +0.000 OA
ATOM     31  O   UNL     1      -7.165  12.188  17.449  0.00  0.00    +0.000 OA
ENDBRANCH  26  29
ENDBRANCH   8  23
TORSDOF 6
ENDMDL
MODEL 6
REMARK VINA RESULT:      -7.4      0.828      1.203
REMARK  Name = 
REMARK  9 active torsions:
REMARK  status: ('A' for Active; 'I' for Inactive)
REMARK    1  A    between atoms: C_1  and  O_2
REMARK    2  A    between atoms: O_2  and  C_3
REMARK    3  A    between atoms: C_5  and  C_6
REMARK    4  A    between atoms: C_13  and  C_14
REMARK    5  A    between atoms: C_17  and  N_18
REMARK    6  A    between atoms: C_26  and  O_27
REMARK    7  A    between atoms: O_27  and  C_28
REMARK    8  A    between atoms: C_29  and  O_30
REMARK    9  A    between atoms: O_30  and  C_31
REMARK                            x       y       z     vdW  Elec       q    Type
REMARK                         _______ _______ _______ _____ _____    ______ ____
ROOT
ATOM      1  C   UNL     1       2.002   8.532  18.331  0.00  0.00    +0.000 C 
ATOM      2  C   UNL     1       1.633   9.141  19.470  0.00  0.00    +0.000 C 
ATOM      3  C   UNL     1       1.694   8.589  20.854  0.00  0.00    +0.000 C 
ATOM      4  C   UNL     1       0.302   8.387  21.448  0.00  0.00    +0.000 C 
ATOM      5  C   UNL     1      -0.270   9.687  22.004  0.00  0.00    +0.000 C 
ATOM      6  C   UNL     1      -0.863  10.673  20.990  0.00  0.00    +0.000 C 
ATOM      7  C   UNL     1      -0.343  10.685  19.582  0.00  0.00    +0.000 C 
ATOM      8  C   UNL     1      -1.081  10.872  18.470  0.00  0.00    +0.000 C 
ATOM      9  C   UNL     1       1.113  10.531  19.316  0.00  0.00    +0.000 C 
ATOM     10  O   UNL     1       1.802  11.447  18.894  0.00  0.00    +0.000 OA
ENDROOT
BRANCH   1  13
ATOM     11  C   UNL     1       4.318   5.644  17.608  0.00  0.00    +0.000 A 
ATOM     12  C   UNL     1       3.708   6.912  17.545  0.00  0.00    +0.000 A 
ATOM     13  C   UNL     1       2.488   7.156  18.178  0.00  0.00    +0.000 A 
ATOM     14  C   UNL     1       1.812   6.094  18.769  0.00  0.00    +0.000 A 
ATOM     15  C   UNL     1       2.387   4.814  18.814  0.00  0.00    +0.000 A 
ATOM     16  C   UNL     1       3.656   4.572  18.242  0.00  0.00    +0.000 A 
BRANCH  11  18
ATOM     17  C   UNL     1       5.551   5.354  15.594  0.00  0.00    +0.000 C 
ATOM     18  O   UNL     1       5.537   5.423  17.017  0.00  0.00    +0.000 OA
ENDBRANCH  11  18
BRANCH  15  19
ATOM     19  O   UNL     1       1.578   3.884  19.425  0.00  0.00    +0.000 OA
ATOM     20  C   UNL     1       0.961   2.930  18.567  0.00  0.00    +0.000 C 
ENDBRANCH  15  19
BRANCH  16  21
ATOM     21  O   UNL     1       4.105   3.278  18.317  0.00  0.00    +0.000 OA
ATOM     22  C   UNL     1       4.540   2.749  19.562  0.00  0.00    +0.000 C 
ENDBRANCH  16  21
ENDBRANCH   1  13
BRANCH   8  23
ATOM     23  C   UNL     1      -2.535  11.066  18.457  0.00  0.00    +0.000 A 
ATOM     24  C   UNL     1      -3.359  10.179  17.761  0.00  0.00    +0.000 A 
ATOM     25  C   UNL     1      -4.747  10.359  17.753  0.00  0.00    +0.000 A 
ATOM     26  C   UNL     1      -5.306  11.440  18.450  0.00  0.00    +0.000 A 
ATOM     27  C   UNL     1      -4.485  12.338  19.145  0.00  0.00    +0.000 A 
ATOM     28  C   UNL     1      -3.100  12.147  19.144  0.00  0.00    +0.000 A 
BRANCH  26  29
ATOM     29  N   UNL     1      -6.764  11.627  18.460  0.00  0.00    +0.000 N 
ATOM     30  O   UNL     1      -7.392  11.211  19.443  0.00  0.00    +0.000 OA
ATOM     31  O   UNL     1      -7.278  12.191  17.483  0.00  0.00    +0.000 OA
ENDBRANCH  26  29
ENDBRANCH   8  23
TORSDOF 6
ENDMDL
MODEL 7
REMARK VINA RESULT:      -7.2      3.757     10.412
REMARK  Name = 
REMARK  9 active torsions:
REMARK  status: ('A' for Active; 'I' for Inactive)
REMARK    1  A    between atoms: C_1  and  O_2
REMARK    2  A    between atoms: O_2  and  C_3
REMARK    3  A    between atoms: C_5  and  C_6
REMARK    4  A    between atoms: C_13  and  C_14
REMARK    5  A    between atoms: C_17  and  N_18
REMARK    6  A    between atoms: C_26  and  O_27
REMARK    7  A    between atoms: O_27  and  C_28
REMARK    8  A    between atoms: C_29  and  O_30
REMARK    9  A    between atoms: O_30  and  C_31
REMARK                            x       y       z     vdW  Elec       q    Type
REMARK                         _______ _______ _______ _____ _____    ______ ____
ROOT
ATOM      1  C   UNL     1      -2.963  12.791  20.002  0.00  0.00    +0.000 C 
ATOM      2  C   UNL     1      -2.793  12.207  18.804  0.00  0.00    +0.000 C 
ATOM      3  C   UNL     1      -3.842  11.607  17.930  0.00  0.00    +0.000 C 
ATOM      4  C   UNL     1      -3.677  10.095  17.800  0.00  0.00    +0.000 C 
ATOM      5  C   UNL     1      -2.620   9.728  16.763  0.00  0.00    +0.000 C 
ATOM      6  C   UNL     1      -1.154   9.834  17.200  0.00  0.00    +0.000 C 
ATOM      7  C   UNL     1      -0.772  10.817  18.269  0.00  0.00    +0.000 C 
ATOM      8  C   UNL     1       0.148  10.616  19.233  0.00  0.00    +0.000 C 
ATOM      9  C   UNL     1      -1.388  12.171  18.301  0.00  0.00    +0.000 C 
ATOM     10  O   UNL     1      -0.757  13.185  18.046  0.00  0.00    +0.000 OA
ENDROOT
BRANCH   1  13
ATOM     11  C   UNL     1      -5.364  12.824  22.911  0.00  0.00    +0.000 A 
ATOM     12  C   UNL     1      -4.270  12.490  22.089  0.00  0.00    +0.000 A 
ATOM     13  C   UNL     1      -4.214  12.912  20.760  0.00  0.00    +0.000 A 
ATOM     14  C   UNL     1      -5.316  13.562  20.212  0.00  0.00    +0.000 A 
ATOM     15  C   UNL     1      -6.431  13.876  21.006  0.00  0.00    +0.000 A 
ATOM     16  C   UNL     1      -6.467  13.520  22.373  0.00  0.00    +0.000 A 
BRANCH  11  18
ATOM     17  C   UNL     1      -4.193  12.626  24.973  0.00  0.00    +0.000 C 
ATOM     18  O   UNL     1      -5.393  12.439  24.228  0.00  0.00    +0.000 OA
ENDBRANCH  11  18
BRANCH  15  19
ATOM     19  O   UNL     1      -7.429  14.507  20.302  0.00  0.00    +0.000 OA
ATOM     20  C   UNL     1      -7.035  15.641  19.536  0.00  0.00    +0.000 C 
ENDBRANCH  15  19
BRANCH  16  21
ATOM     21  O   UNL     1      -7.619  13.847  23.042  0.00  0.00    +0.000 OA
ATOM     22  C   UNL     1      -7.681  15.047  23.800  0.00  0.00    +0.000 C 
ENDBRANCH  16  21
ENDBRANCH   1  13
BRANCH   8  23
ATOM     23  C   UNL     1       0.912   9.377  19.412  0.00  0.00    +0.000 A 
ATOM     24  C   UNL     1       0.844   8.674  20.616  0.00  0.00    +0.000 A 
ATOM     25  C   UNL     1       1.568   7.488  20.786  0.00  0.00    +0.000 A 
ATOM     26  C   UNL     1       2.364   7.010  19.735  0.00  0.00    +0.000 A 
ATOM     27  C   UNL     1       2.443   7.714  18.527  0.00  0.00    +0.000 A 
ATOM     28  C   UNL     1       1.716   8.897  18.370  0.00  0.00    +0.000 A 
BRANCH  26  29
ATOM     29  N   UNL     1       3.115   5.757  19.900  0.00  0.00    +0.000 N 
ATOM     30  O   UNL     1       4.169   5.628  19.263  0.00  0.00    +0.000 OA
ATOM     31  O   UNL     1       2.648   4.903  20.667  0.00  0.00    +0.000 OA
ENDBRANCH  26  29
ENDBRANCH   8  23
TORSDOF 6
ENDMDL
MODEL 8
REMARK VINA RESULT:      -7.1      3.808     10.215
REMARK  Name = 
REMARK  9 active torsions:
REMARK  status: ('A' for Active; 'I' for Inactive)
REMARK    1  A    between atoms: C_1  and  O_2
REMARK    2  A    between atoms: O_2  and  C_3
REMARK    3  A    between atoms: C_5  and  C_6
REMARK    4  A    between atoms: C_13  and  C_14
REMARK    5  A    between atoms: C_17  and  N_18
REMARK    6  A    between atoms: C_26  and  O_27
REMARK    7  A    between atoms: O_27  and  C_28
REMARK    8  A    between atoms: C_29  and  O_30
REMARK    9  A    between atoms: O_30  and  C_31
REMARK                            x       y       z     vdW  Elec       q    Type
REMARK                         _______ _______ _______ _____ _____    ______ ____
ROOT
ATOM      1  C   UNL     1      -2.740  12.625  20.200  0.00  0.00    +0.000 C 
ATOM      2  C   UNL     1      -2.712  12.072  18.975  0.00  0.00    +0.000 C 
ATOM      3  C   UNL     1      -3.847  11.452  18.234  0.00  0.00    +0.000 C 
ATOM      4  C   UNL     1      -3.650   9.950  18.046  0.00  0.00    +0.000 C 
ATOM      5  C   UNL     1      -2.729   9.643  16.868  0.00  0.00    +0.000 C 
ATOM      6  C   UNL     1      -1.222   9.794  17.110  0.00  0.00    +0.000 C 
ATOM      7  C   UNL     1      -0.734  10.769  18.143  0.00  0.00    +0.000 C 
ATOM      8  C   UNL     1       0.313  10.582  18.971  0.00  0.00    +0.000 C 
ATOM      9  C   UNL     1      -1.386  12.098  18.290  0.00  0.00    +0.000 C 
ATOM     10  O   UNL     1      -0.829  13.139  17.978  0.00  0.00    +0.000 OA
ENDROOT
BRANCH   1  13
ATOM     11  C   UNL     1      -4.752  13.264  23.326  0.00  0.00    +0.000 A 
ATOM     12  C   UNL     1      -3.675  12.949  22.475  0.00  0.00    +0.000 A 
ATOM     13  C   UNL     1      -3.882  12.685  21.119  0.00  0.00    +0.000 A 
ATOM     14  C   UNL     1      -5.186  12.611  20.639  0.00  0.00    +0.000 A 
ATOM     15  C   UNL     1      -6.276  12.890  21.479  0.00  0.00    +0.000 A 
ATOM     16  C   UNL     1      -6.074  13.231  22.835  0.00  0.00    +0.000 A 
BRANCH  11  18
ATOM     17  C   UNL     1      -3.371  14.325  24.948  0.00  0.00    +0.000 C 
ATOM     18  O   UNL     1      -4.536  13.560  24.648  0.00  0.00    +0.000 OA
ENDBRANCH  11  18
BRANCH  15  19
ATOM     19  O   UNL     1      -7.489  12.759  20.843  0.00  0.00    +0.000 OA
ATOM     20  C   UNL     1      -7.439  12.402  19.466  0.00  0.00    +0.000 C 
ENDBRANCH  15  19
BRANCH  16  21
ATOM     21  O   UNL     1      -7.212  13.450  23.568  0.00  0.00    +0.000 OA
ATOM     22  C   UNL     1      -7.703  14.773  23.736  0.00  0.00    +0.000 C 
ENDBRANCH  16  21
ENDBRANCH   1  13
BRANCH   8  23
ATOM     23  C   UNL     1       1.135   9.369  19.016  0.00  0.00    +0.000 A 
ATOM     24  C   UNL     1       1.876   8.977  17.900  0.00  0.00    +0.000 A 
ATOM     25  C   UNL     1       2.666   7.822  17.944  0.00  0.00    +0.000 A 
ATOM     26  C   UNL     1       2.708   7.059  19.119  0.00  0.00    +0.000 A 
ATOM     27  C   UNL     1       1.960   7.442  20.241  0.00  0.00    +0.000 A 
ATOM     28  C   UNL     1       1.175   8.597  20.184  0.00  0.00    +0.000 A 
BRANCH  26  29
ATOM     29  N   UNL     1       3.547   5.854  19.179  0.00  0.00    +0.000 N 
ATOM     30  O   UNL     1       3.219   4.961  19.972  0.00  0.00    +0.000 OA
ATOM     31  O   UNL     1       4.533   5.803  18.430  0.00  0.00    +0.000 OA
ENDBRANCH  26  29
ENDBRANCH   8  23
TORSDOF 6
ENDMDL
MODEL 9
REMARK VINA RESULT:      -7.1      3.925     10.168
REMARK  Name = 
REMARK  9 active torsions:
REMARK  status: ('A' for Active; 'I' for Inactive)
REMARK    1  A    between atoms: C_1  and  O_2
REMARK    2  A    between atoms: O_2  and  C_3
REMARK    3  A    between atoms: C_5  and  C_6
REMARK    4  A    between atoms: C_13  and  C_14
REMARK    5  A    between atoms: C_17  and  N_18
REMARK    6  A    between atoms: C_26  and  O_27
REMARK    7  A    between atoms: O_27  and  C_28
REMARK    8  A    between atoms: C_29  and  O_30
REMARK    9  A    between atoms: O_30  and  C_31
REMARK                            x       y       z     vdW  Elec       q    Type
REMARK                         _______ _______ _______ _____ _____    ______ ____
ROOT
ATOM      1  C   UNL     1      -2.469  12.679  20.321  0.00  0.00    +0.000 C 
ATOM      2  C   UNL     1      -2.511  12.129  19.096  0.00  0.00    +0.000 C 
ATOM      3  C   UNL     1      -3.694  11.536  18.408  0.00  0.00    +0.000 C 
ATOM      4  C   UNL     1      -3.538  10.030  18.208  0.00  0.00    +0.000 C 
ATOM      5  C   UNL     1      -2.682   9.707  16.987  0.00  0.00    +0.000 C 
ATOM      6  C   UNL     1      -1.162   9.825  17.157  0.00  0.00    +0.000 C 
ATOM      7  C   UNL     1      -0.605  10.786  18.167  0.00  0.00    +0.000 C 
ATOM      8  C   UNL     1       0.476  10.575  18.944  0.00  0.00    +0.000 C 
ATOM      9  C   UNL     1      -1.220  12.129  18.348  0.00  0.00    +0.000 C 
ATOM     10  O   UNL     1      -0.655  13.158  18.012  0.00  0.00    +0.000 OA
ENDROOT
BRANCH   1  13
ATOM     11  C   UNL     1      -4.316  13.354  23.540  0.00  0.00    +0.000 A 
ATOM     12  C   UNL     1      -3.288  13.018  22.638  0.00  0.00    +0.000 A 
ATOM     13  C   UNL     1      -3.565  12.761  21.294  0.00  0.00    +0.000 A 
ATOM     14  C   UNL     1      -4.891  12.714  20.877  0.00  0.00    +0.000 A 
ATOM     15  C   UNL     1      -5.934  13.014  21.767  0.00  0.00    +0.000 A 
ATOM     16  C   UNL     1      -5.661  13.349  23.113  0.00  0.00    +0.000 A 
BRANCH  11  18
ATOM     17  C   UNL     1      -3.213  14.786  25.087  0.00  0.00    +0.000 C 
ATOM     18  O   UNL     1      -4.031  13.644  24.850  0.00  0.00    +0.000 OA
ENDBRANCH  11  18
BRANCH  15  19
ATOM     19  O   UNL     1      -7.178  12.909  21.190  0.00  0.00    +0.000 OA
ATOM     20  C   UNL     1      -7.531  11.623  20.690  0.00  0.00    +0.000 C 
ENDBRANCH  15  19
BRANCH  16  21
ATOM     21  O   UNL     1      -6.758  13.590  23.899  0.00  0.00    +0.000 OA
ATOM     22  C   UNL     1      -7.337  14.887  23.929  0.00  0.00    +0.000 C 
ENDBRANCH  16  21
ENDBRANCH   1  13
BRANCH   8  23
ATOM     23  C   UNL     1       1.273   9.343  18.948  0.00  0.00    +0.000 A 
ATOM     24  C   UNL     1       1.287   8.515  20.071  0.00  0.00    +0.000 A 
ATOM     25  C   UNL     1       2.042   7.336  20.073  0.00  0.00    +0.000 A 
ATOM     26  C   UNL     1       2.787   6.993  18.936  0.00  0.00    +0.000 A 
ATOM     27  C   UNL     1       2.784   7.823  17.807  0.00  0.00    +0.000 A 
ATOM     28  C   UNL     1       2.026   8.997  17.819  0.00  0.00    +0.000 A 
BRANCH  26  29
ATOM     29  N   UNL     1       3.570   5.749  18.925  0.00  0.00    +0.000 N 
ATOM     30  O   UNL     1       4.434   5.619  18.046  0.00  0.00    +0.000 OA
ATOM     31  O   UNL     1       3.320   4.903  19.795  0.00  0.00    +0.000 OA
ENDBRANCH  26  29
ENDBRANCH   8  23
TORSDOF 6
ENDMDL
