MODEL 1
REMARK VINA RESULT:      -9.1      0.000      0.000
REMARK  Name = 
REMARK  7 active torsions:
REMARK  status: ('A' for Active; 'I' for Inactive)
REMARK    1  A    between atoms: C_2  and  C_3
REMARK    2  A    between atoms: C_6  and  C_7
REMARK    3  A    between atoms: C_8  and  C_9
REMARK    4  A    between atoms: N_11  and  C_12
REMARK    5  A    between atoms: C_16  and  O_17
REMARK    6  A    between atoms: O_17  and  C_18
REMARK    7  A    between atoms: C_18  and  C_19
REMARK                            x       y       z     vdW  Elec       q    Type
REMARK                         _______ _______ _______ _____ _____    ______ ____
ROOT
ATOM      1  C   UNL     1       6.278   6.361  17.009  0.00  0.00    +0.000 A 
ATOM      2  C   UNL     1       5.828   5.828  15.799  0.00  0.00    +0.000 A 
ATOM      3  C   UNL     1       5.228   4.569  15.755  0.00  0.00    +0.000 A 
ATOM      4  C   UNL     1       5.063   3.838  16.926  0.00  0.00    +0.000 A 
ATOM      5  C   UNL     1       5.493   4.360  18.145  0.00  0.00    +0.000 A 
ATOM      6  C   UNL     1       6.128   5.607  18.181  0.00  0.00    +0.000 A 
ENDROOT
BRANCH   1   9
ATOM      7  C   UNL     1       7.903   7.959  17.996  0.00  0.00    +0.000 C 
ATOM      8  O   UNL     1       8.464   7.197  18.775  0.00  0.00    +0.000 OA
ATOM      9  N   UNL     1       6.894   7.630  17.112  0.00  0.00    +0.000 N 
ATOM     10  H   UNL     1       6.622   8.319  16.425  0.00  0.00    +0.000 HD
BRANCH   7  12
ATOM     11  C   UNL     1       9.115   9.871  18.869  0.00  0.00    +0.000 C 
ATOM     12  C   UNL     1       8.324   9.384  17.899  0.00  0.00    +0.000 C 
BRANCH  11  16
ATOM     13  C   UNL     1      10.398  13.942  19.138  0.00  0.00    +0.000 A 
ATOM     14  C   UNL     1       9.571  13.520  18.095  0.00  0.00    +0.000 A 
ATOM     15  C   UNL     1       9.176  12.180  18.018  0.00  0.00    +0.000 A 
ATOM     16  C   UNL     1       9.609  11.248  18.973  0.00  0.00    +0.000 A 
ATOM     17  C   UNL     1      10.429  11.683  20.021  0.00  0.00    +0.000 A 
ATOM     18  C   UNL     1      10.825  13.023  20.100  0.00  0.00    +0.000 A 
BRANCH  13  20
ATOM     19  N   UNL     1      11.125  16.429  19.293  0.00  0.00    +0.000 NA
ATOM     20  C   UNL     1      10.799  15.315  19.226  0.00  0.00    +0.000 C 
ENDBRANCH  13  20
ENDBRANCH  11  16
ENDBRANCH   7  12
ENDBRANCH   1   9
BRANCH   5  21
ATOM     21  O   UNL     1       5.279   3.550  19.226  0.00  0.00    +0.000 OA
BRANCH  21  22
ATOM     22  C   UNL     1       3.973   2.977  19.331  0.00  0.00    +0.000 C 
BRANCH  22  23
ATOM     23  C   UNL     1       2.954   4.105  19.566  0.00  0.00    +0.000 C 
ATOM     24  C   UNL     1       2.414   4.072  21.003  0.00  0.00    +0.000 C 
ATOM     25  C   UNL     1       1.432   2.921  21.228  0.00  0.00    +0.000 C 
ATOM     26  N   UNL     1       0.335   2.942  20.259  0.00  0.00    +0.000 NA
ATOM     27  C   UNL     1       0.831   2.881  18.883  0.00  0.00    +0.000 C 
ATOM     28  C   UNL     1       1.780   4.037  18.573  0.00  0.00    +0.000 C 
ATOM     29  H   UNL     1      -0.193   3.808  20.378  0.00  0.00    +0.000 HD
ENDBRANCH  22  23
ENDBRANCH  21  22
ENDBRANCH   5  21
TORSDOF 7
ENDMDL
MODEL 2
REMARK VINA RESULT:      -9.0      1.161      1.581
REMARK  Name = 
REMARK  7 active torsions:
REMARK  status: ('A' for Active; 'I' for Inactive)
REMARK    1  A    between atoms: C_2  and  C_3
REMARK    2  A    between atoms: C_6  and  C_7
REMARK    3  A    between atoms: C_8  and  C_9
REMARK    4  A    between atoms: N_11  and  C_12
REMARK    5  A    between atoms: C_16  and  O_17
REMARK    6  A    between atoms: O_17  and  C_18
REMARK    7  A    between atoms: C_18  and  C_19
REMARK                            x       y       z     vdW  Elec       q    Type
REMARK                         _______ _______ _______ _____ _____    ______ ____
ROOT
ATOM      1  C   UNL     1       6.096   6.303  16.714  0.00  0.00    +0.000 A 
ATOM      2  C   UNL     1       6.510   5.361  15.770  0.00  0.00    +0.000 A 
ATOM      3  C   UNL     1       5.805   4.170  15.596  0.00  0.00    +0.000 A 
ATOM      4  C   UNL     1       4.671   3.917  16.360  0.00  0.00    +0.000 A 
ATOM      5  C   UNL     1       4.234   4.853  17.298  0.00  0.00    +0.000 A 
ATOM      6  C   UNL     1       4.965   6.030  17.496  0.00  0.00    +0.000 A 
ENDROOT
BRANCH   1   9
ATOM      7  C   UNL     1       7.732   7.746  17.902  0.00  0.00    +0.000 C 
ATOM      8  O   UNL     1       8.192   6.910  18.673  0.00  0.00    +0.000 OA
ATOM      9  N   UNL     1       6.772   7.526  16.934  0.00  0.00    +0.000 N 
ATOM     10  H   UNL     1       6.589   8.267  16.270  0.00  0.00    +0.000 HD
BRANCH   7  12
ATOM     11  C   UNL     1       9.100   9.490  18.888  0.00  0.00    +0.000 C 
ATOM     12  C   UNL     1       8.237   9.147  17.918  0.00  0.00    +0.000 C 
BRANCH  11  16
ATOM     13  C   UNL     1      10.890  13.304  19.625  0.00  0.00    +0.000 A 
ATOM     14  C   UNL     1      10.354  12.551  20.672  0.00  0.00    +0.000 A 
ATOM     15  C   UNL     1       9.760  11.313  20.405  0.00  0.00    +0.000 A 
ATOM     16  C   UNL     1       9.685  10.820  19.095  0.00  0.00    +0.000 A 
ATOM     17  C   UNL     1      10.235  11.577  18.054  0.00  0.00    +0.000 A 
ATOM     18  C   UNL     1      10.830  12.816  18.318  0.00  0.00    +0.000 A 
BRANCH  13  20
ATOM     19  N   UNL     1      12.007  15.596  20.114  0.00  0.00    +0.000 NA
ATOM     20  C   UNL     1      11.508  14.569  19.893  0.00  0.00    +0.000 C 
ENDBRANCH  13  20
ENDBRANCH  11  16
ENDBRANCH   7  12
ENDBRANCH   1   9
BRANCH   5  21
ATOM     21  O   UNL     1       3.110   4.493  17.988  0.00  0.00    +0.000 OA
BRANCH  21  22
ATOM     22  C   UNL     1       2.920   5.131  19.253  0.00  0.00    +0.000 C 
BRANCH  22  23
ATOM     23  C   UNL     1       2.432   4.082  20.268  0.00  0.00    +0.000 C 
ATOM     24  C   UNL     1       3.334   2.839  20.256  0.00  0.00    +0.000 C 
ATOM     25  C   UNL     1       3.113   1.974  19.014  0.00  0.00    +0.000 C 
ATOM     26  N   UNL     1       1.707   1.599  18.853  0.00  0.00    +0.000 NA
ATOM     27  C   UNL     1       0.842   2.778  18.771  0.00  0.00    +0.000 C 
ATOM     28  C   UNL     1       0.974   3.663  20.009  0.00  0.00    +0.000 C 
ATOM     29  H   UNL     1       1.421   1.040  19.658  0.00  0.00    +0.000 HD
ENDBRANCH  22  23
ENDBRANCH  21  22
ENDBRANCH   5  21
TORSDOF 7
ENDMDL
MODEL 3
REMARK VINA RESULT:      -9.0      1.228      1.417
REMARK  Name = 
REMARK  7 active torsions:
REMARK  status: ('A' for Active; 'I' for Inactive)
REMARK    1  A    between atoms: C_2  and  C_3
REMARK    2  A    between atoms: C_6  and  C_7
REMARK    3  A    between atoms: C_8  and  C_9
REMARK    4  A    between atoms: N_11  and  C_12
REMARK    5  A    between atoms: C_16  and  O_17
REMARK    6  A    between atoms: O_17  and  C_18
REMARK    7  A    between atoms: C_18  and  C_19
REMARK                            x       y       z     vdW  Elec       q    Type
REMARK                         _______ _______ _______ _____ _____    ______ ____
ROOT
ATOM      1  C   UNL     1       5.733   6.496  16.930  0.00  0.00    +0.000 A 
ATOM      2  C   UNL     1       5.957   5.526  15.950  0.00  0.00    +0.000 A 
ATOM      3  C   UNL     1       5.117   4.417  15.841  0.00  0.00    +0.000 A 
ATOM      4  C   UNL     1       4.037   4.278  16.705  0.00  0.00    +0.000 A 
ATOM      5  C   UNL     1       3.790   5.244  17.681  0.00  0.00    +0.000 A 
ATOM      6  C   UNL     1       4.656   6.335  17.812  0.00  0.00    +0.000 A 
ENDROOT
BRANCH   1   9
ATOM      7  C   UNL     1       7.641   7.730  17.933  0.00  0.00    +0.000 C 
ATOM      8  O   UNL     1       8.103   6.829  18.625  0.00  0.00    +0.000 OA
ATOM      9  N   UNL     1       6.554   7.638  17.087  0.00  0.00    +0.000 N 
ATOM     10  H   UNL     1       6.368   8.414  16.466  0.00  0.00    +0.000 HD
BRANCH   7  12
ATOM     11  C   UNL     1       9.021   9.430  18.979  0.00  0.00    +0.000 C 
ATOM     12  C   UNL     1       8.285   9.073  17.914  0.00  0.00    +0.000 C 
BRANCH  11  16
ATOM     13  C   UNL     1      10.928  13.236  19.395  0.00  0.00    +0.000 A 
ATOM     14  C   UNL     1      10.755  12.655  18.137  0.00  0.00    +0.000 A 
ATOM     15  C   UNL     1      10.143  11.403  18.026  0.00  0.00    +0.000 A 
ATOM     16  C   UNL     1       9.706  10.714  19.166  0.00  0.00    +0.000 A 
ATOM     17  C   UNL     1       9.873  11.309  20.422  0.00  0.00    +0.000 A 
ATOM     18  C   UNL     1      10.486  12.562  20.536  0.00  0.00    +0.000 A 
BRANCH  13  20
ATOM     19  N   UNL     1      12.051  15.565  19.613  0.00  0.00    +0.000 NA
ATOM     20  C   UNL     1      11.547  14.522  19.514  0.00  0.00    +0.000 C 
ENDBRANCH  13  20
ENDBRANCH  11  16
ENDBRANCH   7  12
ENDBRANCH   1   9
BRANCH   5  21
ATOM     21  O   UNL     1       2.701   4.998  18.471  0.00  0.00    +0.000 OA
BRANCH  21  22
ATOM     22  C   UNL     1       2.903   5.144  19.879  0.00  0.00    +0.000 C 
BRANCH  22  23
ATOM     23  C   UNL     1       2.158   4.011  20.606  0.00  0.00    +0.000 C 
ATOM     24  C   UNL     1       3.059   2.781  20.783  0.00  0.00    +0.000 C 
ATOM     25  C   UNL     1       3.266   2.020  19.473  0.00  0.00    +0.000 C 
ATOM     26  N   UNL     1       1.995   1.649  18.850  0.00  0.00    +0.000 NA
ATOM     27  C   UNL     1       1.160   2.823  18.590  0.00  0.00    +0.000 C 
ATOM     28  C   UNL     1       0.868   3.603  19.871  0.00  0.00    +0.000 C 
ATOM     29  H   UNL     1       1.491   1.022  19.479  0.00  0.00    +0.000 HD
ENDBRANCH  22  23
ENDBRANCH  21  22
ENDBRANCH   5  21
TORSDOF 7
ENDMDL
MODEL 4
REMARK VINA RESULT:      -9.0      0.730      1.133
REMARK  Name = 
REMARK  7 active torsions:
REMARK  status: ('A' for Active; 'I' for Inactive)
REMARK    1  A    between atoms: C_2  and  C_3
REMARK    2  A    between atoms: C_6  and  C_7
REMARK    3  A    between atoms: C_8  and  C_9
REMARK    4  A    between atoms: N_11  and  C_12
REMARK    5  A    between atoms: C_16  and  O_17
REMARK    6  A    between atoms: O_17  and  C_18
REMARK    7  A    between atoms: C_18  and  C_19
REMARK                            x       y       z     vdW  Elec       q    Type
REMARK                         _______ _______ _______ _____ _____    ______ ____
ROOT
ATOM      1  C   UNL     1       6.136   6.200  16.734  0.00  0.00    +0.000 A 
ATOM      2  C   UNL     1       5.876   5.684  15.462  0.00  0.00    +0.000 A 
ATOM      3  C   UNL     1       5.270   4.436  15.310  0.00  0.00    +0.000 A 
ATOM      4  C   UNL     1       4.909   3.699  16.433  0.00  0.00    +0.000 A 
ATOM      5  C   UNL     1       5.149   4.204  17.711  0.00  0.00    +0.000 A 
ATOM      6  C   UNL     1       5.791   5.439  17.859  0.00  0.00    +0.000 A 
ENDROOT
BRANCH   1   9
ATOM      7  C   UNL     1       7.719   7.723  17.893  0.00  0.00    +0.000 C 
ATOM      8  O   UNL     1       8.245   6.909  18.645  0.00  0.00    +0.000 OA
ATOM      9  N   UNL     1       6.749   7.457  16.947  0.00  0.00    +0.000 N 
ATOM     10  H   UNL     1       6.508   8.191  16.294  0.00  0.00    +0.000 HD
BRANCH   7  12
ATOM     11  C   UNL     1       8.998   9.538  18.870  0.00  0.00    +0.000 C 
ATOM     12  C   UNL     1       8.145   9.150  17.908  0.00  0.00    +0.000 C 
BRANCH  11  16
ATOM     13  C   UNL     1      10.350  13.563  19.389  0.00  0.00    +0.000 A 
ATOM     14  C   UNL     1       9.834  13.134  18.164  0.00  0.00    +0.000 A 
ATOM     15  C   UNL     1       9.412  11.809  18.013  0.00  0.00    +0.000 A 
ATOM     16  C   UNL     1       9.509  10.898  19.075  0.00  0.00    +0.000 A 
ATOM     17  C   UNL     1      10.017  11.341  20.302  0.00  0.00    +0.000 A 
ATOM     18  C   UNL     1      10.440  12.666  20.456  0.00  0.00    +0.000 A 
BRANCH  13  20
ATOM     19  N   UNL     1      11.118  16.024  19.686  0.00  0.00    +0.000 NA
ATOM     20  C   UNL     1      10.776  14.921  19.552  0.00  0.00    +0.000 C 
ENDBRANCH  13  20
ENDBRANCH  11  16
ENDBRANCH   7  12
ENDBRANCH   1   9
BRANCH   5  21
ATOM     21  O   UNL     1       4.753   3.390  18.735  0.00  0.00    +0.000 OA
BRANCH  21  22
ATOM     22  C   UNL     1       3.848   3.966  19.680  0.00  0.00    +0.000 C 
BRANCH  22  23
ATOM     23  C   UNL     1       3.051   2.836  20.355  0.00  0.00    +0.000 C 
ATOM     24  C   UNL     1       2.457   1.878  19.312  0.00  0.00    +0.000 C 
ATOM     25  C   UNL     1       1.267   2.491  18.571  0.00  0.00    +0.000 C 
ATOM     26  N   UNL     1       0.234   2.962  19.494  0.00  0.00    +0.000 NA
ATOM     27  C   UNL     1       0.764   3.947  20.439  0.00  0.00    +0.000 C 
ATOM     28  C   UNL     1       1.925   3.380  21.253  0.00  0.00    +0.000 C 
ATOM     29  H   UNL     1      -0.125   2.165  20.021  0.00  0.00    +0.000 HD
ENDBRANCH  22  23
ENDBRANCH  21  22
ENDBRANCH   5  21
TORSDOF 7
ENDMDL
MODEL 5
REMARK VINA RESULT:      -8.8      0.916      1.199
REMARK  Name = 
REMARK  7 active torsions:
REMARK  status: ('A' for Active; 'I' for Inactive)
REMARK    1  A    between atoms: C_2  and  C_3
REMARK    2  A    between atoms: C_6  and  C_7
REMARK    3  A    between atoms: C_8  and  C_9
REMARK    4  A    between atoms: N_11  and  C_12
REMARK    5  A    between atoms: C_16  and  O_17
REMARK    6  A    between atoms: O_17  and  C_18
REMARK    7  A    between atoms: C_18  and  C_19
REMARK                            x       y       z     vdW  Elec       q    Type
REMARK                         _______ _______ _______ _____ _____    ______ ____
ROOT
ATOM      1  C   UNL     1       6.344   6.130  16.661  0.00  0.00    +0.000 A 
ATOM      2  C   UNL     1       6.601   5.363  15.522  0.00  0.00    +0.000 A 
ATOM      3  C   UNL     1       5.980   4.127  15.340  0.00  0.00    +0.000 A 
ATOM      4  C   UNL     1       5.085   3.654  16.293  0.00  0.00    +0.000 A 
ATOM      5  C   UNL     1       4.806   4.412  17.430  0.00  0.00    +0.000 A 
ATOM      6  C   UNL     1       5.459   5.634  17.628  0.00  0.00    +0.000 A 
ENDROOT
BRANCH   1   9
ATOM      7  C   UNL     1       7.807   7.679  17.937  0.00  0.00    +0.000 C 
ATOM      8  O   UNL     1       8.233   6.888  18.772  0.00  0.00    +0.000 OA
ATOM      9  N   UNL     1       6.946   7.388  16.897  0.00  0.00    +0.000 N 
ATOM     10  H   UNL     1       6.791   8.100  16.197  0.00  0.00    +0.000 HD
BRANCH   7  12
ATOM     11  C   UNL     1       9.094   9.485  18.921  0.00  0.00    +0.000 C 
ATOM     12  C   UNL     1       8.249   9.101  17.950  0.00  0.00    +0.000 C 
BRANCH  11  16
ATOM     13  C   UNL     1      10.512  13.492  19.400  0.00  0.00    +0.000 A 
ATOM     14  C   UNL     1      10.299  12.955  18.128  0.00  0.00    +0.000 A 
ATOM     15  C   UNL     1       9.850  11.637  17.995  0.00  0.00    +0.000 A 
ATOM     16  C   UNL     1       9.618  10.840  19.126  0.00  0.00    +0.000 A 
ATOM     17  C   UNL     1       9.824  11.390  20.396  0.00  0.00    +0.000 A 
ATOM     18  C   UNL     1      10.273  12.709  20.532  0.00  0.00    +0.000 A 
BRANCH  13  20
ATOM     19  N   UNL     1      11.331  15.941  19.654  0.00  0.00    +0.000 NA
ATOM     20  C   UNL     1      10.964  14.844  19.543  0.00  0.00    +0.000 C 
ENDBRANCH  13  20
ENDBRANCH  11  16
ENDBRANCH   7  12
ENDBRANCH   1   9
BRANCH   5  21
ATOM     21  O   UNL     1       3.912   3.843  18.296  0.00  0.00    +0.000 OA
BRANCH  21  22
ATOM     22  C   UNL     1       2.750   3.258  17.703  0.00  0.00    +0.000 C 
BRANCH  22  23
ATOM     23  C   UNL     1       1.500   3.846  18.380  0.00  0.00    +0.000 C 
ATOM     24  C   UNL     1       1.858   5.065  19.241  0.00  0.00    +0.000 C 
ATOM     25  C   UNL     1       2.571   4.673  20.536  0.00  0.00    +0.000 C 
ATOM     26  N   UNL     1       1.800   3.698  21.309  0.00  0.00    +0.000 NA
ATOM     27  C   UNL     1       1.528   2.488  20.531  0.00  0.00    +0.000 C 
ATOM     28  C   UNL     1       0.768   2.803  19.244  0.00  0.00    +0.000 C 
ATOM     29  H   UNL     1       0.910   4.120  21.577  0.00  0.00    +0.000 HD
ENDBRANCH  22  23
ENDBRANCH  21  22
ENDBRANCH   5  21
TORSDOF 7
ENDMDL
MODEL 6
REMARK VINA RESULT:      -8.5      1.205      1.734
REMARK  Name = 
REMARK  7 active torsions:
REMARK  status: ('A' for Active; 'I' for Inactive)
REMARK    1  A    between atoms: C_2  and  C_3
REMARK    2  A    between atoms: C_6  and  C_7
REMARK    3  A    between atoms: C_8  and  C_9
REMARK    4  A    between atoms: N_11  and  C_12
REMARK    5  A    between atoms: C_16  and  O_17
REMARK    6  A    between atoms: O_17  and  C_18
REMARK    7  A    between atoms: C_18  and  C_19
REMARK                            x       y       z     vdW  Elec       q    Type
REMARK                         _______ _______ _______ _____ _____    ______ ____
ROOT
ATOM      1  C   UNL     1       6.575   6.289  16.691  0.00  0.00    +0.000 A 
ATOM      2  C   UNL     1       6.956   5.437  15.651  0.00  0.00    +0.000 A 
ATOM      3  C   UNL     1       6.090   4.446  15.188  0.00  0.00    +0.000 A 
ATOM      4  C   UNL     1       4.828   4.308  15.756  0.00  0.00    +0.000 A 
ATOM      5  C   UNL     1       4.426   5.158  16.787  0.00  0.00    +0.000 A 
ATOM      6  C   UNL     1       5.311   6.126  17.274  0.00  0.00    +0.000 A 
ENDROOT
BRANCH   1   9
ATOM      7  C   UNL     1       8.076   7.267  18.412  0.00  0.00    +0.000 C 
ATOM      8  O   UNL     1       8.096   6.327  19.198  0.00  0.00    +0.000 OA
ATOM      9  N   UNL     1       7.413   7.308  17.201  0.00  0.00    +0.000 N 
ATOM     10  H   UNL     1       7.598   8.088  16.584  0.00  0.00    +0.000 HD
BRANCH   7  12
ATOM     11  C   UNL     1       8.406   9.658  18.168  0.00  0.00    +0.000 C 
ATOM     12  C   UNL     1       8.852   8.506  18.696  0.00  0.00    +0.000 C 
BRANCH  11  16
ATOM     13  C   UNL     1      10.409  13.420  18.540  0.00  0.00    +0.000 A 
ATOM     14  C   UNL     1      10.886  12.286  19.203  0.00  0.00    +0.000 A 
ATOM     15  C   UNL     1      10.206  11.070  19.080  0.00  0.00    +0.000 A 
ATOM     16  C   UNL     1       9.041  10.974  18.304  0.00  0.00    +0.000 A 
ATOM     17  C   UNL     1       8.578  12.112  17.634  0.00  0.00    +0.000 A 
ATOM     18  C   UNL     1       9.257  13.331  17.756  0.00  0.00    +0.000 A 
BRANCH  13  20
ATOM     19  N   UNL     1      11.672  15.677  18.754  0.00  0.00    +0.000 NA
ATOM     20  C   UNL     1      11.106  14.666  18.656  0.00  0.00    +0.000 C 
ENDBRANCH  13  20
ENDBRANCH  11  16
ENDBRANCH   7  12
ENDBRANCH   1   9
BRANCH   5  21
ATOM     21  O   UNL     1       3.166   4.925  17.266  0.00  0.00    +0.000 OA
BRANCH  21  22
ATOM     22  C   UNL     1       2.771   3.553  17.351  0.00  0.00    +0.000 C 
BRANCH  22  23
ATOM     23  C   UNL     1       3.040   3.048  18.779  0.00  0.00    +0.000 C 
ATOM     24  C   UNL     1       2.102   1.888  19.141  0.00  0.00    +0.000 C 
ATOM     25  C   UNL     1       0.671   2.358  19.406  0.00  0.00    +0.000 C 
ATOM     26  N   UNL     1       0.621   3.406  20.426  0.00  0.00    +0.000 NA
ATOM     27  C   UNL     1       1.440   4.561  20.052  0.00  0.00    +0.000 C 
ATOM     28  C   UNL     1       2.899   4.170  19.824  0.00  0.00    +0.000 C 
ATOM     29  H   UNL     1       0.975   3.026  21.305  0.00  0.00    +0.000 HD
ENDBRANCH  22  23
ENDBRANCH  21  22
ENDBRANCH   5  21
TORSDOF 7
ENDMDL
MODEL 7
REMARK VINA RESULT:      -8.4      1.175      1.456
REMARK  Name = 
REMARK  7 active torsions:
REMARK  status: ('A' for Active; 'I' for Inactive)
REMARK    1  A    between atoms: C_2  and  C_3
REMARK    2  A    between atoms: C_6  and  C_7
REMARK    3  A    between atoms: C_8  and  C_9
REMARK    4  A    between atoms: N_11  and  C_12
REMARK    5  A    between atoms: C_16  and  O_17
REMARK    6  A    between atoms: O_17  and  C_18
REMARK    7  A    between atoms: C_18  and  C_19
REMARK                            x       y       z     vdW  Elec       q    Type
REMARK                         _______ _______ _______ _____ _____    ______ ____
ROOT
ATOM      1  C   UNL     1       6.512   6.047  16.600  0.00  0.00    +0.000 A 
ATOM      2  C   UNL     1       6.832   5.461  15.372  0.00  0.00    +0.000 A 
ATOM      3  C   UNL     1       6.064   4.415  14.861  0.00  0.00    +0.000 A 
ATOM      4  C   UNL     1       4.959   3.954  15.570  0.00  0.00    +0.000 A 
ATOM      5  C   UNL     1       4.617   4.537  16.790  0.00  0.00    +0.000 A 
ATOM      6  C   UNL     1       5.411   5.560  17.318  0.00  0.00    +0.000 A 
ENDROOT
BRANCH   1   9
ATOM      7  C   UNL     1       7.944   7.052  18.363  0.00  0.00    +0.000 C 
ATOM      8  O   UNL     1       8.071   6.068  19.083  0.00  0.00    +0.000 OA
ATOM      9  N   UNL     1       7.256   7.108  17.167  0.00  0.00    +0.000 N 
ATOM     10  H   UNL     1       7.352   7.941  16.602  0.00  0.00    +0.000 HD
BRANCH   7  12
ATOM     11  C   UNL     1       8.361   9.403  17.936  0.00  0.00    +0.000 C 
ATOM     12  C   UNL     1       8.601   8.340  18.721  0.00  0.00    +0.000 C 
BRANCH  11  16
ATOM     13  C   UNL     1       9.875  13.369  18.459  0.00  0.00    +0.000 A 
ATOM     14  C   UNL     1       8.669  13.146  17.792  0.00  0.00    +0.000 A 
ATOM     15  C   UNL     1       8.200  11.839  17.619  0.00  0.00    +0.000 A 
ATOM     16  C   UNL     1       8.933  10.745  18.100  0.00  0.00    +0.000 A 
ATOM     17  C   UNL     1      10.135  10.979  18.777  0.00  0.00    +0.000 A 
ATOM     18  C   UNL     1      10.606  12.286  18.951  0.00  0.00    +0.000 A 
BRANCH  13  20
ATOM     19  N   UNL     1      10.742  15.792  18.800  0.00  0.00    +0.000 NA
ATOM     20  C   UNL     1      10.355  14.706  18.647  0.00  0.00    +0.000 C 
ENDBRANCH  13  20
ENDBRANCH  11  16
ENDBRANCH   7  12
ENDBRANCH   1   9
BRANCH   5  21
ATOM     21  O   UNL     1       3.513   3.999  17.394  0.00  0.00    +0.000 OA
BRANCH  21  22
ATOM     22  C   UNL     1       2.767   4.881  18.236  0.00  0.00    +0.000 C 
BRANCH  22  23
ATOM     23  C   UNL     1       1.519   4.140  18.747  0.00  0.00    +0.000 C 
ATOM     24  C   UNL     1       1.141   4.604  20.161  0.00  0.00    +0.000 C 
ATOM     25  C   UNL     1       2.097   4.061  21.225  0.00  0.00    +0.000 C 
ATOM     26  N   UNL     1       2.206   2.603  21.168  0.00  0.00    +0.000 NA
ATOM     27  C   UNL     1       2.655   2.149  19.850  0.00  0.00    +0.000 C 
ATOM     28  C   UNL     1       1.713   2.613  18.741  0.00  0.00    +0.000 C 
ATOM     29  H   UNL     1       1.289   2.196  21.358  0.00  0.00    +0.000 HD
ENDBRANCH  22  23
ENDBRANCH  21  22
ENDBRANCH   5  21
TORSDOF 7
ENDMDL
MODEL 8
REMARK VINA RESULT:      -8.4      1.347      1.741
REMARK  Name = 
REMARK  7 active torsions:
REMARK  status: ('A' for Active; 'I' for Inactive)
REMARK    1  A    between atoms: C_2  and  C_3
REMARK    2  A    between atoms: C_6  and  C_7
REMARK    3  A    between atoms: C_8  and  C_9
REMARK    4  A    between atoms: N_11  and  C_12
REMARK    5  A    between atoms: C_16  and  O_17
REMARK    6  A    between atoms: O_17  and  C_18
REMARK    7  A    between atoms: C_18  and  C_19
REMARK                            x       y       z     vdW  Elec       q    Type
REMARK                         _______ _______ _______ _____ _____    ______ ____
ROOT
ATOM      1  C   UNL     1       6.316   6.006  16.411  0.00  0.00    +0.000 A 
ATOM      2  C   UNL     1       6.264   5.486  15.115  0.00  0.00    +0.000 A 
ATOM      3  C   UNL     1       5.640   4.264  14.863  0.00  0.00    +0.000 A 
ATOM      4  C   UNL     1       5.049   3.558  15.906  0.00  0.00    +0.000 A 
ATOM      5  C   UNL     1       5.079   4.070  17.204  0.00  0.00    +0.000 A 
ATOM      6  C   UNL     1       5.739   5.277  17.459  0.00  0.00    +0.000 A 
ENDROOT
BRANCH   1   9
ATOM      7  C   UNL     1       7.724   7.476  17.834  0.00  0.00    +0.000 C 
ATOM      8  O   UNL     1       8.059   6.653  18.678  0.00  0.00    +0.000 OA
ATOM      9  N   UNL     1       6.937   7.238  16.724  0.00  0.00    +0.000 N 
ATOM     10  H   UNL     1       6.858   7.970  16.032  0.00  0.00    +0.000 HD
BRANCH   7  12
ATOM     11  C   UNL     1       8.931   9.233  18.992  0.00  0.00    +0.000 C 
ATOM     12  C   UNL     1       8.207   8.883  17.916  0.00  0.00    +0.000 C 
BRANCH  11  16
ATOM     13  C   UNL     1      10.396  13.190  19.695  0.00  0.00    +0.000 A 
ATOM     14  C   UNL     1      10.242  12.704  18.394  0.00  0.00    +0.000 A 
ATOM     15  C   UNL     1       9.776  11.402  18.188  0.00  0.00    +0.000 A 
ATOM     16  C   UNL     1       9.469  10.569  19.274  0.00  0.00    +0.000 A 
ATOM     17  C   UNL     1       9.616  11.069  20.573  0.00  0.00    +0.000 A 
ATOM     18  C   UNL     1      10.083  12.372  20.782  0.00  0.00    +0.000 A 
BRANCH  13  20
ATOM     19  N   UNL     1      11.242  15.612  20.087  0.00  0.00    +0.000 NA
ATOM     20  C   UNL     1      10.865  14.526  19.911  0.00  0.00    +0.000 C 
ENDBRANCH  13  20
ENDBRANCH  11  16
ENDBRANCH   7  12
ENDBRANCH   1   9
BRANCH   5  21
ATOM     21  O   UNL     1       4.468   3.287  18.144  0.00  0.00    +0.000 OA
BRANCH  21  22
ATOM     22  C   UNL     1       3.900   3.976  19.260  0.00  0.00    +0.000 C 
BRANCH  22  23
ATOM     23  C   UNL     1       2.454   4.374  18.914  0.00  0.00    +0.000 C 
ATOM     24  C   UNL     1       2.399   5.783  18.308  0.00  0.00    +0.000 C 
ATOM     25  C   UNL     1       2.617   6.875  19.357  0.00  0.00    +0.000 C 
ATOM     26  N   UNL     1       1.682   6.752  20.476  0.00  0.00    +0.000 NA
ATOM     27  C   UNL     1       1.787   5.443  21.123  0.00  0.00    +0.000 C 
ATOM     28  C   UNL     1       1.527   4.303  20.140  0.00  0.00    +0.000 C 
ATOM     29  H   UNL     1       0.730   6.866  20.124  0.00  0.00    +0.000 HD
ENDBRANCH  22  23
ENDBRANCH  21  22
ENDBRANCH   5  21
TORSDOF 7
ENDMDL
MODEL 9
REMARK VINA RESULT:      -8.4      1.188      1.763
REMARK  Name = 
REMARK  7 active torsions:
REMARK  status: ('A' for Active; 'I' for Inactive)
REMARK    1  A    between atoms: C_2  and  C_3
REMARK    2  A    between atoms: C_6  and  C_7
REMARK    3  A    between atoms: C_8  and  C_9
REMARK    4  A    between atoms: N_11  and  C_12
REMARK    5  A    between atoms: C_16  and  O_17
REMARK    6  A    between atoms: O_17  and  C_18
REMARK    7  A    between atoms: C_18  and  C_19
REMARK                            x       y       z     vdW  Elec       q    Type
REMARK                         _______ _______ _______ _____ _____    ______ ____
ROOT
ATOM      1  C   UNL     1       6.551   5.921  16.624  0.00  0.00    +0.000 A 
ATOM      2  C   UNL     1       6.722   5.459  15.317  0.00  0.00    +0.000 A 
ATOM      3  C   UNL     1       5.935   4.419  14.821  0.00  0.00    +0.000 A 
ATOM      4  C   UNL     1       4.960   3.841  15.628  0.00  0.00    +0.000 A 
ATOM      5  C   UNL     1       4.766   4.299  16.931  0.00  0.00    +0.000 A 
ATOM      6  C   UNL     1       5.582   5.316  17.438  0.00  0.00    +0.000 A 
ENDROOT
BRANCH   1   9
ATOM      7  C   UNL     1       7.936   6.941  18.415  0.00  0.00    +0.000 C 
ATOM      8  O   UNL     1       7.968   5.992  19.190  0.00  0.00    +0.000 OA
ATOM      9  N   UNL     1       7.321   6.970  17.180  0.00  0.00    +0.000 N 
ATOM     10  H   UNL     1       7.494   7.766  16.581  0.00  0.00    +0.000 HD
BRANCH   7  12
ATOM     11  C   UNL     1       8.274   9.322  18.089  0.00  0.00    +0.000 C 
ATOM     12  C   UNL     1       8.644   8.210  18.745  0.00  0.00    +0.000 C 
BRANCH  11  16
ATOM     13  C   UNL     1      10.150  13.141  18.525  0.00  0.00    +0.000 A 
ATOM     14  C   UNL     1      10.648  12.018  19.190  0.00  0.00    +0.000 A 
ATOM     15  C   UNL     1      10.009  10.782  19.045  0.00  0.00    +0.000 A 
ATOM     16  C   UNL     1       8.865  10.656  18.245  0.00  0.00    +0.000 A 
ATOM     17  C   UNL     1       8.380  11.784  17.574  0.00  0.00    +0.000 A 
ATOM     18  C   UNL     1       9.017  13.022  17.717  0.00  0.00    +0.000 A 
BRANCH  13  20
ATOM     19  N   UNL     1      11.342  15.433  18.776  0.00  0.00    +0.000 NA
ATOM     20  C   UNL     1      10.806  14.407  18.664  0.00  0.00    +0.000 C 
ENDBRANCH  13  20
ENDBRANCH  11  16
ENDBRANCH   7  12
ENDBRANCH   1   9
BRANCH   5  21
ATOM     21  O   UNL     1       3.782   3.653  17.627  0.00  0.00    +0.000 OA
BRANCH  21  22
ATOM     22  C   UNL     1       2.831   4.490  18.291  0.00  0.00    +0.000 C 
BRANCH  22  23
ATOM     23  C   UNL     1       1.750   3.600  18.929  0.00  0.00    +0.000 C 
ATOM     24  C   UNL     1       1.082   4.308  20.116  0.00  0.00    +0.000 C 
ATOM     25  C   UNL     1       1.990   4.362  21.346  0.00  0.00    +0.000 C 
ATOM     26  N   UNL     1       2.465   3.033  21.733  0.00  0.00    +0.000 NA
ATOM     27  C   UNL     1       3.185   2.380  20.638  0.00  0.00    +0.000 C 
ATOM     28  C   UNL     1       2.315   2.245  19.390  0.00  0.00    +0.000 C 
ATOM     29  H   UNL     1       1.661   2.456  21.984  0.00  0.00    +0.000 HD
ENDBRANCH  22  23
ENDBRANCH  21  22
ENDBRANCH   5  21
TORSDOF 7
ENDMDL
