MODEL 1
REMARK VINA RESULT:      -8.9      0.000      0.000
REMARK  Name = 
REMARK  8 active torsions:
REMARK  status: ('A' for Active; 'I' for Inactive)
REMARK    1  A    between atoms: C_1  and  C_2
REMARK    2  A    between atoms: C_2  and  C_3
REMARK    3  A    between atoms: N_10  and  C_11
REMARK    4  A    between atoms: C_14  and  O_15
REMARK    5  A    between atoms: O_15  and  C_16
REMARK    6  A    between atoms: C_16  and  C_17
REMARK    7  A    between atoms: C_20  and  S_21
REMARK    8  A    between atoms: S_21  and  N_22
REMARK                            x       y       z     vdW  Elec       q    Type
REMARK                         _______ _______ _______ _____ _____    ______ ____
ROOT
ATOM      1  C   UNL     1       2.863   6.364  19.179  0.00  0.00    +0.000 A 
ATOM      2  C   UNL     1       2.200   7.072  20.181  0.00  0.00    +0.000 A 
ATOM      3  C   UNL     1       1.600   8.304  19.934  0.00  0.00    +0.000 A 
ATOM      4  C   UNL     1       1.740   8.921  18.707  0.00  0.00    +0.000 A 
ATOM      5  C   UNL     1       2.400   8.256  17.680  0.00  0.00    +0.000 A 
ATOM      6  C   UNL     1       2.914   6.980  17.919  0.00  0.00    +0.000 A 
ENDROOT
BRANCH   1  16
ATOM      7  C   UNL     1       2.026   3.788  17.841  0.00  0.00    +0.000 C 
ATOM      8  C   UNL     1       2.518   3.911  19.298  0.00  0.00    +0.000 C 
ATOM      9  C   UNL     1       1.292   3.969  20.227  0.00  0.00    +0.000 C 
ATOM     10  N   UNL     1       3.134   2.627  19.632  0.00  0.00    +0.000 NA
ATOM     11  C   UNL     1       4.412   2.569  19.661  0.00  0.00    +0.000 C 
ATOM     12  N   UNL     1       4.993   1.384  19.973  0.00  0.00    +0.000 N 
ATOM     13  N   UNL     1       5.251   3.586  19.371  0.00  0.00    +0.000 NA
ATOM     14  C   UNL     1       4.751   4.777  19.296  0.00  0.00    +0.000 C 
ATOM     15  N   UNL     1       5.641   5.787  19.079  0.00  0.00    +0.000 N 
ATOM     16  N   UNL     1       3.412   5.090  19.433  0.00  0.00    +0.000 N 
ATOM     17  H   UNL     1       4.386   0.600  19.793  0.00  0.00    +0.000 HD
ATOM     18  H   UNL     1       5.926   1.301  19.587  0.00  0.00    +0.000 HD
ATOM     19  H   UNL     1       6.602   5.510  19.234  0.00  0.00    +0.000 HD
ATOM     20  H   UNL     1       5.403   6.664  19.526  0.00  0.00    +0.000 HD
ENDBRANCH   1  16
BRANCH   4  21
ATOM     21  O   UNL     1       1.227  10.176  18.506  0.00  0.00    +0.000 OA
BRANCH  21  22
ATOM     22  C   UNL     1       0.510  10.685  19.652  0.00  0.00    +0.000 C 
BRANCH  22  23
ATOM     23  C   UNL     1      -0.909  10.963  19.256  0.00  0.00    +0.000 A 
ATOM     24  C   UNL     1      -1.505  10.184  18.259  0.00  0.00    +0.000 A 
ATOM     25  C   UNL     1      -2.813  10.437  17.870  0.00  0.00    +0.000 A 
ATOM     26  C   UNL     1      -3.524  11.463  18.487  0.00  0.00    +0.000 A 
ATOM     27  C   UNL     1      -2.954  12.242  19.496  0.00  0.00    +0.000 A 
ATOM     28  C   UNL     1      -1.643  11.984  19.883  0.00  0.00    +0.000 A 
BRANCH  26  29
ATOM     29  S   UNL     1      -5.183  11.782  17.971  0.00  0.00    +0.000 S 
ATOM     30  O   UNL     1      -5.181  12.261  16.627  0.00  0.00    +0.000 OA
ATOM     31  O   UNL     1      -6.031  10.690  18.422  0.00  0.00    +0.000 OA
BRANCH  29  32
ATOM     32  N   UNL     1      -5.530  13.090  18.968  0.00  0.00    +0.000 NA
ATOM     33  H   UNL     1      -4.726  13.710  19.068  0.00  0.00    +0.000 HD
ATOM     34  H   UNL     1      -6.416  13.529  18.733  0.00  0.00    +0.000 HD
ENDBRANCH  29  32
ENDBRANCH  26  29
ENDBRANCH  22  23
ENDBRANCH  21  22
ENDBRANCH   4  21
TORSDOF 6
ENDMDL
MODEL 2
REMARK VINA RESULT:      -8.8      0.797      1.526
REMARK  Name = 
REMARK  8 active torsions:
REMARK  status: ('A' for Active; 'I' for Inactive)
REMARK    1  A    between atoms: C_1  and  C_2
REMARK    2  A    between atoms: C_2  and  C_3
REMARK    3  A    between atoms: N_10  and  C_11
REMARK    4  A    between atoms: C_14  and  O_15
REMARK    5  A    between atoms: O_15  and  C_16
REMARK    6  A    between atoms: C_16  and  C_17
REMARK    7  A    between atoms: C_20  and  S_21
REMARK    8  A    between atoms: S_21  and  N_22
REMARK                            x       y       z     vdW  Elec       q    Type
REMARK                         _______ _______ _______ _____ _____    ______ ____
ROOT
ATOM      1  C   UNL     1       2.445   6.057  19.560  0.00  0.00    +0.000 A 
ATOM      2  C   UNL     1       2.514   6.984  18.521  0.00  0.00    +0.000 A 
ATOM      3  C   UNL     1       2.106   8.305  18.688  0.00  0.00    +0.000 A 
ATOM      4  C   UNL     1       1.510   8.713  19.864  0.00  0.00    +0.000 A 
ATOM      5  C   UNL     1       1.411   7.821  20.925  0.00  0.00    +0.000 A 
ATOM      6  C   UNL     1       1.912   6.527  20.771  0.00  0.00    +0.000 A 
ENDROOT
BRANCH   1  16
ATOM      7  C   UNL     1       1.421   4.069  17.530  0.00  0.00    +0.000 C 
ATOM      8  C   UNL     1       1.949   3.710  18.934  0.00  0.00    +0.000 C 
ATOM      9  C   UNL     1       0.749   3.543  19.883  0.00  0.00    +0.000 C 
ATOM     10  N   UNL     1       2.490   2.353  18.834  0.00  0.00    +0.000 NA
ATOM     11  C   UNL     1       3.762   2.221  18.794  0.00  0.00    +0.000 C 
ATOM     12  N   UNL     1       4.274   0.969  18.704  0.00  0.00    +0.000 N 
ATOM     13  N   UNL     1       4.657   3.232  18.798  0.00  0.00    +0.000 NA
ATOM     14  C   UNL     1       4.232   4.412  19.112  0.00  0.00    +0.000 C 
ATOM     15  N   UNL     1       5.179   5.392  19.181  0.00  0.00    +0.000 N 
ATOM     16  N   UNL     1       2.919   4.739  19.390  0.00  0.00    +0.000 N 
ATOM     17  H   UNL     1       3.615   0.312  18.316  0.00  0.00    +0.000 HD
ATOM     18  H   UNL     1       5.191   0.959  18.276  0.00  0.00    +0.000 HD
ATOM     19  H   UNL     1       6.124   5.029  19.205  0.00  0.00    +0.000 HD
ATOM     20  H   UNL     1       5.006   6.099  19.884  0.00  0.00    +0.000 HD
ENDBRANCH   1  16
BRANCH   4  21
ATOM     21  O   UNL     1       1.025   9.990  19.982  0.00  0.00    +0.000 OA
BRANCH  21  22
ATOM     22  C   UNL     1       0.817  10.637  18.708  0.00  0.00    +0.000 C 
BRANCH  22  23
ATOM     23  C   UNL     1      -0.651  10.873  18.515  0.00  0.00    +0.000 A 
ATOM     24  C   UNL     1      -1.266  11.936  19.184  0.00  0.00    +0.000 A 
ATOM     25  C   UNL     1      -2.627  12.159  19.027  0.00  0.00    +0.000 A 
ATOM     26  C   UNL     1      -3.367  11.323  18.195  0.00  0.00    +0.000 A 
ATOM     27  C   UNL     1      -2.770  10.266  17.505  0.00  0.00    +0.000 A 
ATOM     28  C   UNL     1      -1.405  10.046  17.664  0.00  0.00    +0.000 A 
BRANCH  26  29
ATOM     29  S   UNL     1      -5.101  11.611  18.018  0.00  0.00    +0.000 S 
ATOM     30  O   UNL     1      -5.368  12.129  16.716  0.00  0.00    +0.000 OA
ATOM     31  O   UNL     1      -5.822  10.482  18.585  0.00  0.00    +0.000 OA
BRANCH  29  32
ATOM     32  N   UNL     1      -5.278  12.878  19.107  0.00  0.00    +0.000 NA
ATOM     33  H   UNL     1      -4.488  12.935  19.750  0.00  0.00    +0.000 HD
ATOM     34  H   UNL     1      -5.555  13.743  18.650  0.00  0.00    +0.000 HD
ENDBRANCH  29  32
ENDBRANCH  26  29
ENDBRANCH  22  23
ENDBRANCH  21  22
ENDBRANCH   4  21
TORSDOF 6
ENDMDL
MODEL 3
REMARK VINA RESULT:      -8.8      1.003      1.479
REMARK  Name = 
REMARK  8 active torsions:
REMARK  status: ('A' for Active; 'I' for Inactive)
REMARK    1  A    between atoms: C_1  and  C_2
REMARK    2  A    between atoms: C_2  and  C_3
REMARK    3  A    between atoms: N_10  and  C_11
REMARK    4  A    between atoms: C_14  and  O_15
REMARK    5  A    between atoms: O_15  and  C_16
REMARK    6  A    between atoms: C_16  and  C_17
REMARK    7  A    between atoms: C_20  and  S_21
REMARK    8  A    between atoms: S_21  and  N_22
REMARK                            x       y       z     vdW  Elec       q    Type
REMARK                         _______ _______ _______ _____ _____    ______ ____
ROOT
ATOM      1  C   UNL     1       2.488   6.008  19.538  0.00  0.00    +0.000 A 
ATOM      2  C   UNL     1       1.879   6.457  20.709  0.00  0.00    +0.000 A 
ATOM      3  C   UNL     1       1.335   7.734  20.810  0.00  0.00    +0.000 A 
ATOM      4  C   UNL     1       1.483   8.644  19.782  0.00  0.00    +0.000 A 
ATOM      5  C   UNL     1       2.090   8.244  18.598  0.00  0.00    +0.000 A 
ATOM      6  C   UNL     1       2.545   6.929  18.481  0.00  0.00    +0.000 A 
ENDROOT
BRANCH   1  16
ATOM      7  C   UNL     1       1.538   3.925  17.567  0.00  0.00    +0.000 C 
ATOM      8  C   UNL     1       2.033   3.631  18.998  0.00  0.00    +0.000 C 
ATOM      9  C   UNL     1       0.810   3.490  19.922  0.00  0.00    +0.000 C 
ATOM     10  N   UNL     1       2.591   2.278  18.969  0.00  0.00    +0.000 NA
ATOM     11  C   UNL     1       3.865   2.159  18.966  0.00  0.00    +0.000 C 
ATOM     12  N   UNL     1       4.392   0.910  18.942  0.00  0.00    +0.000 N 
ATOM     13  N   UNL     1       4.749   3.180  18.951  0.00  0.00    +0.000 NA
ATOM     14  C   UNL     1       4.303   4.367  19.204  0.00  0.00    +0.000 C 
ATOM     15  N   UNL     1       5.237   5.359  19.256  0.00  0.00    +0.000 N 
ATOM     16  N   UNL     1       2.979   4.690  19.435  0.00  0.00    +0.000 N 
ATOM     17  H   UNL     1       3.750   0.230  18.565  0.00  0.00    +0.000 HD
ATOM     18  H   UNL     1       5.320   0.893  18.538  0.00  0.00    +0.000 HD
ATOM     19  H   UNL     1       6.185   5.009  19.320  0.00  0.00    +0.000 HD
ATOM     20  H   UNL     1       5.039   6.093  19.924  0.00  0.00    +0.000 HD
ENDBRANCH   1  16
BRANCH   4  21
ATOM     21  O   UNL     1       1.027   9.929  19.931  0.00  0.00    +0.000 OA
BRANCH  21  22
ATOM     22  C   UNL     1       0.759  10.584  18.672  0.00  0.00    +0.000 C 
BRANCH  22  23
ATOM     23  C   UNL     1      -0.718  10.813  18.546  0.00  0.00    +0.000 A 
ATOM     24  C   UNL     1      -1.329  11.784  19.346  0.00  0.00    +0.000 A 
ATOM     25  C   UNL     1      -2.697  11.998  19.252  0.00  0.00    +0.000 A 
ATOM     26  C   UNL     1      -3.448  11.247  18.352  0.00  0.00    +0.000 A 
ATOM     27  C   UNL     1      -2.855  10.284  17.532  0.00  0.00    +0.000 A 
ATOM     28  C   UNL     1      -1.483  10.073  17.629  0.00  0.00    +0.000 A 
BRANCH  26  29
ATOM     29  S   UNL     1      -5.190  11.521  18.255  0.00  0.00    +0.000 S 
ATOM     30  O   UNL     1      -5.882  10.346  18.678  0.00  0.00    +0.000 OA
ATOM     31  O   UNL     1      -5.484  12.845  18.778  0.00  0.00    +0.000 OA
BRANCH  29  32
ATOM     32  N   UNL     1      -5.356  11.626  16.586  0.00  0.00    +0.000 NA
ATOM     33  H   UNL     1      -4.475  11.433  16.108  0.00  0.00    +0.000 HD
ATOM     34  H   UNL     1      -6.175  11.127  16.248  0.00  0.00    +0.000 HD
ENDBRANCH  29  32
ENDBRANCH  26  29
ENDBRANCH  22  23
ENDBRANCH  21  22
ENDBRANCH   4  21
TORSDOF 6
ENDMDL
MODEL 4
REMARK VINA RESULT:      -8.8      1.029      1.484
REMARK  Name = 
REMARK  8 active torsions:
REMARK  status: ('A' for Active; 'I' for Inactive)
REMARK    1  A    between atoms: C_1  and  C_2
REMARK    2  A    between atoms: C_2  and  C_3
REMARK    3  A    between atoms: N_10  and  C_11
REMARK    4  A    between atoms: C_14  and  O_15
REMARK    5  A    between atoms: O_15  and  C_16
REMARK    6  A    between atoms: C_16  and  C_17
REMARK    7  A    between atoms: C_20  and  S_21
REMARK    8  A    between atoms: S_21  and  N_22
REMARK                            x       y       z     vdW  Elec       q    Type
REMARK                         _______ _______ _______ _____ _____    ______ ____
ROOT
ATOM      1  C   UNL     1       2.476   6.001  19.538  0.00  0.00    +0.000 A 
ATOM      2  C   UNL     1       2.556   6.901  18.476  0.00  0.00    +0.000 A 
ATOM      3  C   UNL     1       2.146   8.225  18.604  0.00  0.00    +0.000 A 
ATOM      4  C   UNL     1       1.538   8.664  19.763  0.00  0.00    +0.000 A 
ATOM      5  C   UNL     1       1.429   7.800  20.846  0.00  0.00    +0.000 A 
ATOM      6  C   UNL     1       1.931   6.502  20.731  0.00  0.00    +0.000 A 
ENDROOT
BRANCH   1  16
ATOM      7  C   UNL     1       1.467   3.958  17.555  0.00  0.00    +0.000 C 
ATOM      8  C   UNL     1       1.985   3.637  18.972  0.00  0.00    +0.000 C 
ATOM      9  C   UNL     1       0.777   3.496  19.916  0.00  0.00    +0.000 C 
ATOM     10  N   UNL     1       2.526   2.279  18.913  0.00  0.00    +0.000 NA
ATOM     11  C   UNL     1       3.798   2.146  18.886  0.00  0.00    +0.000 C 
ATOM     12  N   UNL     1       4.311   0.891  18.834  0.00  0.00    +0.000 N 
ATOM     13  N   UNL     1       4.693   3.157  18.870  0.00  0.00    +0.000 NA
ATOM     14  C   UNL     1       4.266   4.345  19.148  0.00  0.00    +0.000 C 
ATOM     15  N   UNL     1       5.212   5.326  19.198  0.00  0.00    +0.000 N 
ATOM     16  N   UNL     1       2.950   4.679  19.407  0.00  0.00    +0.000 N 
ATOM     17  H   UNL     1       3.654   0.225  18.459  0.00  0.00    +0.000 HD
ATOM     18  H   UNL     1       5.231   0.870  18.413  0.00  0.00    +0.000 HD
ATOM     19  H   UNL     1       6.157   4.964  19.239  0.00  0.00    +0.000 HD
ATOM     20  H   UNL     1       5.034   6.051  19.881  0.00  0.00    +0.000 HD
ENDBRANCH   1  16
BRANCH   4  21
ATOM     21  O   UNL     1       1.053   9.943  19.843  0.00  0.00    +0.000 OA
BRANCH  21  22
ATOM     22  C   UNL     1       0.724  10.506  18.554  0.00  0.00    +0.000 C 
BRANCH  22  23
ATOM     23  C   UNL     1      -0.753  10.756  18.493  0.00  0.00    +0.000 A 
ATOM     24  C   UNL     1      -1.532  10.026  17.589  0.00  0.00    +0.000 A 
ATOM     25  C   UNL     1      -2.899  10.254  17.510  0.00  0.00    +0.000 A 
ATOM     26  C   UNL     1      -3.483  11.207  18.340  0.00  0.00    +0.000 A 
ATOM     27  C   UNL     1      -2.727  11.935  19.261  0.00  0.00    +0.000 A 
ATOM     28  C   UNL     1      -1.357  11.702  19.338  0.00  0.00    +0.000 A 
BRANCH  26  29
ATOM     29  S   UNL     1      -5.221  11.497  18.216  0.00  0.00    +0.000 S 
ATOM     30  O   UNL     1      -5.931  10.346  18.670  0.00  0.00    +0.000 OA
ATOM     31  O   UNL     1      -5.505  12.842  18.694  0.00  0.00    +0.000 OA
BRANCH  29  32
ATOM     32  N   UNL     1      -5.369  11.551  16.543  0.00  0.00    +0.000 NA
ATOM     33  H   UNL     1      -4.506  11.264  16.080  0.00  0.00    +0.000 HD
ATOM     34  H   UNL     1      -6.226  11.112  16.219  0.00  0.00    +0.000 HD
ENDBRANCH  29  32
ENDBRANCH  26  29
ENDBRANCH  22  23
ENDBRANCH  21  22
ENDBRANCH   4  21
TORSDOF 6
ENDMDL
MODEL 5
REMARK VINA RESULT:      -8.8      0.685      1.160
REMARK  Name = 
REMARK  8 active torsions:
REMARK  status: ('A' for Active; 'I' for Inactive)
REMARK    1  A    between atoms: C_1  and  C_2
REMARK    2  A    between atoms: C_2  and  C_3
REMARK    3  A    between atoms: N_10  and  C_11
REMARK    4  A    between atoms: C_14  and  O_15
REMARK    5  A    between atoms: O_15  and  C_16
REMARK    6  A    between atoms: C_16  and  C_17
REMARK    7  A    between atoms: C_20  and  S_21
REMARK    8  A    between atoms: S_21  and  N_22
REMARK                            x       y       z     vdW  Elec       q    Type
REMARK                         _______ _______ _______ _____ _____    ______ ____
ROOT
ATOM      1  C   UNL     1       2.597   6.201  19.603  0.00  0.00    +0.000 A 
ATOM      2  C   UNL     1       2.589   6.914  18.405  0.00  0.00    +0.000 A 
ATOM      3  C   UNL     1       2.050   8.194  18.316  0.00  0.00    +0.000 A 
ATOM      4  C   UNL     1       1.400   8.760  19.395  0.00  0.00    +0.000 A 
ATOM      5  C   UNL     1       1.375   8.083  20.608  0.00  0.00    +0.000 A 
ATOM      6  C   UNL     1       2.003   6.840  20.704  0.00  0.00    +0.000 A 
ENDROOT
BRANCH   1  16
ATOM      7  C   UNL     1       1.755   3.749  18.054  0.00  0.00    +0.000 C 
ATOM      8  C   UNL     1       2.336   3.739  19.483  0.00  0.00    +0.000 C 
ATOM      9  C   UNL     1       1.171   3.654  20.486  0.00  0.00    +0.000 C 
ATOM     10  N   UNL     1       3.011   2.450  19.642  0.00  0.00    +0.000 NA
ATOM     11  C   UNL     1       4.289   2.437  19.586  0.00  0.00    +0.000 C 
ATOM     12  N   UNL     1       4.925   1.249  19.735  0.00  0.00    +0.000 N 
ATOM     13  N   UNL     1       5.076   3.510  19.355  0.00  0.00    +0.000 NA
ATOM     14  C   UNL     1       4.536   4.682  19.437  0.00  0.00    +0.000 C 
ATOM     15  N   UNL     1       5.379   5.742  19.274  0.00  0.00    +0.000 N 
ATOM     16  N   UNL     1       3.200   4.930  19.688  0.00  0.00    +0.000 N 
ATOM     17  H   UNL     1       4.331   0.466  19.511  0.00  0.00    +0.000 HD
ATOM     18  H   UNL     1       5.833   1.241  19.287  0.00  0.00    +0.000 HD
ATOM     19  H   UNL     1       6.356   5.486  19.339  0.00  0.00    +0.000 HD
ATOM     20  H   UNL     1       5.144   6.558  19.825  0.00  0.00    +0.000 HD
ENDBRANCH   1  16
BRANCH   4  21
ATOM     21  O   UNL     1       0.790   9.981  19.267  0.00  0.00    +0.000 OA
BRANCH  21  22
ATOM     22  C   UNL     1       0.294  10.230  17.933  0.00  0.00    +0.000 C 
BRANCH  22  23
ATOM     23  C   UNL     1      -1.161  10.582  18.012  0.00  0.00    +0.000 A 
ATOM     24  C   UNL     1      -2.069   9.928  17.172  0.00  0.00    +0.000 A 
ATOM     25  C   UNL     1      -3.417  10.253  17.222  0.00  0.00    +0.000 A 
ATOM     26  C   UNL     1      -3.855  11.225  18.116  0.00  0.00    +0.000 A 
ATOM     27  C   UNL     1      -2.968  11.879  18.975  0.00  0.00    +0.000 A 
ATOM     28  C   UNL     1      -1.618  11.550  18.923  0.00  0.00    +0.000 A 
BRANCH  26  29
ATOM     29  S   UNL     1      -5.572  11.638  18.157  0.00  0.00    +0.000 S 
ATOM     30  O   UNL     1      -5.904  12.413  17.006  0.00  0.00    +0.000 OA
ATOM     31  O   UNL     1      -6.325  10.462  18.564  0.00  0.00    +0.000 OA
BRANCH  29  32
ATOM     32  N   UNL     1      -5.570  12.677  19.478  0.00  0.00    +0.000 NA
ATOM     33  H   UNL     1      -5.116  12.254  20.288  0.00  0.00    +0.000 HD
ATOM     34  H   UNL     1      -5.271  13.616  19.229  0.00  0.00    +0.000 HD
ENDBRANCH  29  32
ENDBRANCH  26  29
ENDBRANCH  22  23
ENDBRANCH  21  22
ENDBRANCH   4  21
TORSDOF 6
ENDMDL
MODEL 6
REMARK VINA RESULT:      -8.7      2.288      2.598
REMARK  Name = 
REMARK  8 active torsions:
REMARK  status: ('A' for Active; 'I' for Inactive)
REMARK    1  A    between atoms: C_1  and  C_2
REMARK    2  A    between atoms: C_2  and  C_3
REMARK    3  A    between atoms: N_10  and  C_11
REMARK    4  A    between atoms: C_14  and  O_15
REMARK    5  A    between atoms: O_15  and  C_16
REMARK    6  A    between atoms: C_16  and  C_17
REMARK    7  A    between atoms: C_20  and  S_21
REMARK    8  A    between atoms: S_21  and  N_22
REMARK                            x       y       z     vdW  Elec       q    Type
REMARK                         _______ _______ _______ _____ _____    ______ ____
ROOT
ATOM      1  C   UNL     1       2.585   6.451  19.491  0.00  0.00    +0.000 A 
ATOM      2  C   UNL     1       2.011   7.065  20.603  0.00  0.00    +0.000 A 
ATOM      3  C   UNL     1       1.361   8.293  20.510  0.00  0.00    +0.000 A 
ATOM      4  C   UNL     1       1.362   9.000  19.324  0.00  0.00    +0.000 A 
ATOM      5  C   UNL     1       1.929   8.432  18.191  0.00  0.00    +0.000 A 
ATOM      6  C   UNL     1       2.494   7.158  18.281  0.00  0.00    +0.000 A 
ENDROOT
BRANCH   1  16
ATOM      7  C   UNL     1       1.766   3.988  17.947  0.00  0.00    +0.000 C 
ATOM      8  C   UNL     1       2.325   3.988  19.385  0.00  0.00    +0.000 C 
ATOM      9  C   UNL     1       1.145   3.911  20.370  0.00  0.00    +0.000 C 
ATOM     10  N   UNL     1       2.998   2.700  19.563  0.00  0.00    +0.000 NA
ATOM     11  C   UNL     1       4.277   2.687  19.527  0.00  0.00    +0.000 C 
ATOM     12  N   UNL     1       4.910   1.500  19.695  0.00  0.00    +0.000 N 
ATOM     13  N   UNL     1       5.067   3.758  19.300  0.00  0.00    +0.000 NA
ATOM     14  C   UNL     1       4.526   4.931  19.365  0.00  0.00    +0.000 C 
ATOM     15  N   UNL     1       5.372   5.989  19.208  0.00  0.00    +0.000 N 
ATOM     16  N   UNL     1       3.187   5.180  19.593  0.00  0.00    +0.000 N 
ATOM     17  H   UNL     1       4.320   0.715  19.467  0.00  0.00    +0.000 HD
ATOM     18  H   UNL     1       5.825   1.488  19.260  0.00  0.00    +0.000 HD
ATOM     19  H   UNL     1       6.348   5.733  19.290  0.00  0.00    +0.000 HD
ATOM     20  H   UNL     1       5.129   6.809  19.748  0.00  0.00    +0.000 HD
ENDBRANCH   1  16
BRANCH   4  21
ATOM     21  O   UNL     1       0.802  10.250  19.269  0.00  0.00    +0.000 OA
BRANCH  21  22
ATOM     22  C   UNL     1       1.075  11.046  20.443  0.00  0.00    +0.000 C 
BRANCH  22  23
ATOM     23  C   UNL     1      -0.225  11.489  21.046  0.00  0.00    +0.000 A 
ATOM     24  C   UNL     1      -1.109  12.253  20.277  0.00  0.00    +0.000 A 
ATOM     25  C   UNL     1      -2.310  12.683  20.825  0.00  0.00    +0.000 A 
ATOM     26  C   UNL     1      -2.626  12.341  22.137  0.00  0.00    +0.000 A 
ATOM     27  C   UNL     1      -1.765  11.565  22.917  0.00  0.00    +0.000 A 
ATOM     28  C   UNL     1      -0.563  11.135  22.364  0.00  0.00    +0.000 A 
BRANCH  26  29
ATOM     29  S   UNL     1      -4.151  12.909  22.824  0.00  0.00    +0.000 S 
ATOM     30  O   UNL     1      -4.059  14.306  23.100  0.00  0.00    +0.000 OA
ATOM     31  O   UNL     1      -5.249  12.320  22.074  0.00  0.00    +0.000 OA
BRANCH  29  32
ATOM     32  N   UNL     1      -4.101  12.103  24.298  0.00  0.00    +0.000 NA
ATOM     33  H   UNL     1      -5.038  11.897  24.646  0.00  0.00    +0.000 HD
ATOM     34  H   UNL     1      -3.439  11.332  24.292  0.00  0.00    +0.000 HD
ENDBRANCH  29  32
ENDBRANCH  26  29
ENDBRANCH  22  23
ENDBRANCH  21  22
ENDBRANCH   4  21
TORSDOF 6
ENDMDL
MODEL 7
REMARK VINA RESULT:      -8.7      0.713      1.251
REMARK  Name = 
REMARK  8 active torsions:
REMARK  status: ('A' for Active; 'I' for Inactive)
REMARK    1  A    between atoms: C_1  and  C_2
REMARK    2  A    between atoms: C_2  and  C_3
REMARK    3  A    between atoms: N_10  and  C_11
REMARK    4  A    between atoms: C_14  and  O_15
REMARK    5  A    between atoms: O_15  and  C_16
REMARK    6  A    between atoms: C_16  and  C_17
REMARK    7  A    between atoms: C_20  and  S_21
REMARK    8  A    between atoms: S_21  and  N_22
REMARK                            x       y       z     vdW  Elec       q    Type
REMARK                         _______ _______ _______ _____ _____    ______ ____
ROOT
ATOM      1  C   UNL     1       2.737   6.406  19.289  0.00  0.00    +0.000 A 
ATOM      2  C   UNL     1       2.756   6.999  18.027  0.00  0.00    +0.000 A 
ATOM      3  C   UNL     1       2.233   8.270  17.806  0.00  0.00    +0.000 A 
ATOM      4  C   UNL     1       1.573   8.944  18.814  0.00  0.00    +0.000 A 
ATOM      5  C   UNL     1       1.522   8.388  20.087  0.00  0.00    +0.000 A 
ATOM      6  C   UNL     1       2.135   7.154  20.312  0.00  0.00    +0.000 A 
ENDROOT
BRANCH   1  16
ATOM      7  C   UNL     1       1.887   3.823  17.974  0.00  0.00    +0.000 C 
ATOM      8  C   UNL     1       2.449   3.946  19.406  0.00  0.00    +0.000 C 
ATOM      9  C   UNL     1       1.269   3.972  20.394  0.00  0.00    +0.000 C 
ATOM     10  N   UNL     1       3.106   2.672  19.699  0.00  0.00    +0.000 NA
ATOM     11  C   UNL     1       4.385   2.640  19.663  0.00  0.00    +0.000 C 
ATOM     12  N   UNL     1       5.005   1.466  19.937  0.00  0.00    +0.000 N 
ATOM     13  N   UNL     1       5.188   3.677  19.341  0.00  0.00    +0.000 NA
ATOM     14  C   UNL     1       4.661   4.857  19.300  0.00  0.00    +0.000 C 
ATOM     15  N   UNL     1       5.518   5.887  19.047  0.00  0.00    +0.000 N 
ATOM     16  N   UNL     1       3.324   5.142  19.505  0.00  0.00    +0.000 N 
ATOM     17  H   UNL     1       4.405   0.670  19.781  0.00  0.00    +0.000 HD
ATOM     18  H   UNL     1       5.918   1.404  19.505  0.00  0.00    +0.000 HD
ATOM     19  H   UNL     1       6.491   5.628  19.151  0.00  0.00    +0.000 HD
ATOM     20  H   UNL     1       5.285   6.756  19.512  0.00  0.00    +0.000 HD
ENDBRANCH   1  16
BRANCH   4  21
ATOM     21  O   UNL     1       0.980  10.153  18.559  0.00  0.00    +0.000 OA
BRANCH  21  22
ATOM     22  C   UNL     1       0.354  10.734  19.723  0.00  0.00    +0.000 C 
BRANCH  22  23
ATOM     23  C   UNL     1      -1.065  11.086  19.390  0.00  0.00    +0.000 A 
ATOM     24  C   UNL     1      -1.710  10.411  18.349  0.00  0.00    +0.000 A 
ATOM     25  C   UNL     1      -3.018  10.735  18.018  0.00  0.00    +0.000 A 
ATOM     26  C   UNL     1      -3.680  11.728  18.735  0.00  0.00    +0.000 A 
ATOM     27  C   UNL     1      -3.060  12.403  19.789  0.00  0.00    +0.000 A 
ATOM     28  C   UNL     1      -1.749  12.075  20.118  0.00  0.00    +0.000 A 
BRANCH  26  29
ATOM     29  S   UNL     1      -5.340  12.139  18.293  0.00  0.00    +0.000 S 
ATOM     30  O   UNL     1      -5.861  13.086  19.224  0.00  0.00    +0.000 OA
ATOM     31  O   UNL     1      -5.406  12.326  16.852  0.00  0.00    +0.000 OA
BRANCH  29  32
ATOM     32  N   UNL     1      -6.079  10.664  18.611  0.00  0.00    +0.000 NA
ATOM     33  H   UNL     1      -6.273  10.547  19.606  0.00  0.00    +0.000 HD
ATOM     34  H   UNL     1      -6.848  10.473  17.974  0.00  0.00    +0.000 HD
ENDBRANCH  29  32
ENDBRANCH  26  29
ENDBRANCH  22  23
ENDBRANCH  21  22
ENDBRANCH   4  21
TORSDOF 6
ENDMDL
MODEL 8
REMARK VINA RESULT:      -8.7      2.487      2.925
REMARK  Name = 
REMARK  8 active torsions:
REMARK  status: ('A' for Active; 'I' for Inactive)
REMARK    1  A    between atoms: C_1  and  C_2
REMARK    2  A    between atoms: C_2  and  C_3
REMARK    3  A    between atoms: N_10  and  C_11
REMARK    4  A    between atoms: C_14  and  O_15
REMARK    5  A    between atoms: O_15  and  C_16
REMARK    6  A    between atoms: C_16  and  C_17
REMARK    7  A    between atoms: C_20  and  S_21
REMARK    8  A    between atoms: S_21  and  N_22
REMARK                            x       y       z     vdW  Elec       q    Type
REMARK                         _______ _______ _______ _____ _____    ______ ____
ROOT
ATOM      1  C   UNL     1       2.529   6.399  19.569  0.00  0.00    +0.000 A 
ATOM      2  C   UNL     1       2.542   7.131  18.383  0.00  0.00    +0.000 A 
ATOM      3  C   UNL     1       1.996   8.409  18.303  0.00  0.00    +0.000 A 
ATOM      4  C   UNL     1       1.318   8.952  19.377  0.00  0.00    +0.000 A 
ATOM      5  C   UNL     1       1.272   8.254  20.578  0.00  0.00    +0.000 A 
ATOM      6  C   UNL     1       1.908   7.014  20.667  0.00  0.00    +0.000 A 
ENDROOT
BRANCH   1  16
ATOM      7  C   UNL     1       1.694   3.948  18.013  0.00  0.00    +0.000 C 
ATOM      8  C   UNL     1       2.282   3.935  19.440  0.00  0.00    +0.000 C 
ATOM      9  C   UNL     1       1.122   3.840  20.448  0.00  0.00    +0.000 C 
ATOM     10  N   UNL     1       2.965   2.650  19.590  0.00  0.00    +0.000 NA
ATOM     11  C   UNL     1       4.243   2.644  19.528  0.00  0.00    +0.000 C 
ATOM     12  N   UNL     1       4.886   1.459  19.670  0.00  0.00    +0.000 N 
ATOM     13  N   UNL     1       5.023   3.722  19.299  0.00  0.00    +0.000 NA
ATOM     14  C   UNL     1       4.477   4.891  19.388  0.00  0.00    +0.000 C 
ATOM     15  N   UNL     1       5.313   5.956  19.226  0.00  0.00    +0.000 N 
ATOM     16  N   UNL     1       3.141   5.130  19.645  0.00  0.00    +0.000 N 
ATOM     17  H   UNL     1       4.296   0.673  19.444  0.00  0.00    +0.000 HD
ATOM     18  H   UNL     1       5.792   1.457  19.217  0.00  0.00    +0.000 HD
ATOM     19  H   UNL     1       6.292   5.705  19.286  0.00  0.00    +0.000 HD
ATOM     20  H   UNL     1       5.076   6.769  19.781  0.00  0.00    +0.000 HD
ENDBRANCH   1  16
BRANCH   4  21
ATOM     21  O   UNL     1       0.703  10.171  19.257  0.00  0.00    +0.000 OA
BRANCH  21  22
ATOM     22  C   UNL     1       1.058  11.092  20.310  0.00  0.00    +0.000 C 
BRANCH  22  23
ATOM     23  C   UNL     1      -0.186  11.506  21.037  0.00  0.00    +0.000 A 
ATOM     24  C   UNL     1      -1.065  12.408  20.428  0.00  0.00    +0.000 A 
ATOM     25  C   UNL     1      -2.214  12.813  21.093  0.00  0.00    +0.000 A 
ATOM     26  C   UNL     1      -2.484  12.309  22.362  0.00  0.00    +0.000 A 
ATOM     27  C   UNL     1      -1.629  11.394  22.982  0.00  0.00    +0.000 A 
ATOM     28  C   UNL     1      -0.479  10.991  22.311  0.00  0.00    +0.000 A 
BRANCH  26  29
ATOM     29  S   UNL     1      -3.943  12.845  23.202  0.00  0.00    +0.000 S 
ATOM     30  O   UNL     1      -4.162  12.025  24.349  0.00  0.00    +0.000 OA
ATOM     31  O   UNL     1      -3.942  14.299  23.256  0.00  0.00    +0.000 OA
BRANCH  29  32
ATOM     32  N   UNL     1      -5.091  12.417  22.052  0.00  0.00    +0.000 NA
ATOM     33  H   UNL     1      -5.956  12.946  22.169  0.00  0.00    +0.000 HD
ATOM     34  H   UNL     1      -4.702  12.384  21.114  0.00  0.00    +0.000 HD
ENDBRANCH  29  32
ENDBRANCH  26  29
ENDBRANCH  22  23
ENDBRANCH  21  22
ENDBRANCH   4  21
TORSDOF 6
ENDMDL
MODEL 9
REMARK VINA RESULT:      -8.6      2.182      2.691
REMARK  Name = 
REMARK  8 active torsions:
REMARK  status: ('A' for Active; 'I' for Inactive)
REMARK    1  A    between atoms: C_1  and  C_2
REMARK    2  A    between atoms: C_2  and  C_3
REMARK    3  A    between atoms: N_10  and  C_11
REMARK    4  A    between atoms: C_14  and  O_15
REMARK    5  A    between atoms: O_15  and  C_16
REMARK    6  A    between atoms: C_16  and  C_17
REMARK    7  A    between atoms: C_20  and  S_21
REMARK    8  A    between atoms: S_21  and  N_22
REMARK                            x       y       z     vdW  Elec       q    Type
REMARK                         _______ _______ _______ _____ _____    ______ ____
ROOT
ATOM      1  C   UNL     1       2.537   6.572  19.407  0.00  0.00    +0.000 A 
ATOM      2  C   UNL     1       2.497   7.193  18.159  0.00  0.00    +0.000 A 
ATOM      3  C   UNL     1       1.952   8.462  17.988  0.00  0.00    +0.000 A 
ATOM      4  C   UNL     1       1.327   9.106  19.038  0.00  0.00    +0.000 A 
ATOM      5  C   UNL     1       1.335   8.521  20.299  0.00  0.00    +0.000 A 
ATOM      6  C   UNL     1       1.970   7.290  20.471  0.00  0.00    +0.000 A 
ENDROOT
BRANCH   1  16
ATOM      7  C   UNL     1       1.690   4.018  18.034  0.00  0.00    +0.000 C 
ATOM      8  C   UNL     1       2.285   4.106  19.455  0.00  0.00    +0.000 C 
ATOM      9  C   UNL     1       1.131   4.085  20.473  0.00  0.00    +0.000 C 
ATOM     10  N   UNL     1       2.967   2.833  19.693  0.00  0.00    +0.000 NA
ATOM     11  C   UNL     1       4.245   2.821  19.625  0.00  0.00    +0.000 C 
ATOM     12  N   UNL     1       4.888   1.647  19.847  0.00  0.00    +0.000 N 
ATOM     13  N   UNL     1       5.025   3.878  19.315  0.00  0.00    +0.000 NA
ATOM     14  C   UNL     1       4.481   5.051  19.323  0.00  0.00    +0.000 C 
ATOM     15  N   UNL     1       5.318   6.101  19.081  0.00  0.00    +0.000 N 
ATOM     16  N   UNL     1       3.147   5.311  19.570  0.00  0.00    +0.000 N 
ATOM     17  H   UNL     1       4.295   0.849  19.682  0.00  0.00    +0.000 HD
ATOM     18  H   UNL     1       5.791   1.612  19.391  0.00  0.00    +0.000 HD
ATOM     19  H   UNL     1       6.297   5.853  19.153  0.00  0.00    +0.000 HD
ATOM     20  H   UNL     1       5.085   6.951  19.578  0.00  0.00    +0.000 HD
ENDBRANCH   1  16
BRANCH   4  21
ATOM     21  O   UNL     1       0.711  10.313  18.835  0.00  0.00    +0.000 OA
BRANCH  21  22
ATOM     22  C   UNL     1       1.019  11.286  19.857  0.00  0.00    +0.000 C 
BRANCH  22  23
ATOM     23  C   UNL     1      -0.253  11.703  20.534  0.00  0.00    +0.000 A 
ATOM     24  C   UNL     1      -0.320  11.685  21.931  0.00  0.00    +0.000 A 
ATOM     25  C   UNL     1      -1.495  12.054  22.573  0.00  0.00    +0.000 A 
ATOM     26  C   UNL     1      -2.595  12.447  21.816  0.00  0.00    +0.000 A 
ATOM     27  C   UNL     1      -2.543  12.487  20.420  0.00  0.00    +0.000 A 
ATOM     28  C   UNL     1      -1.365  12.117  19.781  0.00  0.00    +0.000 A 
BRANCH  26  29
ATOM     29  S   UNL     1      -4.087  12.899  22.646  0.00  0.00    +0.000 S 
ATOM     30  O   UNL     1      -4.024  14.273  23.026  0.00  0.00    +0.000 OA
ATOM     31  O   UNL     1      -5.213  12.326  21.927  0.00  0.00    +0.000 OA
BRANCH  29  32
ATOM     32  N   UNL     1      -3.906  11.984  24.044  0.00  0.00    +0.000 NA
ATOM     33  H   UNL     1      -4.399  12.403  24.834  0.00  0.00    +0.000 HD
ATOM     34  H   UNL     1      -4.070  10.994  23.880  0.00  0.00    +0.000 HD
ENDBRANCH  29  32
ENDBRANCH  26  29
ENDBRANCH  22  23
ENDBRANCH  21  22
ENDBRANCH   4  21
TORSDOF 6
ENDMDL
