MODEL 1
REMARK VINA RESULT:      -7.5      0.000      0.000
REMARK  Name = 
REMARK  14 active torsions:
REMARK  status: ('A' for Active; 'I' for Inactive)
REMARK    1  A    between atoms: C_1  and  O_2
REMARK    2  A    between atoms: O_2  and  C_3
REMARK    3  A    between atoms: C_8  and  O_9
REMARK    4  A    between atoms: O_9  and  C_10
REMARK    5  A    between atoms: N_12  and  S_13
REMARK    6  A    between atoms: S_13  and  C_16
REMARK    7  A    between atoms: C_19  and  C_20
REMARK    8  A    between atoms: C_20  and  C_21
REMARK    9  A    between atoms: C_20  and  C_22
REMARK   10  A    between atoms: C_28  and  O_29
REMARK   11  A    between atoms: O_29  and  C_30
REMARK   12  A    between atoms: C_30  and  C_31
REMARK   13  A    between atoms: C_32  and  C_33
REMARK   14  A    between atoms: C_33  and  O_34
REMARK                            x       y       z     vdW  Elec       q    Type
REMARK                         _______ _______ _______ _____ _____    ______ ____
ROOT
ATOM      1  C   UNL     1       2.877   5.063  18.628  0.00  0.00    +0.000 A 
ATOM      2  C   UNL     1       3.629   4.705  17.509  0.00  0.00    +0.000 A 
ATOM      3  N   UNL     1       4.684   5.476  16.965  0.00  0.00    +0.000 N 
ATOM      4  N   UNL     1       3.400   3.601  16.785  0.00  0.00    +0.000 NA
ATOM      5  C   UNL     1       2.358   2.855  17.159  0.00  0.00    +0.000 A 
ATOM      6  N   UNL     1       1.529   3.109  18.181  0.00  0.00    +0.000 NA
ATOM      7  C   UNL     1       1.799   4.222  18.895  0.00  0.00    +0.000 A 
ATOM      8  H   UNL     1       4.524   6.482  16.936  0.00  0.00    +0.000 HD
ENDROOT
BRANCH   3   9
ATOM      9  S   UNL     1       6.247   5.187  17.501  0.00  0.00    +0.000 S 
ATOM     10  O   UNL     1       6.068   4.618  18.831  0.00  0.00    +0.000 OA
ATOM     11  O   UNL     1       6.937   4.417  16.479  0.00  0.00    +0.000 OA
BRANCH   9  12
ATOM     12  C   UNL     1       7.206   6.687  17.758  0.00  0.00    +0.000 A 
ATOM     13  C   UNL     1       8.083   6.673  18.842  0.00  0.00    +0.000 A 
ATOM     14  C   UNL     1       8.765   7.842  19.169  0.00  0.00    +0.000 A 
ATOM     15  C   UNL     1       8.581   8.996  18.407  0.00  0.00    +0.000 A 
ATOM     16  C   UNL     1       7.693   8.892  17.324  0.00  0.00    +0.000 A 
ATOM     17  N   UNL     1       6.989   7.773  16.976  0.00  0.00    +0.000 NA
BRANCH  15  18
ATOM     18  C   UNL     1       9.242  10.320  18.765  0.00  0.00    +0.000 C 
ATOM     19  C   UNL     1       8.591  11.469  17.984  0.00  0.00    +0.000 C 
ATOM     20  C   UNL     1       9.224  10.659  20.265  0.00  0.00    +0.000 C 
ENDBRANCH  15  18
ENDBRANCH   9  12
ENDBRANCH   3   9
BRANCH   1  21
ATOM     21  O   UNL     1       3.193   6.168  19.390  0.00  0.00    +0.000 OA
BRANCH  21  27
ATOM     22  C   UNL     1       1.755   8.034  20.030  0.00  0.00    +0.000 A 
ATOM     23  C   UNL     1       1.189   9.275  19.675  0.00  0.00    +0.000 A 
ATOM     24  C   UNL     1       1.374   9.837  18.413  0.00  0.00    +0.000 A 
ATOM     25  C   UNL     1       2.100   9.143  17.460  0.00  0.00    +0.000 A 
ATOM     26  C   UNL     1       2.647   7.902  17.783  0.00  0.00    +0.000 A 
ATOM     27  C   UNL     1       2.537   7.355  19.083  0.00  0.00    +0.000 A 
BRANCH  22  29
ATOM     28  C   UNL     1       0.710   8.600  22.140  0.00  0.00    +0.000 C 
ATOM     29  O   UNL     1       1.417   7.701  21.310  0.00  0.00    +0.000 OA
ENDBRANCH  22  29
ENDBRANCH  21  27
ENDBRANCH   1  21
BRANCH   7  30
ATOM     30  O   UNL     1       0.922   4.570  19.908  0.00  0.00    +0.000 OA
BRANCH  30  31
ATOM     31  C   UNL     1       1.046   3.774  21.093  0.00  0.00    +0.000 C 
BRANCH  31  32
ATOM     32  C   UNL     1       2.352   3.081  21.093  0.00  0.00    +0.000 C 
ATOM     33  C   UNL     1       3.399   2.487  21.072  0.00  0.00    +0.000 C 
BRANCH  33  34
ATOM     34  C   UNL     1       4.660   1.737  21.060  0.00  0.00    +0.000 C 
BRANCH  34  35
ATOM     35  O   UNL     1       5.106   1.557  19.729  0.00  0.00    +0.000 OA
ATOM     36  H   UNL     1       5.781   0.860  19.747  0.00  0.00    +0.000 HD
ENDBRANCH  34  35
ENDBRANCH  33  34
ENDBRANCH  31  32
ENDBRANCH  30  31
ENDBRANCH   7  30
TORSDOF 11
ENDMDL
MODEL 2
REMARK VINA RESULT:      -7.3      5.570      9.059
REMARK  Name = 
REMARK  14 active torsions:
REMARK  status: ('A' for Active; 'I' for Inactive)
REMARK    1  A    between atoms: C_1  and  O_2
REMARK    2  A    between atoms: O_2  and  C_3
REMARK    3  A    between atoms: C_8  and  O_9
REMARK    4  A    between atoms: O_9  and  C_10
REMARK    5  A    between atoms: N_12  and  S_13
REMARK    6  A    between atoms: S_13  and  C_16
REMARK    7  A    between atoms: C_19  and  C_20
REMARK    8  A    between atoms: C_20  and  C_21
REMARK    9  A    between atoms: C_20  and  C_22
REMARK   10  A    between atoms: C_28  and  O_29
REMARK   11  A    between atoms: O_29  and  C_30
REMARK   12  A    between atoms: C_30  and  C_31
REMARK   13  A    between atoms: C_32  and  C_33
REMARK   14  A    between atoms: C_33  and  O_34
REMARK                            x       y       z     vdW  Elec       q    Type
REMARK                         _______ _______ _______ _____ _____    ______ ____
ROOT
ATOM      1  C   UNL     1      -1.334  11.737  20.642  0.00  0.00    +0.000 A 
ATOM      2  C   UNL     1      -0.446  10.929  19.932  0.00  0.00    +0.000 A 
ATOM      3  N   UNL     1       0.809  10.490  20.417  0.00  0.00    +0.000 N 
ATOM      4  N   UNL     1      -0.662  10.516  18.676  0.00  0.00    +0.000 NA
ATOM      5  C   UNL     1      -1.777  10.962  18.092  0.00  0.00    +0.000 A 
ATOM      6  N   UNL     1      -2.687  11.776  18.642  0.00  0.00    +0.000 NA
ATOM      7  C   UNL     1      -2.442  12.160  19.912  0.00  0.00    +0.000 A 
ATOM      8  H   UNL     1       1.348  11.183  20.934  0.00  0.00    +0.000 HD
ENDROOT
BRANCH   3   9
ATOM      9  S   UNL     1       0.887   9.022  21.225  0.00  0.00    +0.000 S 
ATOM     10  O   UNL     1       1.773   9.284  22.354  0.00  0.00    +0.000 OA
ATOM     11  O   UNL     1      -0.473   8.573  21.471  0.00  0.00    +0.000 OA
BRANCH   9  12
ATOM     12  C   UNL     1       1.702   7.726  20.281  0.00  0.00    +0.000 A 
ATOM     13  C   UNL     1       2.143   8.084  19.007  0.00  0.00    +0.000 A 
ATOM     14  C   UNL     1       2.672   7.098  18.178  0.00  0.00    +0.000 A 
ATOM     15  C   UNL     1       2.772   5.782  18.631  0.00  0.00    +0.000 A 
ATOM     16  C   UNL     1       2.320   5.538  19.939  0.00  0.00    +0.000 A 
ATOM     17  N   UNL     1       1.778   6.468  20.780  0.00  0.00    +0.000 NA
BRANCH  15  18
ATOM     18  C   UNL     1       3.272   4.652  17.741  0.00  0.00    +0.000 C 
ATOM     19  C   UNL     1       4.516   4.000  18.357  0.00  0.00    +0.000 C 
ATOM     20  C   UNL     1       2.228   3.563  17.444  0.00  0.00    +0.000 C 
ENDBRANCH  15  18
ENDBRANCH   9  12
ENDBRANCH   3   9
BRANCH   1  21
ATOM     21  O   UNL     1      -1.110  12.078  21.959  0.00  0.00    +0.000 OA
BRANCH  21  27
ATOM     22  C   UNL     1       0.573  13.842  21.848  0.00  0.00    +0.000 A 
ATOM     23  C   UNL     1       0.889  15.199  22.058  0.00  0.00    +0.000 A 
ATOM     24  C   UNL     1      -0.021  16.090  22.626  0.00  0.00    +0.000 A 
ATOM     25  C   UNL     1      -1.259  15.625  23.037  0.00  0.00    +0.000 A 
ATOM     26  C   UNL     1      -1.581  14.281  22.861  0.00  0.00    +0.000 A 
ATOM     27  C   UNL     1      -0.702  13.383  22.213  0.00  0.00    +0.000 A 
BRANCH  22  29
ATOM     28  C   UNL     1       2.340  13.724  20.196  0.00  0.00    +0.000 C 
ATOM     29  O   UNL     1       1.633  13.183  21.293  0.00  0.00    +0.000 OA
ENDBRANCH  22  29
ENDBRANCH  21  27
ENDBRANCH   1  21
BRANCH   7  30
ATOM     30  O   UNL     1      -3.312  13.068  20.494  0.00  0.00    +0.000 OA
BRANCH  30  31
ATOM     31  C   UNL     1      -4.695  12.818  20.218  0.00  0.00    +0.000 C 
BRANCH  31  32
ATOM     32  C   UNL     1      -5.460  12.794  21.483  0.00  0.00    +0.000 C 
ATOM     33  C   UNL     1      -6.051  12.792  22.532  0.00  0.00    +0.000 C 
BRANCH  33  34
ATOM     34  C   UNL     1      -6.747  12.773  23.823  0.00  0.00    +0.000 C 
BRANCH  34  35
ATOM     35  O   UNL     1      -7.426  11.543  23.991  0.00  0.00    +0.000 OA
ATOM     36  H   UNL     1      -7.075  10.930  23.325  0.00  0.00    +0.000 HD
ENDBRANCH  34  35
ENDBRANCH  33  34
ENDBRANCH  31  32
ENDBRANCH  30  31
ENDBRANCH   7  30
TORSDOF 11
ENDMDL
MODEL 3
REMARK VINA RESULT:      -7.3      5.897      9.193
REMARK  Name = 
REMARK  14 active torsions:
REMARK  status: ('A' for Active; 'I' for Inactive)
REMARK    1  A    between atoms: C_1  and  O_2
REMARK    2  A    between atoms: O_2  and  C_3
REMARK    3  A    between atoms: C_8  and  O_9
REMARK    4  A    between atoms: O_9  and  C_10
REMARK    5  A    between atoms: N_12  and  S_13
REMARK    6  A    between atoms: S_13  and  C_16
REMARK    7  A    between atoms: C_19  and  C_20
REMARK    8  A    between atoms: C_20  and  C_21
REMARK    9  A    between atoms: C_20  and  C_22
REMARK   10  A    between atoms: C_28  and  O_29
REMARK   11  A    between atoms: O_29  and  C_30
REMARK   12  A    between atoms: C_30  and  C_31
REMARK   13  A    between atoms: C_32  and  C_33
REMARK   14  A    between atoms: C_33  and  O_34
REMARK                            x       y       z     vdW  Elec       q    Type
REMARK                         _______ _______ _______ _____ _____    ______ ____
ROOT
ATOM      1  C   UNL     1      -1.642  11.723  20.735  0.00  0.00    +0.000 A 
ATOM      2  C   UNL     1      -0.530  11.117  20.149  0.00  0.00    +0.000 A 
ATOM      3  N   UNL     1       0.654  10.763  20.840  0.00  0.00    +0.000 N 
ATOM      4  N   UNL     1      -0.438  10.847  18.841  0.00  0.00    +0.000 NA
ATOM      5  C   UNL     1      -1.467  11.236  18.083  0.00  0.00    +0.000 A 
ATOM      6  N   UNL     1      -2.569  11.866  18.510  0.00  0.00    +0.000 NA
ATOM      7  C   UNL     1      -2.632  12.109  19.835  0.00  0.00    +0.000 A 
ATOM      8  H   UNL     1       0.981  11.441  21.527  0.00  0.00    +0.000 HD
ENDROOT
BRANCH   3   9
ATOM      9  S   UNL     1       0.770   9.222  21.493  0.00  0.00    +0.000 S 
ATOM     10  O   UNL     1       1.738   9.366  22.574  0.00  0.00    +0.000 OA
ATOM     11  O   UNL     1      -0.574   8.759  21.792  0.00  0.00    +0.000 OA
BRANCH   9  12
ATOM     12  C   UNL     1       1.498   8.021  20.368  0.00  0.00    +0.000 A 
ATOM     13  C   UNL     1       1.648   6.728  20.870  0.00  0.00    +0.000 A 
ATOM     14  C   UNL     1       2.314   5.781  20.097  0.00  0.00    +0.000 A 
ATOM     15  C   UNL     1       2.800   6.125  18.835  0.00  0.00    +0.000 A 
ATOM     16  C   UNL     1       2.573   7.447  18.419  0.00  0.00    +0.000 A 
ATOM     17  N   UNL     1       1.942   8.414  19.150  0.00  0.00    +0.000 NA
BRANCH  15  18
ATOM     18  C   UNL     1       3.601   5.151  17.981  0.00  0.00    +0.000 C 
ATOM     19  C   UNL     1       4.794   4.604  18.773  0.00  0.00    +0.000 C 
ATOM     20  C   UNL     1       2.787   3.973  17.421  0.00  0.00    +0.000 C 
ENDBRANCH  15  18
ENDBRANCH   9  12
ENDBRANCH   3   9
BRANCH   1  21
ATOM     21  O   UNL     1      -1.728  11.915  22.098  0.00  0.00    +0.000 OA
BRANCH  21  27
ATOM     22  C   UNL     1      -2.608  13.879  23.251  0.00  0.00    +0.000 A 
ATOM     23  C   UNL     1      -2.358  15.167  23.766  0.00  0.00    +0.000 A 
ATOM     24  C   UNL     1      -1.129  15.802  23.602  0.00  0.00    +0.000 A 
ATOM     25  C   UNL     1      -0.131  15.174  22.876  0.00  0.00    +0.000 A 
ATOM     26  C   UNL     1      -0.367  13.911  22.335  0.00  0.00    +0.000 A 
ATOM     27  C   UNL     1      -1.579  13.218  22.562  0.00  0.00    +0.000 A 
BRANCH  22  29
ATOM     28  C   UNL     1      -4.150  12.490  24.498  0.00  0.00    +0.000 C 
ATOM     29  O   UNL     1      -3.885  13.488  23.534  0.00  0.00    +0.000 OA
ENDBRANCH  22  29
ENDBRANCH  21  27
ENDBRANCH   1  21
BRANCH   7  30
ATOM     30  O   UNL     1      -3.714  12.832  20.311  0.00  0.00    +0.000 OA
BRANCH  30  31
ATOM     31  C   UNL     1      -4.977  12.422  19.774  0.00  0.00    +0.000 C 
BRANCH  31  32
ATOM     32  C   UNL     1      -5.988  12.379  20.852  0.00  0.00    +0.000 C 
ATOM     33  C   UNL     1      -6.829  12.314  21.711  0.00  0.00    +0.000 C 
BRANCH  33  34
ATOM     34  C   UNL     1      -7.876  12.238  22.735  0.00  0.00    +0.000 C 
BRANCH  34  35
ATOM     35  O   UNL     1      -7.455  11.408  23.801  0.00  0.00    +0.000 OA
ATOM     36  H   UNL     1      -8.244  11.196  24.326  0.00  0.00    +0.000 HD
ENDBRANCH  34  35
ENDBRANCH  33  34
ENDBRANCH  31  32
ENDBRANCH  30  31
ENDBRANCH   7  30
TORSDOF 11
ENDMDL
MODEL 4
REMARK VINA RESULT:      -7.3      5.450      8.858
REMARK  Name = 
REMARK  14 active torsions:
REMARK  status: ('A' for Active; 'I' for Inactive)
REMARK    1  A    between atoms: C_1  and  O_2
REMARK    2  A    between atoms: O_2  and  C_3
REMARK    3  A    between atoms: C_8  and  O_9
REMARK    4  A    between atoms: O_9  and  C_10
REMARK    5  A    between atoms: N_12  and  S_13
REMARK    6  A    between atoms: S_13  and  C_16
REMARK    7  A    between atoms: C_19  and  C_20
REMARK    8  A    between atoms: C_20  and  C_21
REMARK    9  A    between atoms: C_20  and  C_22
REMARK   10  A    between atoms: C_28  and  O_29
REMARK   11  A    between atoms: O_29  and  C_30
REMARK   12  A    between atoms: C_30  and  C_31
REMARK   13  A    between atoms: C_32  and  C_33
REMARK   14  A    between atoms: C_33  and  O_34
REMARK                            x       y       z     vdW  Elec       q    Type
REMARK                         _______ _______ _______ _____ _____    ______ ____
ROOT
ATOM      1  C   UNL     1      -1.139  11.599  20.431  0.00  0.00    +0.000 A 
ATOM      2  C   UNL     1      -0.283  10.722  19.767  0.00  0.00    +0.000 A 
ATOM      3  N   UNL     1       0.934  10.227  20.295  0.00  0.00    +0.000 N 
ATOM      4  N   UNL     1      -0.492  10.285  18.518  0.00  0.00    +0.000 NA
ATOM      5  C   UNL     1      -1.566  10.776  17.893  0.00  0.00    +0.000 A 
ATOM      6  N   UNL     1      -2.441  11.656  18.398  0.00  0.00    +0.000 NA
ATOM      7  C   UNL     1      -2.204  12.063  19.662  0.00  0.00    +0.000 A 
ATOM      8  H   UNL     1       1.499  10.903  20.806  0.00  0.00    +0.000 HD
ENDROOT
BRANCH   3   9
ATOM      9  S   UNL     1       0.909   8.782  21.146  0.00  0.00    +0.000 S 
ATOM     10  O   UNL     1       1.717   9.052  22.329  0.00  0.00    +0.000 OA
ATOM     11  O   UNL     1      -0.478   8.377  21.303  0.00  0.00    +0.000 OA
BRANCH   9  12
ATOM     12  C   UNL     1       1.751   7.436  20.300  0.00  0.00    +0.000 A 
ATOM     13  C   UNL     1       2.309   7.749  19.060  0.00  0.00    +0.000 A 
ATOM     14  C   UNL     1       2.869   6.727  18.298  0.00  0.00    +0.000 A 
ATOM     15  C   UNL     1       2.883   5.419  18.785  0.00  0.00    +0.000 A 
ATOM     16  C   UNL     1       2.316   5.221  20.055  0.00  0.00    +0.000 A 
ATOM     17  N   UNL     1       1.740   6.189  20.829  0.00  0.00    +0.000 NA
BRANCH  15  18
ATOM     18  C   UNL     1       3.414   4.253  17.963  0.00  0.00    +0.000 C 
ATOM     19  C   UNL     1       2.251   3.440  17.380  0.00  0.00    +0.000 C 
ATOM     20  C   UNL     1       4.366   4.653  16.824  0.00  0.00    +0.000 C 
ENDBRANCH  15  18
ENDBRANCH   9  12
ENDBRANCH   3   9
BRANCH   1  21
ATOM     21  O   UNL     1      -0.927  11.965  21.744  0.00  0.00    +0.000 OA
BRANCH  21  27
ATOM     22  C   UNL     1      -1.043  14.115  22.895  0.00  0.00    +0.000 A 
ATOM     23  C   UNL     1      -0.446  15.369  23.135  0.00  0.00    +0.000 A 
ATOM     24  C   UNL     1       0.712  15.774  22.475  0.00  0.00    +0.000 A 
ATOM     25  C   UNL     1       1.277  14.942  21.522  0.00  0.00    +0.000 A 
ATOM     26  C   UNL     1       0.688  13.709  21.251  0.00  0.00    +0.000 A 
ATOM     27  C   UNL     1      -0.440  13.248  21.970  0.00  0.00    +0.000 A 
BRANCH  22  29
ATOM     28  C   UNL     1      -2.884  15.085  24.133  0.00  0.00    +0.000 C 
ATOM     29  O   UNL     1      -2.168  13.965  23.654  0.00  0.00    +0.000 OA
ENDBRANCH  22  29
ENDBRANCH  21  27
ENDBRANCH   1  21
BRANCH   7  30
ATOM     30  O   UNL     1      -3.033  13.035  20.196  0.00  0.00    +0.000 OA
BRANCH  30  31
ATOM     31  C   UNL     1      -4.427  12.704  20.160  0.00  0.00    +0.000 C 
BRANCH  31  32
ATOM     32  C   UNL     1      -4.985  12.742  21.528  0.00  0.00    +0.000 C 
ATOM     33  C   UNL     1      -5.409  12.799  22.653  0.00  0.00    +0.000 C 
BRANCH  33  34
ATOM     34  C   UNL     1      -5.898  12.857  24.036  0.00  0.00    +0.000 C 
BRANCH  34  35
ATOM     35  O   UNL     1      -5.210  11.914  24.835  0.00  0.00    +0.000 OA
ATOM     36  H   UNL     1      -5.879  11.438  25.353  0.00  0.00    +0.000 HD
ENDBRANCH  34  35
ENDBRANCH  33  34
ENDBRANCH  31  32
ENDBRANCH  30  31
ENDBRANCH   7  30
TORSDOF 11
ENDMDL
MODEL 5
REMARK VINA RESULT:      -7.2      5.397      8.874
REMARK  Name = 
REMARK  14 active torsions:
REMARK  status: ('A' for Active; 'I' for Inactive)
REMARK    1  A    between atoms: C_1  and  O_2
REMARK    2  A    between atoms: O_2  and  C_3
REMARK    3  A    between atoms: C_8  and  O_9
REMARK    4  A    between atoms: O_9  and  C_10
REMARK    5  A    between atoms: N_12  and  S_13
REMARK    6  A    between atoms: S_13  and  C_16
REMARK    7  A    between atoms: C_19  and  C_20
REMARK    8  A    between atoms: C_20  and  C_21
REMARK    9  A    between atoms: C_20  and  C_22
REMARK   10  A    between atoms: C_28  and  O_29
REMARK   11  A    between atoms: O_29  and  C_30
REMARK   12  A    between atoms: C_30  and  C_31
REMARK   13  A    between atoms: C_32  and  C_33
REMARK   14  A    between atoms: C_33  and  O_34
REMARK                            x       y       z     vdW  Elec       q    Type
REMARK                         _______ _______ _______ _____ _____    ______ ____
ROOT
ATOM      1  C   UNL     1      -1.167  11.727  20.555  0.00  0.00    +0.000 A 
ATOM      2  C   UNL     1      -0.275  10.908  19.863  0.00  0.00    +0.000 A 
ATOM      3  N   UNL     1       0.940  10.409  20.391  0.00  0.00    +0.000 N 
ATOM      4  N   UNL     1      -0.446  10.538  18.587  0.00  0.00    +0.000 NA
ATOM      5  C   UNL     1      -1.517  11.041  17.965  0.00  0.00    +0.000 A 
ATOM      6  N   UNL     1      -2.422  11.872  18.497  0.00  0.00    +0.000 NA
ATOM      7  C   UNL     1      -2.224  12.210  19.788  0.00  0.00    +0.000 A 
ATOM      8  H   UNL     1       1.478  11.068  20.953  0.00  0.00    +0.000 HD
ENDROOT
BRANCH   3   9
ATOM      9  S   UNL     1       0.928   8.918  21.158  0.00  0.00    +0.000 S 
ATOM     10  O   UNL     1       1.864   9.079  22.264  0.00  0.00    +0.000 OA
ATOM     11  O   UNL     1      -0.454   8.566  21.435  0.00  0.00    +0.000 OA
BRANCH   9  12
ATOM     12  C   UNL     1       1.613   7.590  20.155  0.00  0.00    +0.000 A 
ATOM     13  C   UNL     1       1.606   6.322  20.734  0.00  0.00    +0.000 A 
ATOM     14  C   UNL     1       2.230   5.273  20.062  0.00  0.00    +0.000 A 
ATOM     15  C   UNL     1       2.830   5.496  18.822  0.00  0.00    +0.000 A 
ATOM     16  C   UNL     1       2.757   6.806  18.321  0.00  0.00    +0.000 A 
ATOM     17  N   UNL     1       2.172   7.868  18.952  0.00  0.00    +0.000 NA
BRANCH  15  18
ATOM     18  C   UNL     1       3.590   4.405  18.080  0.00  0.00    +0.000 C 
ATOM     19  C   UNL     1       2.610   3.444  17.396  0.00  0.00    +0.000 C 
ATOM     20  C   UNL     1       4.597   4.921  17.039  0.00  0.00    +0.000 C 
ENDBRANCH  15  18
ENDBRANCH   9  12
ENDBRANCH   3   9
BRANCH   1  21
ATOM     21  O   UNL     1      -0.993  12.021  21.891  0.00  0.00    +0.000 OA
BRANCH  21  27
ATOM     22  C   UNL     1       0.630  13.845  21.864  0.00  0.00    +0.000 A 
ATOM     23  C   UNL     1       0.900  15.201  22.139  0.00  0.00    +0.000 A 
ATOM     24  C   UNL     1      -0.038  16.031  22.750  0.00  0.00    +0.000 A 
ATOM     25  C   UNL     1      -1.259  15.506  23.138  0.00  0.00    +0.000 A 
ATOM     26  C   UNL     1      -1.537  14.162  22.898  0.00  0.00    +0.000 A 
ATOM     27  C   UNL     1      -0.629  13.326  22.207  0.00  0.00    +0.000 A 
BRANCH  22  29
ATOM     28  C   UNL     1       2.331  13.815  20.141  0.00  0.00    +0.000 C 
ATOM     29  O   UNL     1       1.709  13.250  21.277  0.00  0.00    +0.000 OA
ENDBRANCH  22  29
ENDBRANCH  21  27
ENDBRANCH   1  21
BRANCH   7  30
ATOM     30  O   UNL     1      -3.088  13.132  20.356  0.00  0.00    +0.000 OA
BRANCH  30  31
ATOM     31  C   UNL     1      -4.471  12.768  20.279  0.00  0.00    +0.000 C 
BRANCH  31  32
ATOM     32  C   UNL     1      -5.066  12.779  21.633  0.00  0.00    +0.000 C 
ATOM     33  C   UNL     1      -5.514  12.777  22.750  0.00  0.00    +0.000 C 
BRANCH  33  34
ATOM     34  C   UNL     1      -6.052  12.743  24.115  0.00  0.00    +0.000 C 
BRANCH  34  35
ATOM     35  O   UNL     1      -5.157  12.060  24.973  0.00  0.00    +0.000 OA
ATOM     36  H   UNL     1      -4.275  12.437  24.822  0.00  0.00    +0.000 HD
ENDBRANCH  34  35
ENDBRANCH  33  34
ENDBRANCH  31  32
ENDBRANCH  30  31
ENDBRANCH   7  30
TORSDOF 11
ENDMDL
MODEL 6
REMARK VINA RESULT:      -7.1      6.712      9.939
REMARK  Name = 
REMARK  14 active torsions:
REMARK  status: ('A' for Active; 'I' for Inactive)
REMARK    1  A    between atoms: C_1  and  O_2
REMARK    2  A    between atoms: O_2  and  C_3
REMARK    3  A    between atoms: C_8  and  O_9
REMARK    4  A    between atoms: O_9  and  C_10
REMARK    5  A    between atoms: N_12  and  S_13
REMARK    6  A    between atoms: S_13  and  C_16
REMARK    7  A    between atoms: C_19  and  C_20
REMARK    8  A    between atoms: C_20  and  C_21
REMARK    9  A    between atoms: C_20  and  C_22
REMARK   10  A    between atoms: C_28  and  O_29
REMARK   11  A    between atoms: O_29  and  C_30
REMARK   12  A    between atoms: C_30  and  C_31
REMARK   13  A    between atoms: C_32  and  C_33
REMARK   14  A    between atoms: C_33  and  O_34
REMARK                            x       y       z     vdW  Elec       q    Type
REMARK                         _______ _______ _______ _____ _____    ______ ____
ROOT
ATOM      1  C   UNL     1      -0.641  11.226  19.454  0.00  0.00    +0.000 A 
ATOM      2  C   UNL     1      -0.743  12.400  20.200  0.00  0.00    +0.000 A 
ATOM      3  N   UNL     1      -1.945  12.901  20.755  0.00  0.00    +0.000 N 
ATOM      4  N   UNL     1       0.289  13.221  20.433  0.00  0.00    +0.000 NA
ATOM      5  C   UNL     1       1.450  12.887  19.865  0.00  0.00    +0.000 A 
ATOM      6  N   UNL     1       1.673  11.817  19.090  0.00  0.00    +0.000 NA
ATOM      7  C   UNL     1       0.613  11.006  18.889  0.00  0.00    +0.000 A 
ATOM      8  H   UNL     1      -2.769  12.825  20.161  0.00  0.00    +0.000 HD
ENDROOT
BRANCH   3   9
ATOM      9  S   UNL     1      -2.354  12.452  22.318  0.00  0.00    +0.000 S 
ATOM     10  O   UNL     1      -3.806  12.321  22.283  0.00  0.00    +0.000 OA
ATOM     11  O   UNL     1      -1.540  11.304  22.683  0.00  0.00    +0.000 OA
BRANCH   9  12
ATOM     12  C   UNL     1      -2.028  13.731  23.541  0.00  0.00    +0.000 A 
ATOM     13  C   UNL     1      -3.082  14.037  24.401  0.00  0.00    +0.000 A 
ATOM     14  C   UNL     1      -2.938  15.100  25.289  0.00  0.00    +0.000 A 
ATOM     15  C   UNL     1      -1.747  15.826  25.323  0.00  0.00    +0.000 A 
ATOM     16  C   UNL     1      -0.743  15.417  24.430  0.00  0.00    +0.000 A 
ATOM     17  N   UNL     1      -0.846  14.394  23.530  0.00  0.00    +0.000 NA
BRANCH  15  18
ATOM     18  C   UNL     1      -1.564  17.043  26.220  0.00  0.00    +0.000 C 
ATOM     19  C   UNL     1      -0.386  16.826  27.177  0.00  0.00    +0.000 C 
ATOM     20  C   UNL     1      -1.361  18.368  25.467  0.00  0.00    +0.000 C 
ENDBRANCH  15  18
ENDBRANCH   9  12
ENDBRANCH   3   9
BRANCH   1  21
ATOM     21  O   UNL     1      -1.710  10.369  19.300  0.00  0.00    +0.000 OA
BRANCH  21  27
ATOM     22  C   UNL     1      -3.574  11.348  18.064  0.00  0.00    +0.000 A 
ATOM     23  C   UNL     1      -4.235  11.493  16.828  0.00  0.00    +0.000 A 
ATOM     24  C   UNL     1      -3.822  10.811  15.685  0.00  0.00    +0.000 A 
ATOM     25  C   UNL     1      -2.757   9.930  15.767  0.00  0.00    +0.000 A 
ATOM     26  C   UNL     1      -2.105   9.752  16.987  0.00  0.00    +0.000 A 
ATOM     27  C   UNL     1      -2.459  10.497  18.135  0.00  0.00    +0.000 A 
BRANCH  22  29
ATOM     28  C   UNL     1      -5.573  12.054  19.233  0.00  0.00    +0.000 C 
ATOM     29  O   UNL     1      -4.177  12.109  19.023  0.00  0.00    +0.000 OA
ENDBRANCH  22  29
ENDBRANCH  21  27
ENDBRANCH   1  21
BRANCH   7  30
ATOM     30  O   UNL     1       0.773   9.933  18.027  0.00  0.00    +0.000 OA
BRANCH  30  31
ATOM     31  C   UNL     1       2.138   9.570  17.787  0.00  0.00    +0.000 C 
BRANCH  31  32
ATOM     32  C   UNL     1       2.318   8.122  18.025  0.00  0.00    +0.000 C 
ATOM     33  C   UNL     1       2.467   6.937  18.179  0.00  0.00    +0.000 C 
BRANCH  33  34
ATOM     34  C   UNL     1       2.624   5.488  18.348  0.00  0.00    +0.000 C 
BRANCH  34  35
ATOM     35  O   UNL     1       3.557   4.987  17.409  0.00  0.00    +0.000 OA
ATOM     36  H   UNL     1       3.124   4.257  16.939  0.00  0.00    +0.000 HD
ENDBRANCH  34  35
ENDBRANCH  33  34
ENDBRANCH  31  32
ENDBRANCH  30  31
ENDBRANCH   7  30
TORSDOF 11
ENDMDL
MODEL 7
REMARK VINA RESULT:      -7.0      6.595     10.586
REMARK  Name = 
REMARK  14 active torsions:
REMARK  status: ('A' for Active; 'I' for Inactive)
REMARK    1  A    between atoms: C_1  and  O_2
REMARK    2  A    between atoms: O_2  and  C_3
REMARK    3  A    between atoms: C_8  and  O_9
REMARK    4  A    between atoms: O_9  and  C_10
REMARK    5  A    between atoms: N_12  and  S_13
REMARK    6  A    between atoms: S_13  and  C_16
REMARK    7  A    between atoms: C_19  and  C_20
REMARK    8  A    between atoms: C_20  and  C_21
REMARK    9  A    between atoms: C_20  and  C_22
REMARK   10  A    between atoms: C_28  and  O_29
REMARK   11  A    between atoms: O_29  and  C_30
REMARK   12  A    between atoms: C_30  and  C_31
REMARK   13  A    between atoms: C_32  and  C_33
REMARK   14  A    between atoms: C_33  and  O_34
REMARK                            x       y       z     vdW  Elec       q    Type
REMARK                         _______ _______ _______ _____ _____    ______ ____
ROOT
ATOM      1  C   UNL     1      -0.108  11.824  18.793  0.00  0.00    +0.000 A 
ATOM      2  C   UNL     1       0.154  13.194  18.760  0.00  0.00    +0.000 A 
ATOM      3  N   UNL     1      -0.821  14.207  18.926  0.00  0.00    +0.000 N 
ATOM      4  N   UNL     1       1.365  13.710  18.513  0.00  0.00    +0.000 NA
ATOM      5  C   UNL     1       2.337  12.835  18.242  0.00  0.00    +0.000 A 
ATOM      6  N   UNL     1       2.210  11.502  18.196  0.00  0.00    +0.000 NA
ATOM      7  C   UNL     1       0.979  11.018  18.463  0.00  0.00    +0.000 A 
ATOM      8  H   UNL     1      -1.713  14.038  18.463  0.00  0.00    +0.000 HD
ENDROOT
BRANCH   3   9
ATOM      9  S   UNL     1      -1.108  14.796  20.470  0.00  0.00    +0.000 S 
ATOM     10  O   UNL     1      -0.053  14.200  21.281  0.00  0.00    +0.000 OA
ATOM     11  O   UNL     1      -1.216  16.243  20.385  0.00  0.00    +0.000 OA
BRANCH   9  12
ATOM     12  C   UNL     1      -2.646  14.201  21.189  0.00  0.00    +0.000 A 
ATOM     13  C   UNL     1      -3.720  15.091  21.157  0.00  0.00    +0.000 A 
ATOM     14  C   UNL     1      -4.902  14.740  21.804  0.00  0.00    +0.000 A 
ATOM     15  C   UNL     1      -5.006  13.509  22.452  0.00  0.00    +0.000 A 
ATOM     16  C   UNL     1      -3.873  12.681  22.401  0.00  0.00    +0.000 A 
ATOM     17  N   UNL     1      -2.688  12.990  21.796  0.00  0.00    +0.000 NA
BRANCH  15  18
ATOM     18  C   UNL     1      -6.247  13.107  23.238  0.00  0.00    +0.000 C 
ATOM     19  C   UNL     1      -6.910  14.345  23.856  0.00  0.00    +0.000 C 
ATOM     20  C   UNL     1      -7.296  12.330  22.425  0.00  0.00    +0.000 C 
ENDBRANCH  15  18
ENDBRANCH   9  12
ENDBRANCH   3   9
BRANCH   1  21
ATOM     21  O   UNL     1      -1.352  11.332  19.127  0.00  0.00    +0.000 OA
BRANCH  21  27
ATOM     22  C   UNL     1      -3.549  11.558  18.087  0.00  0.00    +0.000 A 
ATOM     23  C   UNL     1      -4.357  11.332  16.954  0.00  0.00    +0.000 A 
ATOM     24  C   UNL     1      -3.890  10.639  15.839  0.00  0.00    +0.000 A 
ATOM     25  C   UNL     1      -2.608  10.116  15.853  0.00  0.00    +0.000 A 
ATOM     26  C   UNL     1      -1.801  10.306  16.974  0.00  0.00    +0.000 A 
ATOM     27  C   UNL     1      -2.231  11.076  18.079  0.00  0.00    +0.000 A 
BRANCH  22  29
ATOM     28  C   UNL     1      -5.648  12.366  18.983  0.00  0.00    +0.000 C 
ATOM     29  O   UNL     1      -4.242  12.245  19.041  0.00  0.00    +0.000 OA
ENDBRANCH  22  29
ENDBRANCH  21  27
ENDBRANCH   1  21
BRANCH   7  30
ATOM     30  O   UNL     1       0.779   9.653  18.346  0.00  0.00    +0.000 OA
BRANCH  30  31
ATOM     31  C   UNL     1       1.457   8.872  19.338  0.00  0.00    +0.000 C 
BRANCH  31  32
ATOM     32  C   UNL     1       0.809   9.064  20.652  0.00  0.00    +0.000 C 
ATOM     33  C   UNL     1       0.249   9.235  21.704  0.00  0.00    +0.000 C 
BRANCH  33  34
ATOM     34  C   UNL     1      -0.439   9.474  22.978  0.00  0.00    +0.000 C 
BRANCH  34  35
ATOM     35  O   UNL     1       0.507   9.638  24.018  0.00  0.00    +0.000 OA
ATOM     36  H   UNL     1       1.264   9.068  23.806  0.00  0.00    +0.000 HD
ENDBRANCH  34  35
ENDBRANCH  33  34
ENDBRANCH  31  32
ENDBRANCH  30  31
ENDBRANCH   7  30
TORSDOF 11
ENDMDL
MODEL 8
REMARK VINA RESULT:      -7.0      5.270      8.706
REMARK  Name = 
REMARK  14 active torsions:
REMARK  status: ('A' for Active; 'I' for Inactive)
REMARK    1  A    between atoms: C_1  and  O_2
REMARK    2  A    between atoms: O_2  and  C_3
REMARK    3  A    between atoms: C_8  and  O_9
REMARK    4  A    between atoms: O_9  and  C_10
REMARK    5  A    between atoms: N_12  and  S_13
REMARK    6  A    between atoms: S_13  and  C_16
REMARK    7  A    between atoms: C_19  and  C_20
REMARK    8  A    between atoms: C_20  and  C_21
REMARK    9  A    between atoms: C_20  and  C_22
REMARK   10  A    between atoms: C_28  and  O_29
REMARK   11  A    between atoms: O_29  and  C_30
REMARK   12  A    between atoms: C_30  and  C_31
REMARK   13  A    between atoms: C_32  and  C_33
REMARK   14  A    between atoms: C_33  and  O_34
REMARK                            x       y       z     vdW  Elec       q    Type
REMARK                         _______ _______ _______ _____ _____    ______ ____
ROOT
ATOM      1  C   UNL     1      -0.955  11.540  20.307  0.00  0.00    +0.000 A 
ATOM      2  C   UNL     1      -0.174  10.582  19.660  0.00  0.00    +0.000 A 
ATOM      3  N   UNL     1       1.038  10.053  20.166  0.00  0.00    +0.000 N 
ATOM      4  N   UNL     1      -0.459  10.088  18.448  0.00  0.00    +0.000 NA
ATOM      5  C   UNL     1      -1.533  10.600  17.840  0.00  0.00    +0.000 A 
ATOM      6  N   UNL     1      -2.339  11.552  18.327  0.00  0.00    +0.000 NA
ATOM      7  C   UNL     1      -2.028  12.015  19.555  0.00  0.00    +0.000 A 
ATOM      8  H   UNL     1       1.658  10.727  20.614  0.00  0.00    +0.000 HD
ENDROOT
BRANCH   3   9
ATOM      9  S   UNL     1       0.976   8.661  21.100  0.00  0.00    +0.000 S 
ATOM     10  O   UNL     1       1.876   8.939  22.213  0.00  0.00    +0.000 OA
ATOM     11  O   UNL     1      -0.421   8.360  21.366  0.00  0.00    +0.000 OA
BRANCH   9  12
ATOM     12  C   UNL     1       1.673   7.218  20.282  0.00  0.00    +0.000 A 
ATOM     13  C   UNL     1       1.505   6.001  20.943  0.00  0.00    +0.000 A 
ATOM     14  C   UNL     1       2.124   4.866  20.426  0.00  0.00    +0.000 A 
ATOM     15  C   UNL     1       2.880   4.952  19.257  0.00  0.00    +0.000 A 
ATOM     16  C   UNL     1       2.963   6.222  18.661  0.00  0.00    +0.000 A 
ATOM     17  N   UNL     1       2.389   7.365  19.140  0.00  0.00    +0.000 NA
BRANCH  15  18
ATOM     18  C   UNL     1       3.639   3.760  18.691  0.00  0.00    +0.000 C 
ATOM     19  C   UNL     1       2.769   2.498  18.751  0.00  0.00    +0.000 C 
ATOM     20  C   UNL     1       4.149   3.949  17.253  0.00  0.00    +0.000 C 
ENDBRANCH  15  18
ENDBRANCH   9  12
ENDBRANCH   3   9
BRANCH   1  21
ATOM     21  O   UNL     1      -0.668  11.966  21.586  0.00  0.00    +0.000 OA
BRANCH  21  27
ATOM     22  C   UNL     1      -0.523  14.179  22.606  0.00  0.00    +0.000 A 
ATOM     23  C   UNL     1       0.203  15.379  22.746  0.00  0.00    +0.000 A 
ATOM     24  C   UNL     1       1.366  15.627  22.018  0.00  0.00    +0.000 A 
ATOM     25  C   UNL     1       1.804  14.690  21.098  0.00  0.00    +0.000 A 
ATOM     26  C   UNL     1       1.086  13.508  20.926  0.00  0.00    +0.000 A 
ATOM     27  C   UNL     1      -0.049  13.205  21.714  0.00  0.00    +0.000 A 
BRANCH  22  29
ATOM     28  C   UNL     1      -1.654  14.951  24.603  0.00  0.00    +0.000 C 
ATOM     29  O   UNL     1      -1.623  14.187  23.415  0.00  0.00    +0.000 OA
ENDBRANCH  22  29
ENDBRANCH  21  27
ENDBRANCH   1  21
BRANCH   7  30
ATOM     30  O   UNL     1      -2.783  13.058  20.065  0.00  0.00    +0.000 OA
BRANCH  30  31
ATOM     31  C   UNL     1      -4.162  12.734  20.283  0.00  0.00    +0.000 C 
BRANCH  31  32
ATOM     32  C   UNL     1      -4.477  12.842  21.724  0.00  0.00    +0.000 C 
ATOM     33  C   UNL     1      -4.699  12.912  22.905  0.00  0.00    +0.000 C 
BRANCH  33  34
ATOM     34  C   UNL     1      -4.966  12.964  24.347  0.00  0.00    +0.000 C 
BRANCH  34  35
ATOM     35  O   UNL     1      -4.853  11.671  24.910  0.00  0.00    +0.000 OA
ATOM     36  H   UNL     1      -4.073  11.680  25.488  0.00  0.00    +0.000 HD
ENDBRANCH  34  35
ENDBRANCH  33  34
ENDBRANCH  31  32
ENDBRANCH  30  31
ENDBRANCH   7  30
TORSDOF 11
ENDMDL
MODEL 9
REMARK VINA RESULT:      -7.0      5.502      8.964
REMARK  Name = 
REMARK  14 active torsions:
REMARK  status: ('A' for Active; 'I' for Inactive)
REMARK    1  A    between atoms: C_1  and  O_2
REMARK    2  A    between atoms: O_2  and  C_3
REMARK    3  A    between atoms: C_8  and  O_9
REMARK    4  A    between atoms: O_9  and  C_10
REMARK    5  A    between atoms: N_12  and  S_13
REMARK    6  A    between atoms: S_13  and  C_16
REMARK    7  A    between atoms: C_19  and  C_20
REMARK    8  A    between atoms: C_20  and  C_21
REMARK    9  A    between atoms: C_20  and  C_22
REMARK   10  A    between atoms: C_28  and  O_29
REMARK   11  A    between atoms: O_29  and  C_30
REMARK   12  A    between atoms: C_30  and  C_31
REMARK   13  A    between atoms: C_32  and  C_33
REMARK   14  A    between atoms: C_33  and  O_34
REMARK                            x       y       z     vdW  Elec       q    Type
REMARK                         _______ _______ _______ _____ _____    ______ ____
ROOT
ATOM      1  C   UNL     1      -0.863  11.279  21.124  0.00  0.00    +0.000 A 
ATOM      2  C   UNL     1      -0.399   9.991  20.858  0.00  0.00    +0.000 A 
ATOM      3  N   UNL     1      -0.307   9.418  19.567  0.00  0.00    +0.000 N 
ATOM      4  N   UNL     1      -0.031   9.124  21.810  0.00  0.00    +0.000 NA
ATOM      5  C   UNL     1      -0.176   9.537  23.072  0.00  0.00    +0.000 A 
ATOM      6  N   UNL     1      -0.652  10.726  23.466  0.00  0.00    +0.000 NA
ATOM      7  C   UNL     1      -0.999  11.577  22.479  0.00  0.00    +0.000 A 
ATOM      8  H   UNL     1      -1.088   9.614  18.942  0.00  0.00    +0.000 HD
ENDROOT
BRANCH   3   9
ATOM      9  S   UNL     1       1.129   9.583  18.716  0.00  0.00    +0.000 S 
ATOM     10  O   UNL     1       0.709   9.662  17.322  0.00  0.00    +0.000 OA
ATOM     11  O   UNL     1       1.875  10.684  19.304  0.00  0.00    +0.000 OA
BRANCH   9  12
ATOM     12  C   UNL     1       2.187   8.131  18.806  0.00  0.00    +0.000 A 
ATOM     13  C   UNL     1       3.044   7.932  17.724  0.00  0.00    +0.000 A 
ATOM     14  C   UNL     1       3.801   6.764  17.673  0.00  0.00    +0.000 A 
ATOM     15  C   UNL     1       3.710   5.826  18.702  0.00  0.00    +0.000 A 
ATOM     16  C   UNL     1       2.834   6.139  19.754  0.00  0.00    +0.000 A 
ATOM     17  N   UNL     1       2.060   7.261  19.838  0.00  0.00    +0.000 NA
BRANCH  15  18
ATOM     18  C   UNL     1       4.458   4.500  18.660  0.00  0.00    +0.000 C 
ATOM     19  C   UNL     1       3.795   3.485  19.600  0.00  0.00    +0.000 C 
ATOM     20  C   UNL     1       4.580   3.879  17.258  0.00  0.00    +0.000 C 
ENDBRANCH  15  18
ENDBRANCH   9  12
ENDBRANCH   3   9
BRANCH   1  21
ATOM     21  O   UNL     1      -1.159  12.167  20.112  0.00  0.00    +0.000 OA
BRANCH  21  27
ATOM     22  C   UNL     1      -2.821  11.538  18.439  0.00  0.00    +0.000 A 
ATOM     23  C   UNL     1      -4.179  11.510  18.064  0.00  0.00    +0.000 A 
ATOM     24  C   UNL     1      -5.173  12.101  18.843  0.00  0.00    +0.000 A 
ATOM     25  C   UNL     1      -4.818  12.774  20.000  0.00  0.00    +0.000 A 
ATOM     26  C   UNL     1      -3.477  12.836  20.375  0.00  0.00    +0.000 A 
ATOM     27  C   UNL     1      -2.467  12.172  19.640  0.00  0.00    +0.000 A 
BRANCH  22  29
ATOM     28  C   UNL     1      -2.605   9.937  16.634  0.00  0.00    +0.000 C 
ATOM     29  O   UNL     1      -2.053  10.903  17.506  0.00  0.00    +0.000 OA
ENDBRANCH  22  29
ENDBRANCH  21  27
ENDBRANCH   1  21
BRANCH   7  30
ATOM     30  O   UNL     1      -1.573  12.786  22.837  0.00  0.00    +0.000 OA
BRANCH  30  31
ATOM     31  C   UNL     1      -2.710  12.664  23.700  0.00  0.00    +0.000 C 
BRANCH  31  32
ATOM     32  C   UNL     1      -3.154  14.006  24.132  0.00  0.00    +0.000 C 
ATOM     33  C   UNL     1      -3.479  15.106  24.497  0.00  0.00    +0.000 C 
BRANCH  33  34
ATOM     34  C   UNL     1      -3.865  16.440  24.972  0.00  0.00    +0.000 C 
BRANCH  34  35
ATOM     35  O   UNL     1      -5.274  16.569  24.967  0.00  0.00    +0.000 OA
ATOM     36  H   UNL     1      -5.475  17.505  25.129  0.00  0.00    +0.000 HD
ENDBRANCH  34  35
ENDBRANCH  33  34
ENDBRANCH  31  32
ENDBRANCH  30  31
ENDBRANCH   7  30
TORSDOF 11
ENDMDL
