MODEL 1
REMARK VINA RESULT:      -8.2      0.000      0.000
REMARK  Name = 
REMARK  6 active torsions:
REMARK  status: ('A' for Active; 'I' for Inactive)
REMARK    1  A    between atoms: C_1  and  O_2
REMARK    2  A    between atoms: O_2  and  C_3
REMARK    3  A    between atoms: C_6  and  C_7
REMARK    4  A    between atoms: N_9  and  C_10
REMARK    5  A    between atoms: C_10  and  C_11
REMARK    6  A    between atoms: C_20  and  O_21
REMARK                            x       y       z     vdW  Elec       q    Type
REMARK                         _______ _______ _______ _____ _____    ______ ____
ROOT
ATOM      1  C   UNL     1       3.323   6.062  18.350  0.00  0.00    +0.000 A 
ATOM      2  C   UNL     1       4.670   6.028  18.037  0.00  0.00    +0.000 A 
ATOM      3  N   UNL     1       5.043   4.721  17.818  0.00  0.00    +0.000 N 
ATOM      4  C   UNL     1       3.956   3.889  17.998  0.00  0.00    +0.000 A 
ATOM      5  C   UNL     1       3.794   2.504  17.903  0.00  0.00    +0.000 A 
ATOM      6  C   UNL     1       2.504   2.013  18.103  0.00  0.00    +0.000 A 
ATOM      7  C   UNL     1       1.479   2.904  18.379  0.00  0.00    +0.000 A 
ATOM      8  N   UNL     1       1.614   4.229  18.496  0.00  0.00    +0.000 NA
ATOM      9  C   UNL     1       2.866   4.711  18.302  0.00  0.00    +0.000 A 
ENDROOT
BRANCH   1  13
ATOM     10  C   UNL     1       1.175   9.684  19.135  0.00  0.00    +0.000 A 
ATOM     11  C   UNL     1       1.316   8.718  20.128  0.00  0.00    +0.000 A 
ATOM     12  C   UNL     1       2.022   7.537  19.874  0.00  0.00    +0.000 A 
ATOM     13  C   UNL     1       2.582   7.293  18.613  0.00  0.00    +0.000 A 
ATOM     14  C   UNL     1       2.417   8.264  17.615  0.00  0.00    +0.000 A 
ATOM     15  C   UNL     1       1.717   9.449  17.872  0.00  0.00    +0.000 A 
BRANCH  10  17
ATOM     16  C   UNL     1      -0.901  10.573  19.826  0.00  0.00    +0.000 C 
ATOM     17  O   UNL     1       0.464  10.796  19.493  0.00  0.00    +0.000 OA
ENDBRANCH  10  17
ENDBRANCH   1  13
BRANCH   7  18
ATOM     18  O   UNL     1       0.198   2.455  18.544  0.00  0.00    +0.000 OA
ATOM     19  H   UNL     1      -0.347   3.197  18.837  0.00  0.00    +0.000 HD
ENDBRANCH   7  18
BRANCH   3  20
ATOM     20  C   UNL     1       6.337   4.334  17.266  0.00  0.00    +0.000 C 
BRANCH  20  21
ATOM     21  C   UNL     1       6.404   4.407  15.763  0.00  0.00    +0.000 A 
ATOM     22  C   UNL     1       7.432   5.117  15.126  0.00  0.00    +0.000 A 
ATOM     23  C   UNL     1       7.549   5.108  13.734  0.00  0.00    +0.000 A 
ATOM     24  C   UNL     1       6.635   4.396  12.960  0.00  0.00    +0.000 A 
ATOM     25  C   UNL     1       5.593   3.708  13.577  0.00  0.00    +0.000 A 
ATOM     26  C   UNL     1       5.473   3.716  14.968  0.00  0.00    +0.000 A 
ENDBRANCH  20  21
ENDBRANCH   3  20
TORSDOF 5
ENDMDL
MODEL 2
REMARK VINA RESULT:      -8.2      0.594      1.128
REMARK  Name = 
REMARK  6 active torsions:
REMARK  status: ('A' for Active; 'I' for Inactive)
REMARK    1  A    between atoms: C_1  and  O_2
REMARK    2  A    between atoms: O_2  and  C_3
REMARK    3  A    between atoms: C_6  and  C_7
REMARK    4  A    between atoms: N_9  and  C_10
REMARK    5  A    between atoms: C_10  and  C_11
REMARK    6  A    between atoms: C_20  and  O_21
REMARK                            x       y       z     vdW  Elec       q    Type
REMARK                         _______ _______ _______ _____ _____    ______ ____
ROOT
ATOM      1  C   UNL     1       3.127   6.102  18.781  0.00  0.00    +0.000 A 
ATOM      2  C   UNL     1       4.469   6.050  18.446  0.00  0.00    +0.000 A 
ATOM      3  N   UNL     1       4.854   4.732  18.354  0.00  0.00    +0.000 N 
ATOM      4  C   UNL     1       3.781   3.912  18.640  0.00  0.00    +0.000 A 
ATOM      5  C   UNL     1       3.634   2.522  18.690  0.00  0.00    +0.000 A 
ATOM      6  C   UNL     1       2.355   2.041  18.965  0.00  0.00    +0.000 A 
ATOM      7  C   UNL     1       1.324   2.945  19.169  0.00  0.00    +0.000 A 
ATOM      8  N   UNL     1       1.444   4.276  19.148  0.00  0.00    +0.000 NA
ATOM      9  C   UNL     1       2.687   4.749  18.880  0.00  0.00    +0.000 A 
ENDROOT
BRANCH   1  13
ATOM     10  C   UNL     1       0.901   9.736  19.214  0.00  0.00    +0.000 A 
ATOM     11  C   UNL     1       1.442   9.382  17.980  0.00  0.00    +0.000 A 
ATOM     12  C   UNL     1       2.165   8.193  17.837  0.00  0.00    +0.000 A 
ATOM     13  C   UNL     1       2.376   7.346  18.932  0.00  0.00    +0.000 A 
ATOM     14  C   UNL     1       1.844   7.721  20.173  0.00  0.00    +0.000 A 
ATOM     15  C   UNL     1       1.114   8.908  20.315  0.00  0.00    +0.000 A 
BRANCH  10  17
ATOM     16  C   UNL     1      -0.561  11.156  20.406  0.00  0.00    +0.000 C 
ATOM     17  O   UNL     1       0.216  10.919  19.238  0.00  0.00    +0.000 OA
ENDBRANCH  10  17
ENDBRANCH   1  13
BRANCH   7  18
ATOM     18  O   UNL     1       0.053   2.502  19.405  0.00  0.00    +0.000 OA
ATOM     19  H   UNL     1      -0.203   2.776  20.296  0.00  0.00    +0.000 HD
ENDBRANCH   7  18
BRANCH   3  20
ATOM     20  C   UNL     1       6.142   4.305  17.818  0.00  0.00    +0.000 C 
BRANCH  20  21
ATOM     21  C   UNL     1       6.241   4.406  16.319  0.00  0.00    +0.000 A 
ATOM     22  C   UNL     1       7.299   5.103  15.717  0.00  0.00    +0.000 A 
ATOM     23  C   UNL     1       7.445   5.120  14.328  0.00  0.00    +0.000 A 
ATOM     24  C   UNL     1       6.530   4.446  13.522  0.00  0.00    +0.000 A 
ATOM     25  C   UNL     1       5.459   3.771  14.103  0.00  0.00    +0.000 A 
ATOM     26  C   UNL     1       5.311   3.754  15.492  0.00  0.00    +0.000 A 
ENDBRANCH  20  21
ENDBRANCH   3  20
TORSDOF 5
ENDMDL
MODEL 3
REMARK VINA RESULT:      -8.1      0.760      1.248
REMARK  Name = 
REMARK  6 active torsions:
REMARK  status: ('A' for Active; 'I' for Inactive)
REMARK    1  A    between atoms: C_1  and  O_2
REMARK    2  A    between atoms: O_2  and  C_3
REMARK    3  A    between atoms: C_6  and  C_7
REMARK    4  A    between atoms: N_9  and  C_10
REMARK    5  A    between atoms: C_10  and  C_11
REMARK    6  A    between atoms: C_20  and  O_21
REMARK                            x       y       z     vdW  Elec       q    Type
REMARK                         _______ _______ _______ _____ _____    ______ ____
ROOT
ATOM      1  C   UNL     1       3.084   6.146  18.935  0.00  0.00    +0.000 A 
ATOM      2  C   UNL     1       4.438   6.096  18.656  0.00  0.00    +0.000 A 
ATOM      3  N   UNL     1       4.835   4.779  18.607  0.00  0.00    +0.000 N 
ATOM      4  C   UNL     1       3.756   3.957  18.865  0.00  0.00    +0.000 A 
ATOM      5  C   UNL     1       3.616   2.568  18.938  0.00  0.00    +0.000 A 
ATOM      6  C   UNL     1       2.330   2.084  19.172  0.00  0.00    +0.000 A 
ATOM      7  C   UNL     1       1.286   2.984  19.316  0.00  0.00    +0.000 A 
ATOM      8  N   UNL     1       1.399   4.315  19.271  0.00  0.00    +0.000 NA
ATOM      9  C   UNL     1       2.648   4.792  19.045  0.00  0.00    +0.000 A 
ENDROOT
BRANCH   1  13
ATOM     10  C   UNL     1       0.867   9.799  19.223  0.00  0.00    +0.000 A 
ATOM     11  C   UNL     1       1.053   8.996  20.346  0.00  0.00    +0.000 A 
ATOM     12  C   UNL     1       1.781   7.805  20.253  0.00  0.00    +0.000 A 
ATOM     13  C   UNL     1       2.320   7.387  19.030  0.00  0.00    +0.000 A 
ATOM     14  C   UNL     1       2.111   8.194  17.903  0.00  0.00    +0.000 A 
ATOM     15  C   UNL     1       1.388   9.389  17.997  0.00  0.00    +0.000 A 
BRANCH  10  17
ATOM     16  C   UNL     1      -1.152  10.958  18.831  0.00  0.00    +0.000 C 
ATOM     17  O   UNL     1       0.138  10.938  19.429  0.00  0.00    +0.000 OA
ENDBRANCH  10  17
ENDBRANCH   1  13
BRANCH   7  18
ATOM     18  O   UNL     1       0.009   2.537  19.509  0.00  0.00    +0.000 OA
ATOM     19  H   UNL     1      -0.054   2.178  20.405  0.00  0.00    +0.000 HD
ENDBRANCH   7  18
BRANCH   3  20
ATOM     20  C   UNL     1       6.146   4.350  18.132  0.00  0.00    +0.000 C 
BRANCH  20  21
ATOM     21  C   UNL     1       6.286   4.367  16.633  0.00  0.00    +0.000 A 
ATOM     22  C   UNL     1       5.285   3.823  15.814  0.00  0.00    +0.000 A 
ATOM     23  C   UNL     1       5.368   3.921  14.424  0.00  0.00    +0.000 A 
ATOM     24  C   UNL     1       6.458   4.557  13.832  0.00  0.00    +0.000 A 
ATOM     25  C   UNL     1       7.473   5.079  14.630  0.00  0.00    +0.000 A 
ATOM     26  C   UNL     1       7.392   4.981  16.021  0.00  0.00    +0.000 A 
ENDBRANCH  20  21
ENDBRANCH   3  20
TORSDOF 5
ENDMDL
MODEL 4
REMARK VINA RESULT:      -7.7      2.375      6.806
REMARK  Name = 
REMARK  6 active torsions:
REMARK  status: ('A' for Active; 'I' for Inactive)
REMARK    1  A    between atoms: C_1  and  O_2
REMARK    2  A    between atoms: O_2  and  C_3
REMARK    3  A    between atoms: C_6  and  C_7
REMARK    4  A    between atoms: N_9  and  C_10
REMARK    5  A    between atoms: C_10  and  C_11
REMARK    6  A    between atoms: C_20  and  O_21
REMARK                            x       y       z     vdW  Elec       q    Type
REMARK                         _______ _______ _______ _____ _____    ______ ____
ROOT
ATOM      1  C   UNL     1       3.678   5.621  18.403  0.00  0.00    +0.000 A 
ATOM      2  C   UNL     1       3.309   6.786  19.052  0.00  0.00    +0.000 A 
ATOM      3  N   UNL     1       2.256   6.512  19.895  0.00  0.00    +0.000 N 
ATOM      4  C   UNL     1       1.917   5.178  19.799  0.00  0.00    +0.000 A 
ATOM      5  C   UNL     1       0.938   4.399  20.425  0.00  0.00    +0.000 A 
ATOM      6  C   UNL     1       0.931   3.040  20.111  0.00  0.00    +0.000 A 
ATOM      7  C   UNL     1       1.870   2.549  19.219  0.00  0.00    +0.000 A 
ATOM      8  N   UNL     1       2.800   3.277  18.593  0.00  0.00    +0.000 NA
ATOM      9  C   UNL     1       2.812   4.599  18.894  0.00  0.00    +0.000 A 
ENDROOT
BRANCH   1  13
ATOM     10  C   UNL     1       6.913   5.395  15.606  0.00  0.00    +0.000 A 
ATOM     11  C   UNL     1       5.682   4.817  15.309  0.00  0.00    +0.000 A 
ATOM     12  C   UNL     1       4.623   4.895  16.220  0.00  0.00    +0.000 A 
ATOM     13  C   UNL     1       4.785   5.536  17.454  0.00  0.00    +0.000 A 
ATOM     14  C   UNL     1       6.034   6.099  17.751  0.00  0.00    +0.000 A 
ATOM     15  C   UNL     1       7.092   6.027  16.836  0.00  0.00    +0.000 A 
BRANCH  10  17
ATOM     16  C   UNL     1       7.404   4.897  13.350  0.00  0.00    +0.000 C 
ATOM     17  O   UNL     1       7.875   5.256  14.644  0.00  0.00    +0.000 OA
ENDBRANCH  10  17
ENDBRANCH   1  13
BRANCH   7  18
ATOM     18  O   UNL     1       1.909   1.215  18.921  0.00  0.00    +0.000 OA
ATOM     19  H   UNL     1       2.396   0.762  19.623  0.00  0.00    +0.000 HD
ENDBRANCH   7  18
BRANCH   3  20
ATOM     20  C   UNL     1       1.751   7.458  20.886  0.00  0.00    +0.000 C 
BRANCH  20  21
ATOM     21  C   UNL     1       1.084   8.668  20.288  0.00  0.00    +0.000 A 
ATOM     22  C   UNL     1       1.366   9.063  18.972  0.00  0.00    +0.000 A 
ATOM     23  C   UNL     1       0.681  10.128  18.384  0.00  0.00    +0.000 A 
ATOM     24  C   UNL     1      -0.290  10.819  19.106  0.00  0.00    +0.000 A 
ATOM     25  C   UNL     1      -0.563  10.455  20.423  0.00  0.00    +0.000 A 
ATOM     26  C   UNL     1       0.122   9.390  21.013  0.00  0.00    +0.000 A 
ENDBRANCH  20  21
ENDBRANCH   3  20
TORSDOF 5
ENDMDL
MODEL 5
REMARK VINA RESULT:      -7.7      2.363      6.836
REMARK  Name = 
REMARK  6 active torsions:
REMARK  status: ('A' for Active; 'I' for Inactive)
REMARK    1  A    between atoms: C_1  and  O_2
REMARK    2  A    between atoms: O_2  and  C_3
REMARK    3  A    between atoms: C_6  and  C_7
REMARK    4  A    between atoms: N_9  and  C_10
REMARK    5  A    between atoms: C_10  and  C_11
REMARK    6  A    between atoms: C_20  and  O_21
REMARK                            x       y       z     vdW  Elec       q    Type
REMARK                         _______ _______ _______ _____ _____    ______ ____
ROOT
ATOM      1  C   UNL     1       3.658   5.602  18.309  0.00  0.00    +0.000 A 
ATOM      2  C   UNL     1       3.323   6.781  18.952  0.00  0.00    +0.000 A 
ATOM      3  N   UNL     1       2.289   6.533  19.826  0.00  0.00    +0.000 N 
ATOM      4  C   UNL     1       1.928   5.203  19.756  0.00  0.00    +0.000 A 
ATOM      5  C   UNL     1       0.955   4.447  20.417  0.00  0.00    +0.000 A 
ATOM      6  C   UNL     1       0.920   3.085  20.122  0.00  0.00    +0.000 A 
ATOM      7  C   UNL     1       1.828   2.568  19.212  0.00  0.00    +0.000 A 
ATOM      8  N   UNL     1       2.752   3.274  18.552  0.00  0.00    +0.000 NA
ATOM      9  C   UNL     1       2.791   4.600  18.835  0.00  0.00    +0.000 A 
ENDROOT
BRANCH   1  13
ATOM     10  C   UNL     1       6.840   5.249  15.463  0.00  0.00    +0.000 A 
ATOM     11  C   UNL     1       6.987   6.053  16.591  0.00  0.00    +0.000 A 
ATOM     12  C   UNL     1       5.951   6.164  17.523  0.00  0.00    +0.000 A 
ATOM     13  C   UNL     1       4.739   5.489  17.333  0.00  0.00    +0.000 A 
ATOM     14  C   UNL     1       4.594   4.697  16.185  0.00  0.00    +0.000 A 
ATOM     15  C   UNL     1       5.634   4.580  15.255  0.00  0.00    +0.000 A 
BRANCH  10  17
ATOM     16  C   UNL     1       7.609   5.082  13.237  0.00  0.00    +0.000 C 
ATOM     17  O   UNL     1       7.915   5.216  14.620  0.00  0.00    +0.000 OA
ENDBRANCH  10  17
ENDBRANCH   1  13
BRANCH   7  18
ATOM     18  O   UNL     1       1.840   1.230  18.930  0.00  0.00    +0.000 OA
ATOM     19  H   UNL     1       1.381   0.766  19.644  0.00  0.00    +0.000 HD
ENDBRANCH   7  18
BRANCH   3  20
ATOM     20  C   UNL     1       1.824   7.499  20.817  0.00  0.00    +0.000 C 
BRANCH  20  21
ATOM     21  C   UNL     1       1.064   8.657  20.228  0.00  0.00    +0.000 A 
ATOM     22  C   UNL     1       0.085   9.326  20.977  0.00  0.00    +0.000 A 
ATOM     23  C   UNL     1      -0.555  10.458  20.468  0.00  0.00    +0.000 A 
ATOM     24  C   UNL     1      -0.230  10.933  19.199  0.00  0.00    +0.000 A 
ATOM     25  C   UNL     1       0.722  10.265  18.432  0.00  0.00    +0.000 A 
ATOM     26  C   UNL     1       1.362   9.131  18.939  0.00  0.00    +0.000 A 
ENDBRANCH  20  21
ENDBRANCH   3  20
TORSDOF 5
ENDMDL
MODEL 6
REMARK VINA RESULT:      -7.6      1.283      1.459
REMARK  Name = 
REMARK  6 active torsions:
REMARK  status: ('A' for Active; 'I' for Inactive)
REMARK    1  A    between atoms: C_1  and  O_2
REMARK    2  A    between atoms: O_2  and  C_3
REMARK    3  A    between atoms: C_6  and  C_7
REMARK    4  A    between atoms: N_9  and  C_10
REMARK    5  A    between atoms: C_10  and  C_11
REMARK    6  A    between atoms: C_20  and  O_21
REMARK                            x       y       z     vdW  Elec       q    Type
REMARK                         _______ _______ _______ _____ _____    ______ ____
ROOT
ATOM      1  C   UNL     1       2.804   6.186  19.632  0.00  0.00    +0.000 A 
ATOM      2  C   UNL     1       4.163   6.204  19.371  0.00  0.00    +0.000 A 
ATOM      3  N   UNL     1       4.590   4.916  19.144  0.00  0.00    +0.000 N 
ATOM      4  C   UNL     1       3.527   4.044  19.267  0.00  0.00    +0.000 A 
ATOM      5  C   UNL     1       3.418   2.655  19.141  0.00  0.00    +0.000 A 
ATOM      6  C   UNL     1       2.140   2.117  19.283  0.00  0.00    +0.000 A 
ATOM      7  C   UNL     1       1.074   2.966  19.535  0.00  0.00    +0.000 A 
ATOM      8  N   UNL     1       1.157   4.292  19.680  0.00  0.00    +0.000 NA
ATOM      9  C   UNL     1       2.398   4.822  19.543  0.00  0.00    +0.000 A 
ENDROOT
BRANCH   1  13
ATOM     10  C   UNL     1       0.500   9.715  20.397  0.00  0.00    +0.000 A 
ATOM     11  C   UNL     1       0.605   8.718  21.363  0.00  0.00    +0.000 A 
ATOM     12  C   UNL     1       1.362   7.567  21.116  0.00  0.00    +0.000 A 
ATOM     13  C   UNL     1       2.011   7.386  19.888  0.00  0.00    +0.000 A 
ATOM     14  C   UNL     1       1.883   8.387  18.916  0.00  0.00    +0.000 A 
ATOM     15  C   UNL     1       1.132   9.542  19.166  0.00  0.00    +0.000 A 
BRANCH  10  17
ATOM     16  C   UNL     1      -0.602  10.887  22.125  0.00  0.00    +0.000 C 
ATOM     17  O   UNL     1      -0.265  10.793  20.746  0.00  0.00    +0.000 OA
ENDBRANCH  10  17
ENDBRANCH   1  13
BRANCH   7  18
ATOM     18  O   UNL     1      -0.195   2.470  19.642  0.00  0.00    +0.000 OA
ATOM     19  H   UNL     1      -0.815   3.160  19.369  0.00  0.00    +0.000 HD
ENDBRANCH   7  18
BRANCH   3  20
ATOM     20  C   UNL     1       5.917   4.585  18.635  0.00  0.00    +0.000 C 
BRANCH  20  21
ATOM     21  C   UNL     1       6.021   4.627  17.133  0.00  0.00    +0.000 A 
ATOM     22  C   UNL     1       7.273   4.680  16.504  0.00  0.00    +0.000 A 
ATOM     23  C   UNL     1       7.376   4.625  15.112  0.00  0.00    +0.000 A 
ATOM     24  C   UNL     1       6.227   4.523  14.330  0.00  0.00    +0.000 A 
ATOM     25  C   UNL     1       4.975   4.496  14.939  0.00  0.00    +0.000 A 
ATOM     26  C   UNL     1       4.870   4.552  16.331  0.00  0.00    +0.000 A 
ENDBRANCH  20  21
ENDBRANCH   3  20
TORSDOF 5
ENDMDL
MODEL 7
REMARK VINA RESULT:      -7.5      1.944      2.952
REMARK  Name = 
REMARK  6 active torsions:
REMARK  status: ('A' for Active; 'I' for Inactive)
REMARK    1  A    between atoms: C_1  and  O_2
REMARK    2  A    between atoms: O_2  and  C_3
REMARK    3  A    between atoms: C_6  and  C_7
REMARK    4  A    between atoms: N_9  and  C_10
REMARK    5  A    between atoms: C_10  and  C_11
REMARK    6  A    between atoms: C_20  and  O_21
REMARK                            x       y       z     vdW  Elec       q    Type
REMARK                         _______ _______ _______ _____ _____    ______ ____
ROOT
ATOM      1  C   UNL     1       1.956   7.643  19.752  0.00  0.00    +0.000 A 
ATOM      2  C   UNL     1       2.745   8.044  18.689  0.00  0.00    +0.000 A 
ATOM      3  N   UNL     1       3.269   6.928  18.077  0.00  0.00    +0.000 N 
ATOM      4  C   UNL     1       2.843   5.792  18.736  0.00  0.00    +0.000 A 
ATOM      5  C   UNL     1       3.081   4.429  18.531  0.00  0.00    +0.000 A 
ATOM      6  C   UNL     1       2.420   3.547  19.384  0.00  0.00    +0.000 A 
ATOM      7  C   UNL     1       1.585   4.057  20.366  0.00  0.00    +0.000 A 
ATOM      8  N   UNL     1       1.359   5.354  20.595  0.00  0.00    +0.000 NA
ATOM      9  C   UNL     1       2.000   6.217  19.767  0.00  0.00    +0.000 A 
ENDROOT
BRANCH   1  13
ATOM     10  C   UNL     1      -0.188  10.369  22.266  0.00  0.00    +0.000 A 
ATOM     11  C   UNL     1       0.591   9.358  22.824  0.00  0.00    +0.000 A 
ATOM     12  C   UNL     1       1.295   8.471  22.003  0.00  0.00    +0.000 A 
ATOM     13  C   UNL     1       1.216   8.567  20.608  0.00  0.00    +0.000 A 
ATOM     14  C   UNL     1       0.414   9.576  20.057  0.00  0.00    +0.000 A 
ATOM     15  C   UNL     1      -0.285  10.469  20.879  0.00  0.00    +0.000 A 
BRANCH  10  17
ATOM     16  C   UNL     1      -1.274  12.430  22.653  0.00  0.00    +0.000 C 
ATOM     17  O   UNL     1      -0.833  11.176  23.162  0.00  0.00    +0.000 OA
ENDBRANCH  10  17
ENDBRANCH   1  13
BRANCH   7  18
ATOM     18  O   UNL     1       0.896   3.215  21.193  0.00  0.00    +0.000 OA
ATOM     19  H   UNL     1      -0.049   3.335  21.029  0.00  0.00    +0.000 HD
ENDBRANCH   7  18
BRANCH   3  20
ATOM     20  C   UNL     1       3.976   6.966  16.801  0.00  0.00    +0.000 C 
BRANCH  20  21
ATOM     21  C   UNL     1       5.249   6.163  16.786  0.00  0.00    +0.000 A 
ATOM     22  C   UNL     1       6.243   6.379  17.753  0.00  0.00    +0.000 A 
ATOM     23  C   UNL     1       7.382   5.574  17.798  0.00  0.00    +0.000 A 
ATOM     24  C   UNL     1       7.549   4.546  16.872  0.00  0.00    +0.000 A 
ATOM     25  C   UNL     1       6.584   4.335  15.890  0.00  0.00    +0.000 A 
ATOM     26  C   UNL     1       5.443   5.140  15.842  0.00  0.00    +0.000 A 
ENDBRANCH  20  21
ENDBRANCH   3  20
TORSDOF 5
ENDMDL
MODEL 8
REMARK VINA RESULT:      -7.4      3.644      8.711
REMARK  Name = 
REMARK  6 active torsions:
REMARK  status: ('A' for Active; 'I' for Inactive)
REMARK    1  A    between atoms: C_1  and  O_2
REMARK    2  A    between atoms: O_2  and  C_3
REMARK    3  A    between atoms: C_6  and  C_7
REMARK    4  A    between atoms: N_9  and  C_10
REMARK    5  A    between atoms: C_10  and  C_11
REMARK    6  A    between atoms: C_20  and  O_21
REMARK                            x       y       z     vdW  Elec       q    Type
REMARK                         _______ _______ _______ _____ _____    ______ ____
ROOT
ATOM      1  C   UNL     1       1.122   9.063  19.301  0.00  0.00    +0.000 A 
ATOM      2  C   UNL     1       0.533   9.840  18.320  0.00  0.00    +0.000 A 
ATOM      3  N   UNL     1      -0.295  10.763  18.919  0.00  0.00    +0.000 N 
ATOM      4  C   UNL     1      -0.268  10.592  20.289  0.00  0.00    +0.000 A 
ATOM      5  C   UNL     1      -0.915  11.248  21.341  0.00  0.00    +0.000 A 
ATOM      6  C   UNL     1      -0.592  10.826  22.629  0.00  0.00    +0.000 A 
ATOM      7  C   UNL     1       0.329   9.803  22.793  0.00  0.00    +0.000 A 
ATOM      8  N   UNL     1       0.943   9.147  21.804  0.00  0.00    +0.000 NA
ATOM      9  C   UNL     1       0.632   9.554  20.548  0.00  0.00    +0.000 A 
ENDROOT
BRANCH   1  13
ATOM     10  C   UNL     1       3.928   5.932  18.481  0.00  0.00    +0.000 A 
ATOM     11  C   UNL     1       3.146   5.895  19.632  0.00  0.00    +0.000 A 
ATOM     12  C   UNL     1       2.226   6.915  19.898  0.00  0.00    +0.000 A 
ATOM     13  C   UNL     1       2.086   8.001  19.025  0.00  0.00    +0.000 A 
ATOM     14  C   UNL     1       2.892   8.038  17.878  0.00  0.00    +0.000 A 
ATOM     15  C   UNL     1       3.808   7.014  17.609  0.00  0.00    +0.000 A 
BRANCH  10  17
ATOM     16  C   UNL     1       4.488   3.717  19.077  0.00  0.00    +0.000 C 
ATOM     17  O   UNL     1       4.793   4.885  18.324  0.00  0.00    +0.000 OA
ENDBRANCH  10  17
ENDBRANCH   1  13
BRANCH   7  18
ATOM     18  O   UNL     1       0.691   9.394  24.046  0.00  0.00    +0.000 OA
ATOM     19  H   UNL     1       1.642   9.215  24.043  0.00  0.00    +0.000 HD
ENDBRANCH   7  18
BRANCH   3  20
ATOM     20  C   UNL     1      -0.912  11.875  18.204  0.00  0.00    +0.000 C 
BRANCH  20  21
ATOM     21  C   UNL     1      -2.333  11.612  17.779  0.00  0.00    +0.000 A 
ATOM     22  C   UNL     1      -3.400  11.868  18.653  0.00  0.00    +0.000 A 
ATOM     23  C   UNL     1      -4.722  11.713  18.229  0.00  0.00    +0.000 A 
ATOM     24  C   UNL     1      -4.994  11.292  16.929  0.00  0.00    +0.000 A 
ATOM     25  C   UNL     1      -3.945  11.009  16.058  0.00  0.00    +0.000 A 
ATOM     26  C   UNL     1      -2.622  11.162  16.480  0.00  0.00    +0.000 A 
ENDBRANCH  20  21
ENDBRANCH   3  20
TORSDOF 5
ENDMDL
MODEL 9
REMARK VINA RESULT:      -7.3      3.239      8.738
REMARK  Name = 
REMARK  6 active torsions:
REMARK  status: ('A' for Active; 'I' for Inactive)
REMARK    1  A    between atoms: C_1  and  O_2
REMARK    2  A    between atoms: O_2  and  C_3
REMARK    3  A    between atoms: C_6  and  C_7
REMARK    4  A    between atoms: N_9  and  C_10
REMARK    5  A    between atoms: C_10  and  C_11
REMARK    6  A    between atoms: C_20  and  O_21
REMARK                            x       y       z     vdW  Elec       q    Type
REMARK                         _______ _______ _______ _____ _____    ______ ____
ROOT
ATOM      1  C   UNL     1       1.195   9.020  19.249  0.00  0.00    +0.000 A 
ATOM      2  C   UNL     1       0.598   9.795  18.272  0.00  0.00    +0.000 A 
ATOM      3  N   UNL     1      -0.224  10.720  18.877  0.00  0.00    +0.000 N 
ATOM      4  C   UNL     1      -0.185  10.551  20.247  0.00  0.00    +0.000 A 
ATOM      5  C   UNL     1      -0.821  11.210  21.304  0.00  0.00    +0.000 A 
ATOM      6  C   UNL     1      -0.486  10.790  22.590  0.00  0.00    +0.000 A 
ATOM      7  C   UNL     1       0.436   9.768  22.747  0.00  0.00    +0.000 A 
ATOM      8  N   UNL     1       1.040   9.109  21.753  0.00  0.00    +0.000 NA
ATOM      9  C   UNL     1       0.718   9.513  20.499  0.00  0.00    +0.000 A 
ENDROOT
BRANCH   1  13
ATOM     10  C   UNL     1       4.034   5.918  18.432  0.00  0.00    +0.000 A 
ATOM     11  C   UNL     1       3.901   6.999  17.565  0.00  0.00    +0.000 A 
ATOM     12  C   UNL     1       2.978   8.015  17.834  0.00  0.00    +0.000 A 
ATOM     13  C   UNL     1       2.156   7.956  18.966  0.00  0.00    +0.000 A 
ATOM     14  C   UNL     1       2.285   6.854  19.823  0.00  0.00    +0.000 A 
ATOM     15  C   UNL     1       3.214   5.841  19.557  0.00  0.00    +0.000 A 
BRANCH  10  17
ATOM     16  C   UNL     1       4.618   4.172  16.954  0.00  0.00    +0.000 C 
ATOM     17  O   UNL     1       4.965   4.984  18.069  0.00  0.00    +0.000 OA
ENDBRANCH  10  17
ENDBRANCH   1  13
BRANCH   7  18
ATOM     18  O   UNL     1       0.810   9.360  23.997  0.00  0.00    +0.000 OA
ATOM     19  H   UNL     1       1.212   8.484  23.922  0.00  0.00    +0.000 HD
ENDBRANCH   7  18
BRANCH   3  20
ATOM     20  C   UNL     1      -0.847  11.831  18.166  0.00  0.00    +0.000 C 
BRANCH  20  21
ATOM     21  C   UNL     1      -2.283  11.582  17.788  0.00  0.00    +0.000 A 
ATOM     22  C   UNL     1      -3.319  11.851  18.695  0.00  0.00    +0.000 A 
ATOM     23  C   UNL     1      -4.655  11.710  18.316  0.00  0.00    +0.000 A 
ATOM     24  C   UNL     1      -4.975  11.291  17.026  0.00  0.00    +0.000 A 
ATOM     25  C   UNL     1      -3.958  10.995  16.121  0.00  0.00    +0.000 A 
ATOM     26  C   UNL     1      -2.620  11.135  16.499  0.00  0.00    +0.000 A 
ENDBRANCH  20  21
ENDBRANCH   3  20
TORSDOF 5
ENDMDL
