MODEL 1
REMARK VINA RESULT:      -7.4      0.000      0.000
REMARK  Name = 
REMARK  12 active torsions:
REMARK  status: ('A' for Active; 'I' for Inactive)
REMARK    1  A    between atoms: C_2  and  C_3
REMARK    2  A    between atoms: C_2  and  C_5
REMARK    3  A    between atoms: C_3  and  C_4
REMARK    4  A    between atoms: N_12  and  C_13
REMARK    5  A    between atoms: C_13  and  C_14
REMARK    6  A    between atoms: C_14  and  C_15
REMARK    7  A    between atoms: C_15  and  C_16
REMARK    8  A    between atoms: C_15  and  C_17
REMARK    9  A    between atoms: C_20  and  C_21
REMARK   10  A    between atoms: C_21  and  C_22
REMARK   11  A    between atoms: C_22  and  C_23
REMARK   12  A    between atoms: C_22  and  C_24
REMARK                            x       y       z     vdW  Elec       q    Type
REMARK                         _______ _______ _______ _____ _____    ______ ____
ROOT
ATOM      1  C   UNL     1       5.426   4.740  15.623  0.00  0.00    +0.000 A 
ATOM      2  C   UNL     1       5.337   3.622  16.457  0.00  0.00    +0.000 A 
ATOM      3  C   UNL     1       4.929   3.757  17.789  0.00  0.00    +0.000 A 
ATOM      4  C   UNL     1       4.588   5.010  18.304  0.00  0.00    +0.000 A 
ATOM      5  C   UNL     1       4.639   6.130  17.462  0.00  0.00    +0.000 A 
ATOM      6  C   UNL     1       5.075   5.995  16.132  0.00  0.00    +0.000 A 
ATOM      7  C   UNL     1       4.193   7.455  17.999  0.00  0.00    +0.000 C 
ATOM      8  N   UNL     1       2.754   7.461  18.235  0.00  0.00    +0.000 N 
ATOM      9  C   UNL     1       2.274   6.910  19.423  0.00  0.00    +0.000 C 
ATOM     10  O   UNL     1       1.445   7.515  20.107  0.00  0.00    +0.000 OA
ATOM     11  C   UNL     1       2.650   5.418  19.687  0.00  0.00    +0.000 C 
ATOM     12  N   UNL     1       4.117   5.144  19.631  0.00  0.00    +0.000 N 
ATOM     13  H   UNL     1       4.350   4.307  20.159  0.00  0.00    +0.000 HD
ENDROOT
BRANCH   1  15
ATOM     14  C   UNL     1       7.154   5.063  13.958  0.00  0.00    +0.000 C 
ATOM     15  C   UNL     1       5.927   4.600  14.247  0.00  0.00    +0.000 C 
BRANCH  15  16
ATOM     16  C   UNL     1       5.059   3.888  13.240  0.00  0.00    +0.000 C 
ATOM     17  C   UNL     1       5.881   3.198  12.164  0.00  0.00    +0.000 C 
ENDBRANCH  15  16
ENDBRANCH   1  15
BRANCH   8  18
ATOM     18  C   UNL     1       1.943   8.461  17.555  0.00  0.00    +0.000 C 
BRANCH  18  19
ATOM     19  C   UNL     1       2.315   9.892  17.963  0.00  0.00    +0.000 C 
BRANCH  19  20
ATOM     20  C   UNL     1       1.252  10.649  18.791  0.00  0.00    +0.000 C 
ATOM     21  C   UNL     1       1.350  12.167  18.668  0.00  0.00    +0.000 C 
ATOM     22  C   UNL     1      -0.140  10.198  18.350  0.00  0.00    +0.000 C 
ENDBRANCH  19  20
ENDBRANCH  18  19
ENDBRANCH   8  18
BRANCH  11  23
ATOM     23  C   UNL     1       2.124   4.922  21.057  0.00  0.00    +0.000 C 
BRANCH  23  24
ATOM     24  C   UNL     1       1.462   3.524  21.083  0.00  0.00    +0.000 C 
ATOM     25  C   UNL     1       0.919   3.089  19.722  0.00  0.00    +0.000 C 
ATOM     26  C   UNL     1       2.465   2.487  21.597  0.00  0.00    +0.000 C 
ENDBRANCH  23  24
ENDBRANCH  11  23
TORSDOF 7
ENDMDL
MODEL 2
REMARK VINA RESULT:      -6.9      2.067      6.892
REMARK  Name = 
REMARK  12 active torsions:
REMARK  status: ('A' for Active; 'I' for Inactive)
REMARK    1  A    between atoms: C_2  and  C_3
REMARK    2  A    between atoms: C_2  and  C_5
REMARK    3  A    between atoms: C_3  and  C_4
REMARK    4  A    between atoms: N_12  and  C_13
REMARK    5  A    between atoms: C_13  and  C_14
REMARK    6  A    between atoms: C_14  and  C_15
REMARK    7  A    between atoms: C_15  and  C_16
REMARK    8  A    between atoms: C_15  and  C_17
REMARK    9  A    between atoms: C_20  and  C_21
REMARK   10  A    between atoms: C_21  and  C_22
REMARK   11  A    between atoms: C_22  and  C_23
REMARK   12  A    between atoms: C_22  and  C_24
REMARK                            x       y       z     vdW  Elec       q    Type
REMARK                         _______ _______ _______ _____ _____    ______ ____
ROOT
ATOM      1  C   UNL     1       2.531   7.648  18.844  0.00  0.00    +0.000 A 
ATOM      2  C   UNL     1       3.183   8.031  17.669  0.00  0.00    +0.000 A 
ATOM      3  C   UNL     1       4.162   7.210  17.097  0.00  0.00    +0.000 A 
ATOM      4  C   UNL     1       4.495   5.987  17.684  0.00  0.00    +0.000 A 
ATOM      5  C   UNL     1       3.817   5.580  18.842  0.00  0.00    +0.000 A 
ATOM      6  C   UNL     1       2.854   6.418  19.429  0.00  0.00    +0.000 A 
ATOM      7  C   UNL     1       4.122   4.230  19.416  0.00  0.00    +0.000 C 
ATOM      8  N   UNL     1       3.643   3.171  18.535  0.00  0.00    +0.000 N 
ATOM      9  C   UNL     1       4.439   2.799  17.451  0.00  0.00    +0.000 C 
ATOM     10  O   UNL     1       4.664   1.609  17.216  0.00  0.00    +0.000 OA
ATOM     11  C   UNL     1       4.799   3.936  16.444  0.00  0.00    +0.000 C 
ATOM     12  N   UNL     1       5.440   5.126  17.078  0.00  0.00    +0.000 N 
ATOM     13  H   UNL     1       5.987   5.649  16.398  0.00  0.00    +0.000 HD
ENDROOT
BRANCH   1  15
ATOM     14  C   UNL     1       1.004   9.524  18.739  0.00  0.00    +0.000 C 
ATOM     15  C   UNL     1       1.557   8.549  19.479  0.00  0.00    +0.000 C 
BRANCH  15  16
ATOM     16  C   UNL     1       1.182   8.296  20.918  0.00  0.00    +0.000 C 
ATOM     17  C   UNL     1       0.223   9.348  21.451  0.00  0.00    +0.000 C 
ENDBRANCH  15  16
ENDBRANCH   1  15
BRANCH   8  18
ATOM     18  C   UNL     1       2.693   2.204  19.064  0.00  0.00    +0.000 C 
BRANCH  18  19
ATOM     19  C   UNL     1       1.254   2.737  19.067  0.00  0.00    +0.000 C 
BRANCH  19  20
ATOM     20  C   UNL     1       0.700   3.159  20.447  0.00  0.00    +0.000 C 
ATOM     21  C   UNL     1       1.519   2.633  21.621  0.00  0.00    +0.000 C 
ATOM     22  C   UNL     1       0.643   4.685  20.518  0.00  0.00    +0.000 C 
ENDBRANCH  19  20
ENDBRANCH  18  19
ENDBRANCH   8  18
BRANCH  11  23
ATOM     23  C   UNL     1       5.735   3.434  15.316  0.00  0.00    +0.000 C 
BRANCH  23  24
ATOM     24  C   UNL     1       5.911   4.367  14.094  0.00  0.00    +0.000 C 
ATOM     25  C   UNL     1       7.273   5.057  14.053  0.00  0.00    +0.000 C 
ATOM     26  C   UNL     1       5.694   3.571  12.803  0.00  0.00    +0.000 C 
ENDBRANCH  23  24
ENDBRANCH  11  23
TORSDOF 7
ENDMDL
MODEL 3
REMARK VINA RESULT:      -6.8      0.640      1.266
REMARK  Name = 
REMARK  12 active torsions:
REMARK  status: ('A' for Active; 'I' for Inactive)
REMARK    1  A    between atoms: C_2  and  C_3
REMARK    2  A    between atoms: C_2  and  C_5
REMARK    3  A    between atoms: C_3  and  C_4
REMARK    4  A    between atoms: N_12  and  C_13
REMARK    5  A    between atoms: C_13  and  C_14
REMARK    6  A    between atoms: C_14  and  C_15
REMARK    7  A    between atoms: C_15  and  C_16
REMARK    8  A    between atoms: C_15  and  C_17
REMARK    9  A    between atoms: C_20  and  C_21
REMARK   10  A    between atoms: C_21  and  C_22
REMARK   11  A    between atoms: C_22  and  C_23
REMARK   12  A    between atoms: C_22  and  C_24
REMARK                            x       y       z     vdW  Elec       q    Type
REMARK                         _______ _______ _______ _____ _____    ______ ____
ROOT
ATOM      1  C   UNL     1       5.354   4.555  15.549  0.00  0.00    +0.000 A 
ATOM      2  C   UNL     1       4.969   3.402  16.239  0.00  0.00    +0.000 A 
ATOM      3  C   UNL     1       4.497   3.482  17.555  0.00  0.00    +0.000 A 
ATOM      4  C   UNL     1       4.390   4.719  18.196  0.00  0.00    +0.000 A 
ATOM      5  C   UNL     1       4.740   5.882  17.497  0.00  0.00    +0.000 A 
ATOM      6  C   UNL     1       5.238   5.796  16.185  0.00  0.00    +0.000 A 
ATOM      7  C   UNL     1       4.543   7.209  18.164  0.00  0.00    +0.000 C 
ATOM      8  N   UNL     1       3.123   7.504  18.324  0.00  0.00    +0.000 N 
ATOM      9  C   UNL     1       2.449   6.949  19.412  0.00  0.00    +0.000 C 
ATOM     10  O   UNL     1       1.716   7.645  20.118  0.00  0.00    +0.000 OA
ATOM     11  C   UNL     1       2.481   5.392  19.516  0.00  0.00    +0.000 C 
ATOM     12  N   UNL     1       3.857   4.813  19.504  0.00  0.00    +0.000 N 
ATOM     13  H   UNL     1       3.868   3.894  19.940  0.00  0.00    +0.000 HD
ENDROOT
BRANCH   1  15
ATOM     14  C   UNL     1       5.167   3.912  13.223  0.00  0.00    +0.000 C 
ATOM     15  C   UNL     1       5.918   4.454  14.195  0.00  0.00    +0.000 C 
BRANCH  15  16
ATOM     16  C   UNL     1       7.296   5.019  13.951  0.00  0.00    +0.000 C 
ATOM     17  C   UNL     1       7.664   5.009  12.477  0.00  0.00    +0.000 C 
ENDBRANCH  15  16
ENDBRANCH   1  15
BRANCH   8  18
ATOM     18  C   UNL     1       2.596   8.722  17.726  0.00  0.00    +0.000 C 
BRANCH  18  19
ATOM     19  C   UNL     1       1.062   8.743  17.698  0.00  0.00    +0.000 C 
BRANCH  19  20
ATOM     20  C   UNL     1       0.409  10.128  17.910  0.00  0.00    +0.000 C 
ATOM     21  C   UNL     1      -1.116  10.089  17.912  0.00  0.00    +0.000 C 
ATOM     22  C   UNL     1       0.898  10.715  19.234  0.00  0.00    +0.000 C 
ENDBRANCH  19  20
ENDBRANCH  18  19
ENDBRANCH   8  18
BRANCH  11  23
ATOM     23  C   UNL     1       1.760   4.882  20.788  0.00  0.00    +0.000 C 
BRANCH  23  24
ATOM     24  C   UNL     1       1.132   3.470  20.711  0.00  0.00    +0.000 C 
ATOM     25  C   UNL     1       1.022   2.935  19.284  0.00  0.00    +0.000 C 
ATOM     26  C   UNL     1       1.946   2.496  21.569  0.00  0.00    +0.000 C 
ENDBRANCH  23  24
ENDBRANCH  11  23
TORSDOF 7
ENDMDL
MODEL 4
REMARK VINA RESULT:      -6.7      4.076      8.313
REMARK  Name = 
REMARK  12 active torsions:
REMARK  status: ('A' for Active; 'I' for Inactive)
REMARK    1  A    between atoms: C_2  and  C_3
REMARK    2  A    between atoms: C_2  and  C_5
REMARK    3  A    between atoms: C_3  and  C_4
REMARK    4  A    between atoms: N_12  and  C_13
REMARK    5  A    between atoms: C_13  and  C_14
REMARK    6  A    between atoms: C_14  and  C_15
REMARK    7  A    between atoms: C_15  and  C_16
REMARK    8  A    between atoms: C_15  and  C_17
REMARK    9  A    between atoms: C_20  and  C_21
REMARK   10  A    between atoms: C_21  and  C_22
REMARK   11  A    between atoms: C_22  and  C_23
REMARK   12  A    between atoms: C_22  and  C_24
REMARK                            x       y       z     vdW  Elec       q    Type
REMARK                         _______ _______ _______ _____ _____    ______ ____
ROOT
ATOM      1  C   UNL     1      -2.889  11.054  17.935  0.00  0.00    +0.000 A 
ATOM      2  C   UNL     1      -2.188  10.053  17.257  0.00  0.00    +0.000 A 
ATOM      3  C   UNL     1      -0.934   9.628  17.711  0.00  0.00    +0.000 A 
ATOM      4  C   UNL     1      -0.367  10.189  18.858  0.00  0.00    +0.000 A 
ATOM      5  C   UNL     1      -1.082  11.167  19.564  0.00  0.00    +0.000 A 
ATOM      6  C   UNL     1      -2.329  11.610  19.091  0.00  0.00    +0.000 A 
ATOM      7  C   UNL     1      -0.504  11.702  20.838  0.00  0.00    +0.000 C 
ATOM      8  N   UNL     1      -0.506  10.679  21.878  0.00  0.00    +0.000 N 
ATOM      9  C   UNL     1       0.532   9.747  21.894  0.00  0.00    +0.000 C 
ATOM     10  O   UNL     1       1.124   9.484  22.943  0.00  0.00    +0.000 OA
ATOM     11  C   UNL     1       0.714   8.902  20.594  0.00  0.00    +0.000 C 
ATOM     12  N   UNL     1       0.872   9.722  19.356  0.00  0.00    +0.000 N 
ATOM     13  H   UNL     1       1.351   9.194  18.630  0.00  0.00    +0.000 HD
ENDROOT
BRANCH   1  15
ATOM     14  C   UNL     1      -4.397  11.472  16.088  0.00  0.00    +0.000 C 
ATOM     15  C   UNL     1      -4.172  11.546  17.409  0.00  0.00    +0.000 C 
BRANCH  15  16
ATOM     16  C   UNL     1      -5.197  12.056  18.391  0.00  0.00    +0.000 C 
ATOM     17  C   UNL     1      -6.184  10.976  18.800  0.00  0.00    +0.000 C 
ENDBRANCH  15  16
ENDBRANCH   1  15
BRANCH   8  18
ATOM     18  C   UNL     1      -1.213  10.954  23.120  0.00  0.00    +0.000 C 
BRANCH  18  19
ATOM     19  C   UNL     1      -1.801  12.370  23.158  0.00  0.00    +0.000 C 
BRANCH  19  20
ATOM     20  C   UNL     1      -3.317  12.457  23.447  0.00  0.00    +0.000 C 
ATOM     21  C   UNL     1      -3.688  13.563  24.430  0.00  0.00    +0.000 C 
ATOM     22  C   UNL     1      -4.066  12.681  22.133  0.00  0.00    +0.000 C 
ENDBRANCH  19  20
ENDBRANCH  18  19
ENDBRANCH   8  18
BRANCH  11  23
ATOM     23  C   UNL     1       1.928   7.945  20.691  0.00  0.00    +0.000 C 
BRANCH  23  24
ATOM     24  C   UNL     1       1.904   6.698  19.775  0.00  0.00    +0.000 C 
ATOM     25  C   UNL     1       3.028   6.689  18.739  0.00  0.00    +0.000 C 
ATOM     26  C   UNL     1       1.977   5.429  20.631  0.00  0.00    +0.000 C 
ENDBRANCH  23  24
ENDBRANCH  11  23
TORSDOF 7
ENDMDL
MODEL 5
REMARK VINA RESULT:      -6.7      3.116      6.722
REMARK  Name = 
REMARK  12 active torsions:
REMARK  status: ('A' for Active; 'I' for Inactive)
REMARK    1  A    between atoms: C_2  and  C_3
REMARK    2  A    between atoms: C_2  and  C_5
REMARK    3  A    between atoms: C_3  and  C_4
REMARK    4  A    between atoms: N_12  and  C_13
REMARK    5  A    between atoms: C_13  and  C_14
REMARK    6  A    between atoms: C_14  and  C_15
REMARK    7  A    between atoms: C_15  and  C_16
REMARK    8  A    between atoms: C_15  and  C_17
REMARK    9  A    between atoms: C_20  and  C_21
REMARK   10  A    between atoms: C_21  and  C_22
REMARK   11  A    between atoms: C_22  and  C_23
REMARK   12  A    between atoms: C_22  and  C_24
REMARK                            x       y       z     vdW  Elec       q    Type
REMARK                         _______ _______ _______ _____ _____    ______ ____
ROOT
ATOM      1  C   UNL     1       2.432   4.598  19.028  0.00  0.00    +0.000 A 
ATOM      2  C   UNL     1       2.361   3.455  18.227  0.00  0.00    +0.000 A 
ATOM      3  C   UNL     1       3.034   3.399  17.001  0.00  0.00    +0.000 A 
ATOM      4  C   UNL     1       3.802   4.482  16.563  0.00  0.00    +0.000 A 
ATOM      5  C   UNL     1       3.908   5.616  17.380  0.00  0.00    +0.000 A 
ATOM      6  C   UNL     1       3.209   5.679  18.597  0.00  0.00    +0.000 A 
ATOM      7  C   UNL     1       4.800   6.738  16.940  0.00  0.00    +0.000 C 
ATOM      8  N   UNL     1       6.201   6.336  16.991  0.00  0.00    +0.000 N 
ATOM      9  C   UNL     1       6.722   5.611  15.920  0.00  0.00    +0.000 C 
ATOM     10  O   UNL     1       7.801   5.927  15.413  0.00  0.00    +0.000 OA
ATOM     11  C   UNL     1       6.001   4.267  15.587  0.00  0.00    +0.000 C 
ATOM     12  N   UNL     1       4.533   4.409  15.355  0.00  0.00    +0.000 N 
ATOM     13  H   UNL     1       4.179   3.640  14.791  0.00  0.00    +0.000 HD
ENDROOT
BRANCH   1  15
ATOM     14  C   UNL     1       1.469   5.878  20.842  0.00  0.00    +0.000 C 
ATOM     15  C   UNL     1       1.662   4.675  20.278  0.00  0.00    +0.000 C 
BRANCH  15  16
ATOM     16  C   UNL     1       1.076   3.402  20.836  0.00  0.00    +0.000 C 
ATOM     17  C   UNL     1       2.002   2.741  21.844  0.00  0.00    +0.000 C 
ENDBRANCH  15  16
ENDBRANCH   1  15
BRANCH   8  18
ATOM     18  C   UNL     1       7.115   7.111  17.817  0.00  0.00    +0.000 C 
BRANCH  18  19
ATOM     19  C   UNL     1       7.092   8.605  17.472  0.00  0.00    +0.000 C 
BRANCH  19  20
ATOM     20  C   UNL     1       8.389   9.385  17.787  0.00  0.00    +0.000 C 
ATOM     21  C   UNL     1       8.194  10.896  17.848  0.00  0.00    +0.000 C 
ATOM     22  C   UNL     1       8.954   8.897  19.122  0.00  0.00    +0.000 C 
ENDBRANCH  19  20
ENDBRANCH  18  19
ENDBRANCH   8  18
BRANCH  11  23
ATOM     23  C   UNL     1       6.616   3.572  14.346  0.00  0.00    +0.000 C 
BRANCH  23  24
ATOM     24  C   UNL     1       6.201   4.127  12.963  0.00  0.00    +0.000 C 
ATOM     25  C   UNL     1       7.376   4.683  12.159  0.00  0.00    +0.000 C 
ATOM     26  C   UNL     1       5.494   3.032  12.158  0.00  0.00    +0.000 C 
ENDBRANCH  23  24
ENDBRANCH  11  23
TORSDOF 7
ENDMDL
MODEL 6
REMARK VINA RESULT:      -6.6      1.281      5.227
REMARK  Name = 
REMARK  12 active torsions:
REMARK  status: ('A' for Active; 'I' for Inactive)
REMARK    1  A    between atoms: C_2  and  C_3
REMARK    2  A    between atoms: C_2  and  C_5
REMARK    3  A    between atoms: C_3  and  C_4
REMARK    4  A    between atoms: N_12  and  C_13
REMARK    5  A    between atoms: C_13  and  C_14
REMARK    6  A    between atoms: C_14  and  C_15
REMARK    7  A    between atoms: C_15  and  C_16
REMARK    8  A    between atoms: C_15  and  C_17
REMARK    9  A    between atoms: C_20  and  C_21
REMARK   10  A    between atoms: C_21  and  C_22
REMARK   11  A    between atoms: C_22  and  C_23
REMARK   12  A    between atoms: C_22  and  C_24
REMARK                            x       y       z     vdW  Elec       q    Type
REMARK                         _______ _______ _______ _____ _____    ______ ____
ROOT
ATOM      1  C   UNL     1       5.594   5.759  16.979  0.00  0.00    +0.000 A 
ATOM      2  C   UNL     1       5.528   7.130  16.720  0.00  0.00    +0.000 A 
ATOM      3  C   UNL     1       4.383   7.864  17.048  0.00  0.00    +0.000 A 
ATOM      4  C   UNL     1       3.290   7.240  17.655  0.00  0.00    +0.000 A 
ATOM      5  C   UNL     1       3.364   5.872  17.951  0.00  0.00    +0.000 A 
ATOM      6  C   UNL     1       4.506   5.132  17.596  0.00  0.00    +0.000 A 
ATOM      7  C   UNL     1       2.221   5.229  18.677  0.00  0.00    +0.000 C 
ATOM      8  N   UNL     1       2.138   5.716  20.049  0.00  0.00    +0.000 N 
ATOM      9  C   UNL     1       1.497   6.932  20.283  0.00  0.00    +0.000 C 
ATOM     10  O   UNL     1       0.662   7.038  21.185  0.00  0.00    +0.000 OA
ATOM     11  C   UNL     1       2.073   8.168  19.524  0.00  0.00    +0.000 C 
ATOM     12  N   UNL     1       2.153   7.987  18.045  0.00  0.00    +0.000 N 
ATOM     13  H   UNL     1       2.160   8.886  17.568  0.00  0.00    +0.000 HD
ENDROOT
BRANCH   1  15
ATOM     14  C   UNL     1       7.574   4.471  17.510  0.00  0.00    +0.000 C 
ATOM     15  C   UNL     1       6.772   4.982  16.563  0.00  0.00    +0.000 C 
BRANCH  15  16
ATOM     16  C   UNL     1       6.989   4.748  15.088  0.00  0.00    +0.000 C 
ATOM     17  C   UNL     1       5.758   4.163  14.415  0.00  0.00    +0.000 C 
ENDBRANCH  15  16
ENDBRANCH   1  15
BRANCH   8  18
ATOM     18  C   UNL     1       2.215   4.749  21.134  0.00  0.00    +0.000 C 
BRANCH  18  19
ATOM     19  C   UNL     1       1.292   3.544  20.910  0.00  0.00    +0.000 C 
BRANCH  19  20
ATOM     20  C   UNL     1       1.991   2.243  20.451  0.00  0.00    +0.000 C 
ATOM     21  C   UNL     1       1.657   1.844  19.018  0.00  0.00    +0.000 C 
ATOM     22  C   UNL     1       3.504   2.414  20.587  0.00  0.00    +0.000 C 
ENDBRANCH  19  20
ENDBRANCH  18  19
ENDBRANCH   8  18
BRANCH  11  23
ATOM     23  C   UNL     1       1.254   9.453  19.804  0.00  0.00    +0.000 C 
BRANCH  23  24
ATOM     24  C   UNL     1       0.847  10.299  18.574  0.00  0.00    +0.000 C 
ATOM     25  C   UNL     1      -0.654  10.271  18.292  0.00  0.00    +0.000 C 
ATOM     26  C   UNL     1       1.313  11.746  18.767  0.00  0.00    +0.000 C 
ENDBRANCH  23  24
ENDBRANCH  11  23
TORSDOF 7
ENDMDL
MODEL 7
REMARK VINA RESULT:      -6.6      1.459      5.422
REMARK  Name = 
REMARK  12 active torsions:
REMARK  status: ('A' for Active; 'I' for Inactive)
REMARK    1  A    between atoms: C_2  and  C_3
REMARK    2  A    between atoms: C_2  and  C_5
REMARK    3  A    between atoms: C_3  and  C_4
REMARK    4  A    between atoms: N_12  and  C_13
REMARK    5  A    between atoms: C_13  and  C_14
REMARK    6  A    between atoms: C_14  and  C_15
REMARK    7  A    between atoms: C_15  and  C_16
REMARK    8  A    between atoms: C_15  and  C_17
REMARK    9  A    between atoms: C_20  and  C_21
REMARK   10  A    between atoms: C_21  and  C_22
REMARK   11  A    between atoms: C_22  and  C_23
REMARK   12  A    between atoms: C_22  and  C_24
REMARK                            x       y       z     vdW  Elec       q    Type
REMARK                         _______ _______ _______ _____ _____    ______ ____
ROOT
ATOM      1  C   UNL     1       5.455   5.604  16.953  0.00  0.00    +0.000 A 
ATOM      2  C   UNL     1       5.421   6.975  16.683  0.00  0.00    +0.000 A 
ATOM      3  C   UNL     1       4.303   7.743  17.028  0.00  0.00    +0.000 A 
ATOM      4  C   UNL     1       3.206   7.155  17.662  0.00  0.00    +0.000 A 
ATOM      5  C   UNL     1       3.249   5.788  17.970  0.00  0.00    +0.000 A 
ATOM      6  C   UNL     1       4.362   5.014  17.598  0.00  0.00    +0.000 A 
ATOM      7  C   UNL     1       2.104   5.184  18.723  0.00  0.00    +0.000 C 
ATOM      8  N   UNL     1       2.063   5.684  20.092  0.00  0.00    +0.000 N 
ATOM      9  C   UNL     1       1.460   6.920  20.329  0.00  0.00    +0.000 C 
ATOM     10  O   UNL     1       0.647   7.057  21.247  0.00  0.00    +0.000 OA
ATOM     11  C   UNL     1       2.055   8.133  19.547  0.00  0.00    +0.000 C 
ATOM     12  N   UNL     1       2.099   7.936  18.068  0.00  0.00    +0.000 N 
ATOM     13  H   UNL     1       2.121   8.831  17.584  0.00  0.00    +0.000 HD
ENDROOT
BRANCH   1  15
ATOM     14  C   UNL     1       6.676   4.417  15.233  0.00  0.00    +0.000 C 
ATOM     15  C   UNL     1       6.602   4.792  16.520  0.00  0.00    +0.000 C 
BRANCH  15  16
ATOM     16  C   UNL     1       7.671   4.468  17.534  0.00  0.00    +0.000 C 
ATOM     17  C   UNL     1       7.752   5.515  18.633  0.00  0.00    +0.000 C 
ENDBRANCH  15  16
ENDBRANCH   1  15
BRANCH   8  18
ATOM     18  C   UNL     1       2.134   4.724  21.185  0.00  0.00    +0.000 C 
BRANCH  18  19
ATOM     19  C   UNL     1       1.255   3.492  20.939  0.00  0.00    +0.000 C 
BRANCH  19  20
ATOM     20  C   UNL     1       1.999   2.224  20.462  0.00  0.00    +0.000 C 
ATOM     21  C   UNL     1       1.681   1.834  19.022  0.00  0.00    +0.000 C 
ATOM     22  C   UNL     1       3.506   2.446  20.601  0.00  0.00    +0.000 C 
ENDBRANCH  19  20
ENDBRANCH  18  19
ENDBRANCH   8  18
BRANCH  11  23
ATOM     23  C   UNL     1       1.277   9.442  19.832  0.00  0.00    +0.000 C 
BRANCH  23  24
ATOM     24  C   UNL     1       0.887  10.299  18.604  0.00  0.00    +0.000 C 
ATOM     25  C   UNL     1      -0.623  10.381  18.381  0.00  0.00    +0.000 C 
ATOM     26  C   UNL     1       1.467  11.709  18.754  0.00  0.00    +0.000 C 
ENDBRANCH  23  24
ENDBRANCH  11  23
TORSDOF 7
ENDMDL
MODEL 8
REMARK VINA RESULT:      -6.6      2.167      6.968
REMARK  Name = 
REMARK  12 active torsions:
REMARK  status: ('A' for Active; 'I' for Inactive)
REMARK    1  A    between atoms: C_2  and  C_3
REMARK    2  A    between atoms: C_2  and  C_5
REMARK    3  A    between atoms: C_3  and  C_4
REMARK    4  A    between atoms: N_12  and  C_13
REMARK    5  A    between atoms: C_13  and  C_14
REMARK    6  A    between atoms: C_14  and  C_15
REMARK    7  A    between atoms: C_15  and  C_16
REMARK    8  A    between atoms: C_15  and  C_17
REMARK    9  A    between atoms: C_20  and  C_21
REMARK   10  A    between atoms: C_21  and  C_22
REMARK   11  A    between atoms: C_22  and  C_23
REMARK   12  A    between atoms: C_22  and  C_24
REMARK                            x       y       z     vdW  Elec       q    Type
REMARK                         _______ _______ _______ _____ _____    ______ ____
ROOT
ATOM      1  C   UNL     1       1.855   8.078  19.394  0.00  0.00    +0.000 A 
ATOM      2  C   UNL     1       2.080   8.470  18.072  0.00  0.00    +0.000 A 
ATOM      3  C   UNL     1       3.063   7.840  17.298  0.00  0.00    +0.000 A 
ATOM      4  C   UNL     1       3.827   6.800  17.832  0.00  0.00    +0.000 A 
ATOM      5  C   UNL     1       3.581   6.377  19.146  0.00  0.00    +0.000 A 
ATOM      6  C   UNL     1       2.612   7.028  19.928  0.00  0.00    +0.000 A 
ATOM      7  C   UNL     1       4.347   5.206  19.680  0.00  0.00    +0.000 C 
ATOM      8  N   UNL     1       3.949   3.975  19.008  0.00  0.00    +0.000 N 
ATOM      9  C   UNL     1       4.522   3.680  17.770  0.00  0.00    +0.000 C 
ATOM     10  O   UNL     1       4.975   2.556  17.540  0.00  0.00    +0.000 OA
ATOM     11  C   UNL     1       4.325   4.751  16.652  0.00  0.00    +0.000 C 
ATOM     12  N   UNL     1       4.780   6.119  17.037  0.00  0.00    +0.000 N 
ATOM     13  H   UNL     1       4.993   6.676  16.213  0.00  0.00    +0.000 HD
ENDROOT
BRANCH   1  15
ATOM     14  C   UNL     1       0.325   9.922  19.741  0.00  0.00    +0.000 C 
ATOM     15  C   UNL     1       0.873   8.794  20.221  0.00  0.00    +0.000 C 
BRANCH  15  16
ATOM     16  C   UNL     1       0.484   8.192  21.549  0.00  0.00    +0.000 C 
ATOM     17  C   UNL     1      -0.163   9.212  22.471  0.00  0.00    +0.000 C 
ENDBRANCH  15  16
ENDBRANCH   1  15
BRANCH   8  18
ATOM     18  C   UNL     1       3.434   2.878  19.815  0.00  0.00    +0.000 C 
BRANCH  18  19
ATOM     19  C   UNL     1       2.180   2.241  19.204  0.00  0.00    +0.000 C 
BRANCH  19  20
ATOM     20  C   UNL     1       0.923   3.140  19.167  0.00  0.00    +0.000 C 
ATOM     21  C   UNL     1       0.776   4.034  20.394  0.00  0.00    +0.000 C 
ATOM     22  C   UNL     1       0.969   4.013  17.912  0.00  0.00    +0.000 C 
ENDBRANCH  19  20
ENDBRANCH  18  19
ENDBRANCH   8  18
BRANCH  11  23
ATOM     23  C   UNL     1       5.049   4.358  15.340  0.00  0.00    +0.000 C 
BRANCH  23  24
ATOM     24  C   UNL     1       6.431   5.009  15.089  0.00  0.00    +0.000 C 
ATOM     25  C   UNL     1       7.490   4.588  16.107  0.00  0.00    +0.000 C 
ATOM     26  C   UNL     1       6.909   4.672  13.673  0.00  0.00    +0.000 C 
ENDBRANCH  23  24
ENDBRANCH  11  23
TORSDOF 7
ENDMDL
MODEL 9
REMARK VINA RESULT:      -6.6      4.711      9.330
REMARK  Name = 
REMARK  12 active torsions:
REMARK  status: ('A' for Active; 'I' for Inactive)
REMARK    1  A    between atoms: C_2  and  C_3
REMARK    2  A    between atoms: C_2  and  C_5
REMARK    3  A    between atoms: C_3  and  C_4
REMARK    4  A    between atoms: N_12  and  C_13
REMARK    5  A    between atoms: C_13  and  C_14
REMARK    6  A    between atoms: C_14  and  C_15
REMARK    7  A    between atoms: C_15  and  C_16
REMARK    8  A    between atoms: C_15  and  C_17
REMARK    9  A    between atoms: C_20  and  C_21
REMARK   10  A    between atoms: C_21  and  C_22
REMARK   11  A    between atoms: C_22  and  C_23
REMARK   12  A    between atoms: C_22  and  C_24
REMARK                            x       y       z     vdW  Elec       q    Type
REMARK                         _______ _______ _______ _____ _____    ______ ____
ROOT
ATOM      1  C   UNL     1      -4.509  11.147  18.217  0.00  0.00    +0.000 A 
ATOM      2  C   UNL     1      -3.934  10.050  17.570  0.00  0.00    +0.000 A 
ATOM      3  C   UNL     1      -2.545   9.875  17.560  0.00  0.00    +0.000 A 
ATOM      4  C   UNL     1      -1.710  10.789  18.208  0.00  0.00    +0.000 A 
ATOM      5  C   UNL     1      -2.283  11.870  18.891  0.00  0.00    +0.000 A 
ATOM      6  C   UNL     1      -3.676  12.058  18.877  0.00  0.00    +0.000 A 
ATOM      7  C   UNL     1      -1.386  12.797  19.652  0.00  0.00    +0.000 C 
ATOM      8  N   UNL     1      -0.810  12.125  20.812  0.00  0.00    +0.000 N 
ATOM      9  C   UNL     1       0.315  11.323  20.623  0.00  0.00    +0.000 C 
ATOM     10  O   UNL     1       1.291  11.425  21.369  0.00  0.00    +0.000 OA
ATOM     11  C   UNL     1       0.158  10.152  19.602  0.00  0.00    +0.000 C 
ATOM     12  N   UNL     1      -0.311  10.585  18.252  0.00  0.00    +0.000 N 
ATOM     13  H   UNL     1      -0.045   9.908  17.541  0.00  0.00    +0.000 HD
ENDROOT
BRANCH   1  15
ATOM     14  C   UNL     1      -6.434  12.390  17.437  0.00  0.00    +0.000 C 
ATOM     15  C   UNL     1      -5.963  11.362  18.160  0.00  0.00    +0.000 C 
BRANCH  15  16
ATOM     16  C   UNL     1      -6.859  10.379  18.872  0.00  0.00    +0.000 C 
ATOM     17  C   UNL     1      -7.273  10.875  20.247  0.00  0.00    +0.000 C 
ENDBRANCH  15  16
ENDBRANCH   1  15
BRANCH   8  18
ATOM     18  C   UNL     1      -1.046  12.694  22.131  0.00  0.00    +0.000 C 
BRANCH  18  19
ATOM     19  C   UNL     1      -2.081  11.898  22.936  0.00  0.00    +0.000 C 
BRANCH  19  20
ATOM     20  C   UNL     1      -3.489  12.528  23.022  0.00  0.00    +0.000 C 
ATOM     21  C   UNL     1      -4.108  12.452  24.414  0.00  0.00    +0.000 C 
ATOM     22  C   UNL     1      -3.411  13.991  22.586  0.00  0.00    +0.000 C 
ENDBRANCH  19  20
ENDBRANCH  18  19
ENDBRANCH   8  18
BRANCH  11  23
ATOM     23  C   UNL     1       1.478   9.363  19.419  0.00  0.00    +0.000 C 
BRANCH  23  24
ATOM     24  C   UNL     1       1.747   8.217  20.422  0.00  0.00    +0.000 C 
ATOM     25  C   UNL     1       0.526   7.856  21.267  0.00  0.00    +0.000 C 
ATOM     26  C   UNL     1       2.242   6.978  19.669  0.00  0.00    +0.000 C 
ENDBRANCH  23  24
ENDBRANCH  11  23
TORSDOF 7
ENDMDL
