MODEL 1
REMARK VINA RESULT:      -8.8      0.000      0.000
REMARK  Name = 
REMARK  6 active torsions:
REMARK  status: ('A' for Active; 'I' for Inactive)
REMARK    1  A    between atoms: C_2  and  S_20
REMARK    2  A    between atoms: N_3  and  C_4
REMARK    3  A    between atoms: N_8  and  C_9
REMARK    4  A    between atoms: C_9  and  C_10
REMARK    5  A    between atoms: S_20  and  C_21
REMARK    6  A    between atoms: C_25  and  C_26
REMARK                            x       y       z     vdW  Elec       q    Type
REMARK                         _______ _______ _______ _____ _____    ______ ____
ROOT
ATOM      1  C   UNL     1       2.202   6.857  19.185  0.00  0.00    +0.000 A 
ATOM      2  C   UNL     1       1.817   6.761  20.462  0.00  0.00    +0.000 A 
ATOM      3  C   UNL     1       1.271   7.877  21.176  0.00  0.00    +0.000 A 
ATOM      4  C   UNL     1       1.066   9.037  20.549  0.00  0.00    +0.000 A 
ATOM      5  N   UNL     1       1.424   9.212  19.223  0.00  0.00    +0.000 N 
ATOM      6  C   UNL     1       2.072   8.204  18.492  0.00  0.00    +0.000 A 
ATOM      7  O   UNL     1       2.485   8.334  17.339  0.00  0.00    +0.000 OA
ENDROOT
BRANCH   1  10
ATOM      8  O   UNL     1       1.312   4.077  19.168  0.00  0.00    +0.000 OA
ATOM      9  C   UNL     1       2.242   4.501  18.493  0.00  0.00    +0.000 C 
ATOM     10  N   UNL     1       2.694   5.797  18.435  0.00  0.00    +0.000 N 
ATOM     11  H   UNL     1       3.317   6.035  17.671  0.00  0.00    +0.000 HD
BRANCH   9  12
ATOM     12  S   UNL     1       3.156   3.436  17.446  0.00  0.00    +0.000 S 
BRANCH  12  13
ATOM     13  C   UNL     1       4.654   4.369  17.171  0.00  0.00    +0.000 A 
ATOM     14  C   UNL     1       4.925   4.759  15.856  0.00  0.00    +0.000 A 
ATOM     15  C   UNL     1       6.099   5.440  15.541  0.00  0.00    +0.000 A 
ATOM     16  C   UNL     1       7.017   5.745  16.543  0.00  0.00    +0.000 A 
ATOM     17  C   UNL     1       6.758   5.395  17.876  0.00  0.00    +0.000 A 
ATOM     18  C   UNL     1       5.558   4.724  18.184  0.00  0.00    +0.000 A 
BRANCH  17  19
ATOM     19  C   UNL     1       7.764   5.712  18.960  0.00  0.00    +0.000 C 
ATOM     20  F   UNL     1       8.359   6.930  18.804  0.00  0.00    +0.000 F 
ATOM     21  F   UNL     1       7.213   5.729  20.204  0.00  0.00    +0.000 F 
ATOM     22  F   UNL     1       8.782   4.810  19.008  0.00  0.00    +0.000 F 
ENDBRANCH  17  19
ENDBRANCH  12  13
ENDBRANCH   9  12
ENDBRANCH   1  10
BRANCH   5  23
ATOM     23  C   UNL     1       1.019  10.449  18.540  0.00  0.00    +0.000 C 
BRANCH  23  24
ATOM     24  C   UNL     1      -0.493  10.534  18.427  0.00  0.00    +0.000 A 
ATOM     25  C   UNL     1      -1.192   9.804  17.455  0.00  0.00    +0.000 A 
ATOM     26  C   UNL     1      -2.558  10.025  17.246  0.00  0.00    +0.000 A 
ATOM     27  C   UNL     1      -3.244  10.972  18.012  0.00  0.00    +0.000 A 
ATOM     28 CL   UNL     1      -4.905  11.263  17.635  0.00  0.00    +0.000 Cl
ATOM     29  C   UNL     1      -2.571  11.664  19.022  0.00  0.00    +0.000 A 
ATOM     30 CL   UNL     1      -3.355  12.832  20.027  0.00  0.00    +0.000 Cl
ATOM     31  C   UNL     1      -1.204  11.441  19.230  0.00  0.00    +0.000 A 
ENDBRANCH  23  24
ENDBRANCH   5  23
TORSDOF 6
ENDMDL
MODEL 2
REMARK VINA RESULT:      -8.5      1.013      1.234
REMARK  Name = 
REMARK  6 active torsions:
REMARK  status: ('A' for Active; 'I' for Inactive)
REMARK    1  A    between atoms: C_2  and  S_20
REMARK    2  A    between atoms: N_3  and  C_4
REMARK    3  A    between atoms: N_8  and  C_9
REMARK    4  A    between atoms: C_9  and  C_10
REMARK    5  A    between atoms: S_20  and  C_21
REMARK    6  A    between atoms: C_25  and  C_26
REMARK                            x       y       z     vdW  Elec       q    Type
REMARK                         _______ _______ _______ _____ _____    ______ ____
ROOT
ATOM      1  C   UNL     1       1.958   7.180  19.332  0.00  0.00    +0.000 A 
ATOM      2  C   UNL     1       1.693   7.137  20.643  0.00  0.00    +0.000 A 
ATOM      3  C   UNL     1       1.232   8.287  21.362  0.00  0.00    +0.000 A 
ATOM      4  C   UNL     1       0.984   9.427  20.714  0.00  0.00    +0.000 A 
ATOM      5  N   UNL     1       1.217   9.547  19.355  0.00  0.00    +0.000 N 
ATOM      6  C   UNL     1       1.781   8.504  18.605  0.00  0.00    +0.000 A 
ATOM      7  O   UNL     1       2.084   8.584  17.414  0.00  0.00    +0.000 OA
ENDROOT
BRANCH   1  10
ATOM      8  O   UNL     1       3.399   4.802  20.218  0.00  0.00    +0.000 OA
ATOM      9  C   UNL     1       3.062   5.005  19.058  0.00  0.00    +0.000 C 
ATOM     10  N   UNL     1       2.363   6.086  18.580  0.00  0.00    +0.000 N 
ATOM     11  H   UNL     1       1.967   6.006  17.650  0.00  0.00    +0.000 HD
BRANCH   9  12
ATOM     12  S   UNL     1       3.450   3.859  17.793  0.00  0.00    +0.000 S 
BRANCH  12  13
ATOM     13  C   UNL     1       4.919   4.572  17.072  0.00  0.00    +0.000 A 
ATOM     14  C   UNL     1       5.438   3.942  15.936  0.00  0.00    +0.000 A 
ATOM     15  C   UNL     1       6.614   4.396  15.342  0.00  0.00    +0.000 A 
ATOM     16  C   UNL     1       7.284   5.495  15.875  0.00  0.00    +0.000 A 
ATOM     17  C   UNL     1       6.771   6.167  16.994  0.00  0.00    +0.000 A 
ATOM     18  C   UNL     1       5.570   5.710  17.573  0.00  0.00    +0.000 A 
BRANCH  17  19
ATOM     19  C   UNL     1       7.508   7.349  17.581  0.00  0.00    +0.000 C 
ATOM     20  F   UNL     1       6.692   8.400  17.881  0.00  0.00    +0.000 F 
ATOM     21  F   UNL     1       8.157   7.046  18.738  0.00  0.00    +0.000 F 
ATOM     22  F   UNL     1       8.453   7.847  16.737  0.00  0.00    +0.000 F 
ENDBRANCH  17  19
ENDBRANCH  12  13
ENDBRANCH   9  12
ENDBRANCH   1  10
BRANCH   5  23
ATOM     23  C   UNL     1       0.765  10.765  18.666  0.00  0.00    +0.000 C 
BRANCH  23  24
ATOM     24  C   UNL     1      -0.743  10.757  18.487  0.00  0.00    +0.000 A 
ATOM     25  C   UNL     1      -1.351   9.998  17.477  0.00  0.00    +0.000 A 
ATOM     26  C   UNL     1      -2.718  10.136  17.210  0.00  0.00    +0.000 A 
ATOM     27  C   UNL     1      -3.495  11.028  17.954  0.00  0.00    +0.000 A 
ATOM     28 CL   UNL     1      -5.153  11.219  17.506  0.00  0.00    +0.000 Cl
ATOM     29  C   UNL     1      -2.912  11.747  19.000  0.00  0.00    +0.000 A 
ATOM     30 CL   UNL     1      -3.812  12.851  19.981  0.00  0.00    +0.000 Cl
ATOM     31  C   UNL     1      -1.544  11.607  19.267  0.00  0.00    +0.000 A 
ENDBRANCH  23  24
ENDBRANCH   5  23
TORSDOF 6
ENDMDL
MODEL 3
REMARK VINA RESULT:      -8.5      1.846      2.280
REMARK  Name = 
REMARK  6 active torsions:
REMARK  status: ('A' for Active; 'I' for Inactive)
REMARK    1  A    between atoms: C_2  and  S_20
REMARK    2  A    between atoms: N_3  and  C_4
REMARK    3  A    between atoms: N_8  and  C_9
REMARK    4  A    between atoms: C_9  and  C_10
REMARK    5  A    between atoms: S_20  and  C_21
REMARK    6  A    between atoms: C_25  and  C_26
REMARK                            x       y       z     vdW  Elec       q    Type
REMARK                         _______ _______ _______ _____ _____    ______ ____
ROOT
ATOM      1  C   UNL     1       1.839   7.289  19.900  0.00  0.00    +0.000 A 
ATOM      2  C   UNL     1       1.588   7.510  21.196  0.00  0.00    +0.000 A 
ATOM      3  C   UNL     1       1.159   8.789  21.678  0.00  0.00    +0.000 A 
ATOM      4  C   UNL     1       0.927   9.784  20.820  0.00  0.00    +0.000 A 
ATOM      5  N   UNL     1       1.149   9.631  19.462  0.00  0.00    +0.000 N 
ATOM      6  C   UNL     1       1.682   8.448  18.928  0.00  0.00    +0.000 A 
ATOM      7  O   UNL     1       1.974   8.286  17.743  0.00  0.00    +0.000 OA
ENDROOT
BRANCH   1  10
ATOM      8  O   UNL     1       2.318   4.781  21.314  0.00  0.00    +0.000 OA
ATOM      9  C   UNL     1       2.446   4.919  20.103  0.00  0.00    +0.000 C 
ATOM     10  N   UNL     1       2.214   6.059  19.375  0.00  0.00    +0.000 N 
ATOM     11  H   UNL     1       2.145   5.959  18.368  0.00  0.00    +0.000 HD
BRANCH   9  12
ATOM     12  S   UNL     1       2.964   3.586  19.094  0.00  0.00    +0.000 S 
BRANCH  12  13
ATOM     13  C   UNL     1       4.487   4.207  18.399  0.00  0.00    +0.000 A 
ATOM     14  C   UNL     1       5.390   4.806  19.283  0.00  0.00    +0.000 A 
ATOM     15  C   UNL     1       6.577   5.369  18.818  0.00  0.00    +0.000 A 
ATOM     16  C   UNL     1       6.880   5.334  17.460  0.00  0.00    +0.000 A 
ATOM     17  C   UNL     1       6.010   4.711  16.553  0.00  0.00    +0.000 A 
ATOM     18  C   UNL     1       4.822   4.129  17.038  0.00  0.00    +0.000 A 
BRANCH  17  19
ATOM     19  C   UNL     1       6.332   4.689  15.076  0.00  0.00    +0.000 C 
ATOM     20  F   UNL     1       5.430   5.374  14.316  0.00  0.00    +0.000 F 
ATOM     21  F   UNL     1       7.544   5.238  14.791  0.00  0.00    +0.000 F 
ATOM     22  F   UNL     1       6.359   3.427  14.566  0.00  0.00    +0.000 F 
ENDBRANCH  17  19
ENDBRANCH  12  13
ENDBRANCH   9  12
ENDBRANCH   1  10
BRANCH   5  23
ATOM     23  C   UNL     1       0.715  10.699  18.551  0.00  0.00    +0.000 C 
BRANCH  23  24
ATOM     24  C   UNL     1      -0.797  10.698  18.398  0.00  0.00    +0.000 A 
ATOM     25  C   UNL     1      -1.425   9.943  17.398  0.00  0.00    +0.000 A 
ATOM     26  C   UNL     1      -2.796  10.087  17.154  0.00  0.00    +0.000 A 
ATOM     27  C   UNL     1      -3.556  10.983  17.911  0.00  0.00    +0.000 A 
ATOM     28 CL   UNL     1      -5.220  11.183  17.491  0.00  0.00    +0.000 Cl
ATOM     29  C   UNL     1      -2.952  11.700  18.947  0.00  0.00    +0.000 A 
ATOM     30 CL   UNL     1      -3.829  12.808  19.942  0.00  0.00    +0.000 Cl
ATOM     31  C   UNL     1      -1.580  11.553  19.190  0.00  0.00    +0.000 A 
ENDBRANCH  23  24
ENDBRANCH   5  23
TORSDOF 6
ENDMDL
MODEL 4
REMARK VINA RESULT:      -8.5      3.961      5.483
REMARK  Name = 
REMARK  6 active torsions:
REMARK  status: ('A' for Active; 'I' for Inactive)
REMARK    1  A    between atoms: C_2  and  S_20
REMARK    2  A    between atoms: N_3  and  C_4
REMARK    3  A    between atoms: N_8  and  C_9
REMARK    4  A    between atoms: C_9  and  C_10
REMARK    5  A    between atoms: S_20  and  C_21
REMARK    6  A    between atoms: C_25  and  C_26
REMARK                            x       y       z     vdW  Elec       q    Type
REMARK                         _______ _______ _______ _____ _____    ______ ____
ROOT
ATOM      1  C   UNL     1       3.999   3.908  18.022  0.00  0.00    +0.000 A 
ATOM      2  C   UNL     1       2.975   3.218  17.506  0.00  0.00    +0.000 A 
ATOM      3  C   UNL     1       1.676   3.221  18.111  0.00  0.00    +0.000 A 
ATOM      4  C   UNL     1       1.437   3.984  19.180  0.00  0.00    +0.000 A 
ATOM      5  N   UNL     1       2.440   4.740  19.764  0.00  0.00    +0.000 N 
ATOM      6  C   UNL     1       3.764   4.695  19.302  0.00  0.00    +0.000 A 
ATOM      7  O   UNL     1       4.708   5.282  19.832  0.00  0.00    +0.000 OA
ENDROOT
BRANCH   1  10
ATOM      8  O   UNL     1       5.120   6.008  16.333  0.00  0.00    +0.000 OA
ATOM      9  C   UNL     1       5.721   4.987  16.644  0.00  0.00    +0.000 C 
ATOM     10  N   UNL     1       5.263   3.975  17.452  0.00  0.00    +0.000 N 
ATOM     11  H   UNL     1       5.948   3.311  17.796  0.00  0.00    +0.000 HD
BRANCH   9  12
ATOM     12  S   UNL     1       7.344   4.683  16.064  0.00  0.00    +0.000 S 
BRANCH  12  13
ATOM     13  C   UNL     1       7.100   4.569  14.298  0.00  0.00    +0.000 A 
ATOM     14  C   UNL     1       8.028   5.229  13.486  0.00  0.00    +0.000 A 
ATOM     15  C   UNL     1       7.883   5.240  12.100  0.00  0.00    +0.000 A 
ATOM     16  C   UNL     1       6.808   4.585  11.507  0.00  0.00    +0.000 A 
ATOM     17  C   UNL     1       5.878   3.887  12.293  0.00  0.00    +0.000 A 
ATOM     18  C   UNL     1       6.047   3.867  13.692  0.00  0.00    +0.000 A 
BRANCH  17  19
ATOM     19  C   UNL     1       4.702   3.190  11.649  0.00  0.00    +0.000 C 
ATOM     20  F   UNL     1       3.655   2.996  12.502  0.00  0.00    +0.000 F 
ATOM     21  F   UNL     1       4.191   3.882  10.593  0.00  0.00    +0.000 F 
ATOM     22  F   UNL     1       5.021   1.956  11.173  0.00  0.00    +0.000 F 
ENDBRANCH  17  19
ENDBRANCH  12  13
ENDBRANCH   9  12
ENDBRANCH   1  10
BRANCH   5  23
ATOM     23  C   UNL     1       2.080   5.688  20.828  0.00  0.00    +0.000 C 
BRANCH  23  24
ATOM     24  C   UNL     1       1.705   7.039  20.244  0.00  0.00    +0.000 A 
ATOM     25  C   UNL     1       2.116   7.414  18.957  0.00  0.00    +0.000 A 
ATOM     26  C   UNL     1       1.917   8.721  18.500  0.00  0.00    +0.000 A 
ATOM     27  C   UNL     1       1.298   9.668  19.321  0.00  0.00    +0.000 A 
ATOM     28 CL   UNL     1       1.172  11.287  18.731  0.00  0.00    +0.000 Cl
ATOM     29  C   UNL     1       0.833   9.291  20.584  0.00  0.00    +0.000 A 
ATOM     30 CL   UNL     1       0.037  10.397  21.647  0.00  0.00    +0.000 Cl
ATOM     31  C   UNL     1       1.033   7.982  21.039  0.00  0.00    +0.000 A 
ENDBRANCH  23  24
ENDBRANCH   5  23
TORSDOF 6
ENDMDL
MODEL 5
REMARK VINA RESULT:      -8.4      0.785      1.076
REMARK  Name = 
REMARK  6 active torsions:
REMARK  status: ('A' for Active; 'I' for Inactive)
REMARK    1  A    between atoms: C_2  and  S_20
REMARK    2  A    between atoms: N_3  and  C_4
REMARK    3  A    between atoms: N_8  and  C_9
REMARK    4  A    between atoms: C_9  and  C_10
REMARK    5  A    between atoms: S_20  and  C_21
REMARK    6  A    between atoms: C_25  and  C_26
REMARK                            x       y       z     vdW  Elec       q    Type
REMARK                         _______ _______ _______ _____ _____    ______ ____
ROOT
ATOM      1  C   UNL     1       1.818   7.265  19.824  0.00  0.00    +0.000 A 
ATOM      2  C   UNL     1       1.601   7.430  21.134  0.00  0.00    +0.000 A 
ATOM      3  C   UNL     1       1.215   8.694  21.686  0.00  0.00    +0.000 A 
ATOM      4  C   UNL     1       0.990   9.735  20.882  0.00  0.00    +0.000 A 
ATOM      5  N   UNL     1       1.178   9.641  19.513  0.00  0.00    +0.000 N 
ATOM      6  C   UNL     1       1.669   8.472  18.912  0.00  0.00    +0.000 A 
ATOM      7  O   UNL     1       1.930   8.360  17.714  0.00  0.00    +0.000 OA
ENDROOT
BRANCH   1  10
ATOM      8  O   UNL     1       2.302   4.690  21.111  0.00  0.00    +0.000 OA
ATOM      9  C   UNL     1       2.387   4.878  19.903  0.00  0.00    +0.000 C 
ATOM     10  N   UNL     1       2.150   6.053  19.233  0.00  0.00    +0.000 N 
ATOM     11  H   UNL     1       2.043   5.998  18.226  0.00  0.00    +0.000 HD
BRANCH   9  12
ATOM     12  S   UNL     1       2.843   3.582  18.818  0.00  0.00    +0.000 S 
BRANCH  12  13
ATOM     13  C   UNL     1       4.348   4.208  18.089  0.00  0.00    +0.000 A 
ATOM     14  C   UNL     1       4.440   4.171  16.694  0.00  0.00    +0.000 A 
ATOM     15  C   UNL     1       5.600   4.586  16.044  0.00  0.00    +0.000 A 
ATOM     16  C   UNL     1       6.684   5.051  16.784  0.00  0.00    +0.000 A 
ATOM     17  C   UNL     1       6.611   5.130  18.182  0.00  0.00    +0.000 A 
ATOM     18  C   UNL     1       5.424   4.726  18.827  0.00  0.00    +0.000 A 
BRANCH  17  19
ATOM     19  C   UNL     1       7.795   5.620  18.985  0.00  0.00    +0.000 C 
ATOM     20  F   UNL     1       8.866   4.775  18.936  0.00  0.00    +0.000 F 
ATOM     21  F   UNL     1       8.259   6.826  18.559  0.00  0.00    +0.000 F 
ATOM     22  F   UNL     1       7.506   5.769  20.306  0.00  0.00    +0.000 F 
ENDBRANCH  17  19
ENDBRANCH  12  13
ENDBRANCH   9  12
ENDBRANCH   1  10
BRANCH   5  23
ATOM     23  C   UNL     1       0.751  10.762  18.663  0.00  0.00    +0.000 C 
BRANCH  23  24
ATOM     24  C   UNL     1      -0.754  10.741  18.455  0.00  0.00    +0.000 A 
ATOM     25  C   UNL     1      -1.333   9.996  17.419  0.00  0.00    +0.000 A 
ATOM     26  C   UNL     1      -2.696  10.124  17.128  0.00  0.00    +0.000 A 
ATOM     27  C   UNL     1      -3.497  10.992  17.874  0.00  0.00    +0.000 A 
ATOM     28 CL   UNL     1      -5.149  11.174  17.398  0.00  0.00    +0.000 Cl
ATOM     29  C   UNL     1      -2.943  11.697  18.946  0.00  0.00    +0.000 A 
ATOM     30 CL   UNL     1      -3.874  12.770  19.930  0.00  0.00    +0.000 Cl
ATOM     31  C   UNL     1      -1.579  11.567  19.236  0.00  0.00    +0.000 A 
ENDBRANCH  23  24
ENDBRANCH   5  23
TORSDOF 6
ENDMDL
MODEL 6
REMARK VINA RESULT:      -8.4      2.749      3.193
REMARK  Name = 
REMARK  6 active torsions:
REMARK  status: ('A' for Active; 'I' for Inactive)
REMARK    1  A    between atoms: C_2  and  S_20
REMARK    2  A    between atoms: N_3  and  C_4
REMARK    3  A    between atoms: N_8  and  C_9
REMARK    4  A    between atoms: C_9  and  C_10
REMARK    5  A    between atoms: S_20  and  C_21
REMARK    6  A    between atoms: C_25  and  C_26
REMARK                            x       y       z     vdW  Elec       q    Type
REMARK                         _______ _______ _______ _____ _____    ______ ____
ROOT
ATOM      1  C   UNL     1       2.287   6.336  19.282  0.00  0.00    +0.000 A 
ATOM      2  C   UNL     1       1.843   6.355  20.544  0.00  0.00    +0.000 A 
ATOM      3  C   UNL     1       1.366   7.555  21.163  0.00  0.00    +0.000 A 
ATOM      4  C   UNL     1       1.286   8.686  20.458  0.00  0.00    +0.000 A 
ATOM      5  N   UNL     1       1.711   8.745  19.142  0.00  0.00    +0.000 N 
ATOM      6  C   UNL     1       2.301   7.643  18.504  0.00  0.00    +0.000 A 
ATOM      7  O   UNL     1       2.769   7.664  17.365  0.00  0.00    +0.000 OA
ENDROOT
BRANCH   1  10
ATOM      8  O   UNL     1       4.909   5.059  19.384  0.00  0.00    +0.000 OA
ATOM      9  C   UNL     1       3.979   4.656  18.695  0.00  0.00    +0.000 C 
ATOM     10  N   UNL     1       2.717   5.194  18.621  0.00  0.00    +0.000 N 
ATOM     11  H   UNL     1       1.997   4.626  18.187  0.00  0.00    +0.000 HD
BRANCH   9  12
ATOM     12  S   UNL     1       4.159   3.251  17.668  0.00  0.00    +0.000 S 
BRANCH  12  13
ATOM     13  C   UNL     1       5.262   3.849  16.398  0.00  0.00    +0.000 A 
ATOM     14  C   UNL     1       6.224   4.788  16.784  0.00  0.00    +0.000 A 
ATOM     15  C   UNL     1       7.089   5.351  15.848  0.00  0.00    +0.000 A 
ATOM     16  C   UNL     1       7.007   4.975  14.510  0.00  0.00    +0.000 A 
ATOM     17  C   UNL     1       6.074   4.013  14.097  0.00  0.00    +0.000 A 
ATOM     18  C   UNL     1       5.218   3.437  15.057  0.00  0.00    +0.000 A 
BRANCH  17  19
ATOM     19  C   UNL     1       5.974   3.619  12.641  0.00  0.00    +0.000 C 
ATOM     20  F   UNL     1       6.846   4.295  11.838  0.00  0.00    +0.000 F 
ATOM     21  F   UNL     1       6.230   2.299  12.431  0.00  0.00    +0.000 F 
ATOM     22  F   UNL     1       4.739   3.852  12.119  0.00  0.00    +0.000 F 
ENDBRANCH  17  19
ENDBRANCH  12  13
ENDBRANCH   9  12
ENDBRANCH   1  10
BRANCH   5  23
ATOM     23  C   UNL     1       1.441   9.965  18.367  0.00  0.00    +0.000 C 
BRANCH  23  24
ATOM     24  C   UNL     1      -0.038  10.308  18.397  0.00  0.00    +0.000 A 
ATOM     25  C   UNL     1      -0.953   9.653  17.561  0.00  0.00    +0.000 A 
ATOM     26  C   UNL     1      -2.277  10.097  17.470  0.00  0.00    +0.000 A 
ATOM     27  C   UNL     1      -2.704  11.197  18.219  0.00  0.00    +0.000 A 
ATOM     28 CL   UNL     1      -4.324  11.752  17.985  0.00  0.00    +0.000 Cl
ATOM     29  C   UNL     1      -1.817  11.823  19.099  0.00  0.00    +0.000 A 
ATOM     30 CL   UNL     1      -2.276  13.172  20.076  0.00  0.00    +0.000 Cl
ATOM     31  C   UNL     1      -0.492  11.376  19.189  0.00  0.00    +0.000 A 
ENDBRANCH  23  24
ENDBRANCH   5  23
TORSDOF 6
ENDMDL
MODEL 7
REMARK VINA RESULT:      -8.4      2.773      3.428
REMARK  Name = 
REMARK  6 active torsions:
REMARK  status: ('A' for Active; 'I' for Inactive)
REMARK    1  A    between atoms: C_2  and  S_20
REMARK    2  A    between atoms: N_3  and  C_4
REMARK    3  A    between atoms: N_8  and  C_9
REMARK    4  A    between atoms: C_9  and  C_10
REMARK    5  A    between atoms: S_20  and  C_21
REMARK    6  A    between atoms: C_25  and  C_26
REMARK                            x       y       z     vdW  Elec       q    Type
REMARK                         _______ _______ _______ _____ _____    ______ ____
ROOT
ATOM      1  C   UNL     1       2.327   6.460  19.210  0.00  0.00    +0.000 A 
ATOM      2  C   UNL     1       1.765   6.505  20.423  0.00  0.00    +0.000 A 
ATOM      3  C   UNL     1       1.292   7.731  20.994  0.00  0.00    +0.000 A 
ATOM      4  C   UNL     1       1.338   8.861  20.286  0.00  0.00    +0.000 A 
ATOM      5  N   UNL     1       1.891   8.894  19.017  0.00  0.00    +0.000 N 
ATOM      6  C   UNL     1       2.482   7.761  18.439  0.00  0.00    +0.000 A 
ATOM      7  O   UNL     1       3.059   7.753  17.350  0.00  0.00    +0.000 OA
ENDROOT
BRANCH   1  10
ATOM      8  O   UNL     1       4.898   5.105  19.488  0.00  0.00    +0.000 OA
ATOM      9  C   UNL     1       3.998   4.720  18.751  0.00  0.00    +0.000 C 
ATOM     10  N   UNL     1       2.760   5.294  18.593  0.00  0.00    +0.000 N 
ATOM     11  H   UNL     1       2.051   4.741  18.124  0.00  0.00    +0.000 HD
BRANCH   9  12
ATOM     12  S   UNL     1       4.196   3.294  17.756  0.00  0.00    +0.000 S 
BRANCH  12  13
ATOM     13  C   UNL     1       5.284   3.879  16.467  0.00  0.00    +0.000 A 
ATOM     14  C   UNL     1       6.251   4.820  16.833  0.00  0.00    +0.000 A 
ATOM     15  C   UNL     1       7.105   5.373  15.880  0.00  0.00    +0.000 A 
ATOM     16  C   UNL     1       7.005   4.985  14.547  0.00  0.00    +0.000 A 
ATOM     17  C   UNL     1       6.067   4.019  14.155  0.00  0.00    +0.000 A 
ATOM     18  C   UNL     1       5.223   3.453  15.131  0.00  0.00    +0.000 A 
BRANCH  17  19
ATOM     19  C   UNL     1       5.949   3.611  12.704  0.00  0.00    +0.000 C 
ATOM     20  F   UNL     1       6.131   2.274  12.503  0.00  0.00    +0.000 F 
ATOM     21  F   UNL     1       4.731   3.901  12.171  0.00  0.00    +0.000 F 
ATOM     22  F   UNL     1       6.866   4.230  11.911  0.00  0.00    +0.000 F 
ENDBRANCH  17  19
ENDBRANCH  12  13
ENDBRANCH   9  12
ENDBRANCH   1  10
BRANCH   5  23
ATOM     23  C   UNL     1       1.759  10.123  18.221  0.00  0.00    +0.000 C 
BRANCH  23  24
ATOM     24  C   UNL     1       0.377  10.731  18.390  0.00  0.00    +0.000 A 
ATOM     25  C   UNL     1       0.188  11.912  19.121  0.00  0.00    +0.000 A 
ATOM     26  C   UNL     1      -1.103  12.364  19.418  0.00  0.00    +0.000 A 
ATOM     27  C   UNL     1      -2.219  11.645  18.984  0.00  0.00    +0.000 A 
ATOM     28 CL   UNL     1      -3.779  12.207  19.471  0.00  0.00    +0.000 Cl
ATOM     29  C   UNL     1      -2.044  10.496  18.207  0.00  0.00    +0.000 A 
ATOM     30 CL   UNL     1      -3.374   9.567  17.613  0.00  0.00    +0.000 Cl
ATOM     31  C   UNL     1      -0.751  10.046  17.910  0.00  0.00    +0.000 A 
ENDBRANCH  23  24
ENDBRANCH   5  23
TORSDOF 6
ENDMDL
MODEL 8
REMARK VINA RESULT:      -8.3      1.178      1.882
REMARK  Name = 
REMARK  6 active torsions:
REMARK  status: ('A' for Active; 'I' for Inactive)
REMARK    1  A    between atoms: C_2  and  S_20
REMARK    2  A    between atoms: N_3  and  C_4
REMARK    3  A    between atoms: N_8  and  C_9
REMARK    4  A    between atoms: C_9  and  C_10
REMARK    5  A    between atoms: S_20  and  C_21
REMARK    6  A    between atoms: C_25  and  C_26
REMARK                            x       y       z     vdW  Elec       q    Type
REMARK                         _______ _______ _______ _____ _____    ______ ____
ROOT
ATOM      1  C   UNL     1       2.015   7.073  20.376  0.00  0.00    +0.000 A 
ATOM      2  C   UNL     1       1.468   7.502  21.519  0.00  0.00    +0.000 A 
ATOM      3  C   UNL     1       0.873   8.800  21.636  0.00  0.00    +0.000 A 
ATOM      4  C   UNL     1       0.786   9.595  20.567  0.00  0.00    +0.000 A 
ATOM      5  N   UNL     1       1.313   9.217  19.344  0.00  0.00    +0.000 N 
ATOM      6  C   UNL     1       2.016   8.014  19.181  0.00  0.00    +0.000 A 
ATOM      7  O   UNL     1       2.574   7.667  18.140  0.00  0.00    +0.000 OA
ENDROOT
BRANCH   1  10
ATOM      8  O   UNL     1       0.666   4.485  20.425  0.00  0.00    +0.000 OA
ATOM      9  C   UNL     1       1.872   4.625  20.256  0.00  0.00    +0.000 C 
ATOM     10  N   UNL     1       2.563   5.810  20.197  0.00  0.00    +0.000 N 
ATOM     11  H   UNL     1       3.509   5.777  19.832  0.00  0.00    +0.000 HD
BRANCH   9  12
ATOM     12  S   UNL     1       2.920   3.239  20.046  0.00  0.00    +0.000 S 
BRANCH  12  13
ATOM     13  C   UNL     1       4.035   3.797  18.767  0.00  0.00    +0.000 A 
ATOM     14  C   UNL     1       3.580   3.709  17.448  0.00  0.00    +0.000 A 
ATOM     15  C   UNL     1       4.405   4.068  16.383  0.00  0.00    +0.000 A 
ATOM     16  C   UNL     1       5.696   4.528  16.627  0.00  0.00    +0.000 A 
ATOM     17  C   UNL     1       6.169   4.657  17.941  0.00  0.00    +0.000 A 
ATOM     18  C   UNL     1       5.318   4.309  19.010  0.00  0.00    +0.000 A 
BRANCH  17  19
ATOM     19  C   UNL     1       7.578   5.140  18.203  0.00  0.00    +0.000 C 
ATOM     20  F   UNL     1       7.801   5.469  19.508  0.00  0.00    +0.000 F 
ATOM     21  F   UNL     1       8.522   4.211  17.892  0.00  0.00    +0.000 F 
ATOM     22  F   UNL     1       7.891   6.253  17.485  0.00  0.00    +0.000 F 
ENDBRANCH  17  19
ENDBRANCH  12  13
ENDBRANCH   9  12
ENDBRANCH   1  10
BRANCH   5  23
ATOM     23  C   UNL     1       1.037  10.054  18.168  0.00  0.00    +0.000 C 
BRANCH  23  24
ATOM     24  C   UNL     1      -0.310  10.745  18.299  0.00  0.00    +0.000 A 
ATOM     25  C   UNL     1      -0.434  11.974  18.962  0.00  0.00    +0.000 A 
ATOM     26  C   UNL     1      -1.698  12.511  19.231  0.00  0.00    +0.000 A 
ATOM     27  C   UNL     1      -2.852  11.829  18.835  0.00  0.00    +0.000 A 
ATOM     28 CL   UNL     1      -4.379  12.501  19.286  0.00  0.00    +0.000 Cl
ATOM     29  C   UNL     1      -2.740  10.632  18.124  0.00  0.00    +0.000 A 
ATOM     30 CL   UNL     1      -4.119   9.744  17.579  0.00  0.00    +0.000 Cl
ATOM     31  C   UNL     1      -1.474  10.096  17.855  0.00  0.00    +0.000 A 
ENDBRANCH  23  24
ENDBRANCH   5  23
TORSDOF 6
ENDMDL
MODEL 9
REMARK VINA RESULT:      -8.3      0.823      1.443
REMARK  Name = 
REMARK  6 active torsions:
REMARK  status: ('A' for Active; 'I' for Inactive)
REMARK    1  A    between atoms: C_2  and  S_20
REMARK    2  A    between atoms: N_3  and  C_4
REMARK    3  A    between atoms: N_8  and  C_9
REMARK    4  A    between atoms: C_9  and  C_10
REMARK    5  A    between atoms: S_20  and  C_21
REMARK    6  A    between atoms: C_25  and  C_26
REMARK                            x       y       z     vdW  Elec       q    Type
REMARK                         _______ _______ _______ _____ _____    ______ ____
ROOT
ATOM      1  C   UNL     1       2.187   6.628  19.730  0.00  0.00    +0.000 A 
ATOM      2  C   UNL     1       1.591   6.807  20.914  0.00  0.00    +0.000 A 
ATOM      3  C   UNL     1       1.046   8.073  21.306  0.00  0.00    +0.000 A 
ATOM      4  C   UNL     1       1.056   9.099  20.453  0.00  0.00    +0.000 A 
ATOM      5  N   UNL     1       1.640   8.989  19.202  0.00  0.00    +0.000 N 
ATOM      6  C   UNL     1       2.299   7.821  18.793  0.00  0.00    +0.000 A 
ATOM      7  O   UNL     1       2.904   7.697  17.727  0.00  0.00    +0.000 OA
ENDROOT
BRANCH   1  10
ATOM      8  O   UNL     1       0.899   4.009  19.753  0.00  0.00    +0.000 OA
ATOM      9  C   UNL     1       2.037   4.208  19.345  0.00  0.00    +0.000 C 
ATOM     10  N   UNL     1       2.691   5.414  19.284  0.00  0.00    +0.000 N 
ATOM     11  H   UNL     1       3.534   5.455  18.721  0.00  0.00    +0.000 HD
BRANCH   9  12
ATOM     12  S   UNL     1       3.023   2.892  18.746  0.00  0.00    +0.000 S 
BRANCH  12  13
ATOM     13  C   UNL     1       4.393   3.756  17.994  0.00  0.00    +0.000 A 
ATOM     14  C   UNL     1       4.395   3.850  16.599  0.00  0.00    +0.000 A 
ATOM     15  C   UNL     1       5.453   4.456  15.925  0.00  0.00    +0.000 A 
ATOM     16  C   UNL     1       6.523   4.985  16.642  0.00  0.00    +0.000 A 
ATOM     17  C   UNL     1       6.535   4.935  18.044  0.00  0.00    +0.000 A 
ATOM     18  C   UNL     1       5.449   4.336  18.714  0.00  0.00    +0.000 A 
BRANCH  17  19
ATOM     19  C   UNL     1       7.706   5.494  18.819  0.00  0.00    +0.000 C 
ATOM     20  F   UNL     1       8.117   6.715  18.370  0.00  0.00    +0.000 F 
ATOM     21  F   UNL     1       7.432   5.663  20.142  0.00  0.00    +0.000 F 
ATOM     22  F   UNL     1       8.804   4.692  18.760  0.00  0.00    +0.000 F 
ENDBRANCH  17  19
ENDBRANCH  12  13
ENDBRANCH   9  12
ENDBRANCH   1  10
BRANCH   5  23
ATOM     23  C   UNL     1       1.470  10.092  18.245  0.00  0.00    +0.000 C 
BRANCH  23  24
ATOM     24  C   UNL     1       0.100  10.732  18.394  0.00  0.00    +0.000 A 
ATOM     25  C   UNL     1      -0.072  11.919  19.119  0.00  0.00    +0.000 A 
ATOM     26  C   UNL     1      -1.356  12.401  19.398  0.00  0.00    +0.000 A 
ATOM     27  C   UNL     1      -2.483  11.706  18.951  0.00  0.00    +0.000 A 
ATOM     28 CL   UNL     1      -4.036  12.304  19.416  0.00  0.00    +0.000 Cl
ATOM     29  C   UNL     1      -2.323  10.551  18.180  0.00  0.00    +0.000 A 
ATOM     30 CL   UNL     1      -3.666   9.650  17.571  0.00  0.00    +0.000 Cl
ATOM     31  C   UNL     1      -1.037  10.072  17.901  0.00  0.00    +0.000 A 
ENDBRANCH  23  24
ENDBRANCH   5  23
TORSDOF 6
ENDMDL
