MODEL 1
REMARK VINA RESULT:      -7.9      0.000      0.000
REMARK  Name = 
REMARK  3 active torsions:
REMARK  status: ('A' for Active; 'I' for Inactive)
REMARK    1  A    between atoms: C_4  and  C_5
REMARK    2  A    between atoms: C_5  and  N_6
REMARK    3  A    between atoms: N_6  and  C_7
REMARK                            x       y       z     vdW  Elec       q    Type
REMARK                         _______ _______ _______ _____ _____    ______ ____
ROOT
ATOM      1  C   UNL     1       5.002   4.509  16.920  0.00  0.00    +0.000 A 
ATOM      2  N   UNL     1       5.513   4.209  15.699  0.00  0.00    +0.000 NA
ATOM      3  C   UNL     1       6.851   4.228  15.524  0.00  0.00    +0.000 A 
ATOM      4  N   UNL     1       7.805   4.501  16.434  0.00  0.00    +0.000 NA
ATOM      5  C   UNL     1       7.258   4.783  17.625  0.00  0.00    +0.000 A 
ATOM      6  N   UNL     1       7.924   5.110  18.771  0.00  0.00    +0.000 N 
ATOM      7  N   UNL     1       7.109   5.342  19.824  0.00  0.00    +0.000 NA
ATOM      8  C   UNL     1       5.888   5.165  19.306  0.00  0.00    +0.000 A 
ATOM      9  C   UNL     1       5.914   4.809  17.941  0.00  0.00    +0.000 A 
ATOM     10  H   UNL     1       8.925   5.192  18.893  0.00  0.00    +0.000 HD
ENDROOT
BRANCH   1  11
ATOM     11  N   UNL     1       3.628   4.548  17.124  0.00  0.00    +0.000 N 
ATOM     12  H   UNL     1       3.321   5.300  17.728  0.00  0.00    +0.000 HD
BRANCH  11  13
ATOM     13  C   UNL     1       2.964   3.281  17.376  0.00  0.00    +0.000 C 
BRANCH  13  17
ATOM     14  C   UNL     1       1.710   3.143  21.510  0.00  0.00    +0.000 A 
ATOM     15  C   UNL     1       2.900   2.533  21.118  0.00  0.00    +0.000 A 
ATOM     16  C   UNL     1       3.302   2.583  19.783  0.00  0.00    +0.000 A 
ATOM     17  C   UNL     1       2.519   3.244  18.822  0.00  0.00    +0.000 A 
ATOM     18  C   UNL     1       1.325   3.855  19.229  0.00  0.00    +0.000 A 
ATOM     19  C   UNL     1       0.923   3.805  20.567  0.00  0.00    +0.000 A 
ENDBRANCH  13  17
ENDBRANCH  11  13
ENDBRANCH   1  11
TORSDOF 3
ENDMDL
MODEL 2
REMARK VINA RESULT:      -7.6      0.568      1.094
REMARK  Name = 
REMARK  3 active torsions:
REMARK  status: ('A' for Active; 'I' for Inactive)
REMARK    1  A    between atoms: C_4  and  C_5
REMARK    2  A    between atoms: C_5  and  N_6
REMARK    3  A    between atoms: N_6  and  C_7
REMARK                            x       y       z     vdW  Elec       q    Type
REMARK                         _______ _______ _______ _____ _____    ______ ____
ROOT
ATOM      1  C   UNL     1       4.999   4.578  16.821  0.00  0.00    +0.000 A 
ATOM      2  N   UNL     1       5.552   4.283  15.618  0.00  0.00    +0.000 NA
ATOM      3  C   UNL     1       6.897   4.259  15.500  0.00  0.00    +0.000 A 
ATOM      4  N   UNL     1       7.819   4.485  16.455  0.00  0.00    +0.000 NA
ATOM      5  C   UNL     1       7.231   4.764  17.627  0.00  0.00    +0.000 A 
ATOM      6  N   UNL     1       7.857   5.049  18.806  0.00  0.00    +0.000 N 
ATOM      7  N   UNL     1       7.005   5.289  19.828  0.00  0.00    +0.000 NA
ATOM      8  C   UNL     1       5.802   5.162  19.255  0.00  0.00    +0.000 A 
ATOM      9  C   UNL     1       5.876   4.829  17.886  0.00  0.00    +0.000 A 
ATOM     10  H   UNL     1       8.854   5.094  18.972  0.00  0.00    +0.000 HD
ENDROOT
BRANCH   1  11
ATOM     11  N   UNL     1       3.620   4.659  16.968  0.00  0.00    +0.000 N 
ATOM     12  H   UNL     1       3.309   5.440  17.532  0.00  0.00    +0.000 HD
BRANCH  11  13
ATOM     13  C   UNL     1       2.913   3.419  17.235  0.00  0.00    +0.000 C 
BRANCH  13  17
ATOM     14  C   UNL     1       1.405   3.567  21.284  0.00  0.00    +0.000 A 
ATOM     15  C   UNL     1       1.515   4.736  20.534  0.00  0.00    +0.000 A 
ATOM     16  C   UNL     1       1.999   4.683  19.226  0.00  0.00    +0.000 A 
ATOM     17  C   UNL     1       2.381   3.458  18.652  0.00  0.00    +0.000 A 
ATOM     18  C   UNL     1       2.264   2.289  19.416  0.00  0.00    +0.000 A 
ATOM     19  C   UNL     1       1.778   2.344  20.725  0.00  0.00    +0.000 A 
ENDBRANCH  13  17
ENDBRANCH  11  13
ENDBRANCH   1  11
TORSDOF 3
ENDMDL
MODEL 3
REMARK VINA RESULT:      -7.5      1.286      2.558
REMARK  Name = 
REMARK  3 active torsions:
REMARK  status: ('A' for Active; 'I' for Inactive)
REMARK    1  A    between atoms: C_4  and  C_5
REMARK    2  A    between atoms: C_5  and  N_6
REMARK    3  A    between atoms: N_6  and  C_7
REMARK                            x       y       z     vdW  Elec       q    Type
REMARK                         _______ _______ _______ _____ _____    ______ ____
ROOT
ATOM      1  C   UNL     1       5.699   4.315  17.381  0.00  0.00    +0.000 A 
ATOM      2  N   UNL     1       6.131   5.206  18.308  0.00  0.00    +0.000 NA
ATOM      3  C   UNL     1       6.997   6.173  17.937  0.00  0.00    +0.000 A 
ATOM      4  N   UNL     1       7.512   6.404  16.715  0.00  0.00    +0.000 NA
ATOM      5  C   UNL     1       7.053   5.507  15.830  0.00  0.00    +0.000 A 
ATOM      6  N   UNL     1       7.368   5.436  14.504  0.00  0.00    +0.000 N 
ATOM      7  N   UNL     1       6.751   4.425  13.853  0.00  0.00    +0.000 NA
ATOM      8  C   UNL     1       6.035   3.837  14.819  0.00  0.00    +0.000 A 
ATOM      9  C   UNL     1       6.176   4.468  16.073  0.00  0.00    +0.000 A 
ATOM     10  H   UNL     1       7.994   6.045  13.992  0.00  0.00    +0.000 HD
ENDROOT
BRANCH   1  11
ATOM     11  N   UNL     1       4.845   3.278  17.738  0.00  0.00    +0.000 N 
ATOM     12  H   UNL     1       5.172   2.361  17.461  0.00  0.00    +0.000 HD
BRANCH  11  13
ATOM     13  C   UNL     1       3.425   3.490  17.520  0.00  0.00    +0.000 C 
BRANCH  13  17
ATOM     14  C   UNL     1       1.402   3.199  21.328  0.00  0.00    +0.000 A 
ATOM     15  C   UNL     1       2.692   2.693  21.180  0.00  0.00    +0.000 A 
ATOM     16  C   UNL     1       3.343   2.793  19.949  0.00  0.00    +0.000 A 
ATOM     17  C   UNL     1       2.710   3.398  18.850  0.00  0.00    +0.000 A 
ATOM     18  C   UNL     1       1.413   3.905  19.013  0.00  0.00    +0.000 A 
ATOM     19  C   UNL     1       0.763   3.806  20.247  0.00  0.00    +0.000 A 
ENDBRANCH  13  17
ENDBRANCH  11  13
ENDBRANCH   1  11
TORSDOF 3
ENDMDL
MODEL 4
REMARK VINA RESULT:      -7.4      1.289      2.740
REMARK  Name = 
REMARK  3 active torsions:
REMARK  status: ('A' for Active; 'I' for Inactive)
REMARK    1  A    between atoms: C_4  and  C_5
REMARK    2  A    between atoms: C_5  and  N_6
REMARK    3  A    between atoms: N_6  and  C_7
REMARK                            x       y       z     vdW  Elec       q    Type
REMARK                         _______ _______ _______ _____ _____    ______ ____
ROOT
ATOM      1  C   UNL     1       6.059   4.344  18.141  0.00  0.00    +0.000 A 
ATOM      2  N   UNL     1       6.573   5.226  19.034  0.00  0.00    +0.000 NA
ATOM      3  C   UNL     1       7.377   6.217  18.591  0.00  0.00    +0.000 A 
ATOM      4  N   UNL     1       7.751   6.480  17.326  0.00  0.00    +0.000 NA
ATOM      5  C   UNL     1       7.215   5.591  16.477  0.00  0.00    +0.000 A 
ATOM      6  N   UNL     1       7.386   5.551  15.124  0.00  0.00    +0.000 N 
ATOM      7  N   UNL     1       6.719   4.540  14.523  0.00  0.00    +0.000 NA
ATOM      8  C   UNL     1       6.124   3.919  15.548  0.00  0.00    +0.000 A 
ATOM      9  C   UNL     1       6.389   4.530  16.792  0.00  0.00    +0.000 A 
ATOM     10  H   UNL     1       7.941   6.181  14.559  0.00  0.00    +0.000 HD
ENDROOT
BRANCH   1  11
ATOM     11  N   UNL     1       5.269   3.283  18.567  0.00  0.00    +0.000 N 
ATOM     12  H   UNL     1       5.738   2.386  18.553  0.00  0.00    +0.000 HD
BRANCH  11  13
ATOM     13  C   UNL     1       3.903   3.242  18.076  0.00  0.00    +0.000 C 
BRANCH  13  17
ATOM     14  C   UNL     1       1.202   2.929  21.436  0.00  0.00    +0.000 A 
ATOM     15  C   UNL     1       0.733   3.365  20.198  0.00  0.00    +0.000 A 
ATOM     16  C   UNL     1       1.608   3.461  19.115  0.00  0.00    +0.000 A 
ATOM     17  C   UNL     1       2.964   3.123  19.257  0.00  0.00    +0.000 A 
ATOM     18  C   UNL     1       3.423   2.684  20.507  0.00  0.00    +0.000 A 
ATOM     19  C   UNL     1       2.545   2.588  21.591  0.00  0.00    +0.000 A 
ENDBRANCH  13  17
ENDBRANCH  11  13
ENDBRANCH   1  11
TORSDOF 3
ENDMDL
MODEL 5
REMARK VINA RESULT:      -7.4      1.439      2.800
REMARK  Name = 
REMARK  3 active torsions:
REMARK  status: ('A' for Active; 'I' for Inactive)
REMARK    1  A    between atoms: C_4  and  C_5
REMARK    2  A    between atoms: C_5  and  N_6
REMARK    3  A    between atoms: N_6  and  C_7
REMARK                            x       y       z     vdW  Elec       q    Type
REMARK                         _______ _______ _______ _____ _____    ______ ____
ROOT
ATOM      1  C   UNL     1       5.526   4.233  17.096  0.00  0.00    +0.000 A 
ATOM      2  N   UNL     1       5.907   5.074  18.090  0.00  0.00    +0.000 NA
ATOM      3  C   UNL     1       6.829   6.026  17.829  0.00  0.00    +0.000 A 
ATOM      4  N   UNL     1       7.449   6.285  16.663  0.00  0.00    +0.000 NA
ATOM      5  C   UNL     1       7.038   5.438  15.708  0.00  0.00    +0.000 A 
ATOM      6  N   UNL     1       7.458   5.407  14.411  0.00  0.00    +0.000 N 
ATOM      7  N   UNL     1       6.867   4.442  13.672  0.00  0.00    +0.000 NA
ATOM      8  C   UNL     1       6.058   3.841  14.552  0.00  0.00    +0.000 A 
ATOM      9  C   UNL     1       6.114   4.419  15.838  0.00  0.00    +0.000 A 
ATOM     10  H   UNL     1       8.142   6.013  13.976  0.00  0.00    +0.000 HD
ENDROOT
BRANCH   1  11
ATOM     11  N   UNL     1       4.617   3.211  17.341  0.00  0.00    +0.000 N 
ATOM     12  H   UNL     1       4.901   2.310  16.979  0.00  0.00    +0.000 HD
BRANCH  11  13
ATOM     13  C   UNL     1       3.213   3.516  17.129  0.00  0.00    +0.000 C 
BRANCH  13  17
ATOM     14  C   UNL     1       1.247   3.694  20.975  0.00  0.00    +0.000 A 
ATOM     15  C   UNL     1       1.631   4.868  20.329  0.00  0.00    +0.000 A 
ATOM     16  C   UNL     1       2.261   4.805  19.086  0.00  0.00    +0.000 A 
ATOM     17  C   UNL     1       2.519   3.567  18.473  0.00  0.00    +0.000 A 
ATOM     18  C   UNL     1       2.127   2.394  19.132  0.00  0.00    +0.000 A 
ATOM     19  C   UNL     1       1.493   2.458  20.377  0.00  0.00    +0.000 A 
ENDBRANCH  13  17
ENDBRANCH  11  13
ENDBRANCH   1  11
TORSDOF 3
ENDMDL
MODEL 6
REMARK VINA RESULT:      -7.3      1.583      2.804
REMARK  Name = 
REMARK  3 active torsions:
REMARK  status: ('A' for Active; 'I' for Inactive)
REMARK    1  A    between atoms: C_4  and  C_5
REMARK    2  A    between atoms: C_5  and  N_6
REMARK    3  A    between atoms: N_6  and  C_7
REMARK                            x       y       z     vdW  Elec       q    Type
REMARK                         _______ _______ _______ _____ _____    ______ ____
ROOT
ATOM      1  C   UNL     1       5.608   4.342  17.097  0.00  0.00    +0.000 A 
ATOM      2  N   UNL     1       6.024   5.215  18.048  0.00  0.00    +0.000 NA
ATOM      3  C   UNL     1       6.950   6.145  17.726  0.00  0.00    +0.000 A 
ATOM      4  N   UNL     1       7.541   6.351  16.535  0.00  0.00    +0.000 NA
ATOM      5  C   UNL     1       7.095   5.474  15.625  0.00  0.00    +0.000 A 
ATOM      6  N   UNL     1       7.481   5.388  14.318  0.00  0.00    +0.000 N 
ATOM      7  N   UNL     1       6.859   4.403  13.633  0.00  0.00    +0.000 NA
ATOM      8  C   UNL     1       6.066   3.846  14.557  0.00  0.00    +0.000 A 
ATOM      9  C   UNL     1       6.164   4.472  15.817  0.00  0.00    +0.000 A 
ATOM     10  H   UNL     1       8.159   5.969  13.843  0.00  0.00    +0.000 HD
ENDROOT
BRANCH   1  11
ATOM     11  N   UNL     1       4.693   3.341  17.404  0.00  0.00    +0.000 N 
ATOM     12  H   UNL     1       5.022   2.406  17.203  0.00  0.00    +0.000 HD
BRANCH  11  13
ATOM     13  C   UNL     1       3.311   3.576  17.027  0.00  0.00    +0.000 C 
BRANCH  13  17
ATOM     14  C   UNL     1       0.938   4.090  20.604  0.00  0.00    +0.000 A 
ATOM     15  C   UNL     1       0.821   2.926  19.847  0.00  0.00    +0.000 A 
ATOM     16  C   UNL     1       1.592   2.763  18.695  0.00  0.00    +0.000 A 
ATOM     17  C   UNL     1       2.489   3.764  18.285  0.00  0.00    +0.000 A 
ATOM     18  C   UNL     1       2.599   4.930  19.055  0.00  0.00    +0.000 A 
ATOM     19  C   UNL     1       1.827   5.091  20.210  0.00  0.00    +0.000 A 
ENDBRANCH  13  17
ENDBRANCH  11  13
ENDBRANCH   1  11
TORSDOF 3
ENDMDL
MODEL 7
REMARK VINA RESULT:      -7.3      1.212      2.370
REMARK  Name = 
REMARK  3 active torsions:
REMARK  status: ('A' for Active; 'I' for Inactive)
REMARK    1  A    between atoms: C_4  and  C_5
REMARK    2  A    between atoms: C_5  and  N_6
REMARK    3  A    between atoms: N_6  and  C_7
REMARK                            x       y       z     vdW  Elec       q    Type
REMARK                         _______ _______ _______ _____ _____    ______ ____
ROOT
ATOM      1  C   UNL     1       5.401   4.007  17.660  0.00  0.00    +0.000 A 
ATOM      2  N   UNL     1       5.630   4.415  18.933  0.00  0.00    +0.000 NA
ATOM      3  C   UNL     1       6.549   5.379  19.159  0.00  0.00    +0.000 A 
ATOM      4  N   UNL     1       7.300   6.038  18.259  0.00  0.00    +0.000 NA
ATOM      5  C   UNL     1       7.036   5.611  17.016  0.00  0.00    +0.000 A 
ATOM      6  N   UNL     1       7.615   6.052  15.861  0.00  0.00    +0.000 N 
ATOM      7  N   UNL     1       7.149   5.438  14.751  0.00  0.00    +0.000 NA
ATOM      8  C   UNL     1       6.255   4.570  15.239  0.00  0.00    +0.000 A 
ATOM      9  C   UNL     1       6.134   4.633  16.643  0.00  0.00    +0.000 A 
ATOM     10  H   UNL     1       8.329   6.764  15.770  0.00  0.00    +0.000 HD
ENDROOT
BRANCH   1  11
ATOM     11  N   UNL     1       4.498   2.984  17.395  0.00  0.00    +0.000 N 
ATOM     12  H   UNL     1       4.827   2.309  16.717  0.00  0.00    +0.000 HD
BRANCH  11  13
ATOM     13  C   UNL     1       3.107   3.362  17.224  0.00  0.00    +0.000 C 
BRANCH  13  17
ATOM     14  C   UNL     1       1.215   3.479  21.109  0.00  0.00    +0.000 A 
ATOM     15  C   UNL     1       1.780   2.295  20.640  0.00  0.00    +0.000 A 
ATOM     16  C   UNL     1       2.393   2.263  19.387  0.00  0.00    +0.000 A 
ATOM     17  C   UNL     1       2.447   3.416  18.585  0.00  0.00    +0.000 A 
ATOM     18  C   UNL     1       1.876   4.601  19.069  0.00  0.00    +0.000 A 
ATOM     19  C   UNL     1       1.264   4.632  20.325  0.00  0.00    +0.000 A 
ENDBRANCH  13  17
ENDBRANCH  11  13
ENDBRANCH   1  11
TORSDOF 3
ENDMDL
MODEL 8
REMARK VINA RESULT:      -7.3      1.516      2.818
REMARK  Name = 
REMARK  3 active torsions:
REMARK  status: ('A' for Active; 'I' for Inactive)
REMARK    1  A    between atoms: C_4  and  C_5
REMARK    2  A    between atoms: C_5  and  N_6
REMARK    3  A    between atoms: N_6  and  C_7
REMARK                            x       y       z     vdW  Elec       q    Type
REMARK                         _______ _______ _______ _____ _____    ______ ____
ROOT
ATOM      1  C   UNL     1       4.988   5.893  17.830  0.00  0.00    +0.000 A 
ATOM      2  N   UNL     1       5.518   5.676  19.060  0.00  0.00    +0.000 NA
ATOM      3  C   UNL     1       6.762   5.159  19.158  0.00  0.00    +0.000 A 
ATOM      4  N   UNL     1       7.602   4.820  18.163  0.00  0.00    +0.000 NA
ATOM      5  C   UNL     1       7.043   5.058  16.968  0.00  0.00    +0.000 A 
ATOM      6  N   UNL     1       7.604   4.829  15.745  0.00  0.00    +0.000 N 
ATOM      7  N   UNL     1       6.805   5.168  14.709  0.00  0.00    +0.000 NA
ATOM      8  C   UNL     1       5.697   5.611  15.315  0.00  0.00    +0.000 A 
ATOM      9  C   UNL     1       5.785   5.573  16.723  0.00  0.00    +0.000 A 
ATOM     10  H   UNL     1       8.522   4.446  15.557  0.00  0.00    +0.000 HD
ENDROOT
BRANCH   1  11
ATOM     11  N   UNL     1       3.693   6.378  17.691  0.00  0.00    +0.000 N 
ATOM     12  H   UNL     1       3.613   7.164  17.059  0.00  0.00    +0.000 HD
BRANCH  11  13
ATOM     13  C   UNL     1       2.909   6.515  18.906  0.00  0.00    +0.000 C 
BRANCH  13  17
ATOM     14  C   UNL     1       0.841   2.788  19.625  0.00  0.00    +0.000 A 
ATOM     15  C   UNL     1       1.174   3.165  18.326  0.00  0.00    +0.000 A 
ATOM     16  C   UNL     1       1.845   4.367  18.099  0.00  0.00    +0.000 A 
ATOM     17  C   UNL     1       2.190   5.209  19.169  0.00  0.00    +0.000 A 
ATOM     18  C   UNL     1       1.851   4.818  20.472  0.00  0.00    +0.000 A 
ATOM     19  C   UNL     1       1.180   3.612  20.698  0.00  0.00    +0.000 A 
ENDBRANCH  13  17
ENDBRANCH  11  13
ENDBRANCH   1  11
TORSDOF 3
ENDMDL
MODEL 9
REMARK VINA RESULT:      -7.3      1.798      2.780
REMARK  Name = 
REMARK  3 active torsions:
REMARK  status: ('A' for Active; 'I' for Inactive)
REMARK    1  A    between atoms: C_4  and  C_5
REMARK    2  A    between atoms: C_5  and  N_6
REMARK    3  A    between atoms: N_6  and  C_7
REMARK                            x       y       z     vdW  Elec       q    Type
REMARK                         _______ _______ _______ _____ _____    ______ ____
ROOT
ATOM      1  C   UNL     1       4.899   5.407  16.921  0.00  0.00    +0.000 A 
ATOM      2  N   UNL     1       5.465   6.238  17.832  0.00  0.00    +0.000 NA
ATOM      3  C   UNL     1       6.714   6.702  17.612  0.00  0.00    +0.000 A 
ATOM      4  N   UNL     1       7.517   6.460  16.560  0.00  0.00    +0.000 NA
ATOM      5  C   UNL     1       6.917   5.643  15.682  0.00  0.00    +0.000 A 
ATOM      6  N   UNL     1       7.438   5.184  14.507  0.00  0.00    +0.000 N 
ATOM      7  N   UNL     1       6.601   4.373  13.822  0.00  0.00    +0.000 NA
ATOM      8  C   UNL     1       5.522   4.316  14.612  0.00  0.00    +0.000 A 
ATOM      9  C   UNL     1       5.655   5.091  15.784  0.00  0.00    +0.000 A 
ATOM     10  H   UNL     1       8.352   5.388  14.124  0.00  0.00    +0.000 HD
ENDROOT
BRANCH   1  11
ATOM     11  N   UNL     1       3.635   4.871  17.139  0.00  0.00    +0.000 N 
ATOM     12  H   UNL     1       3.184   4.526  16.302  0.00  0.00    +0.000 HD
BRANCH  11  13
ATOM     13  C   UNL     1       2.752   5.609  18.024  0.00  0.00    +0.000 C 
BRANCH  13  17
ATOM     14  C   UNL     1       1.236   2.905  21.036  0.00  0.00    +0.000 A 
ATOM     15  C   UNL     1       2.089   3.946  21.396  0.00  0.00    +0.000 A 
ATOM     16  C   UNL     1       2.573   4.819  20.420  0.00  0.00    +0.000 A 
ATOM     17  C   UNL     1       2.211   4.660  19.072  0.00  0.00    +0.000 A 
ATOM     18  C   UNL     1       1.350   3.609  18.723  0.00  0.00    +0.000 A 
ATOM     19  C   UNL     1       0.865   2.736  19.702  0.00  0.00    +0.000 A 
ENDBRANCH  13  17
ENDBRANCH  11  13
ENDBRANCH   1  11
TORSDOF 3
ENDMDL
