MODEL 1
REMARK VINA RESULT:      -8.7      0.000      0.000
REMARK  Name = 
REMARK  9 active torsions:
REMARK  status: ('A' for Active; 'I' for Inactive)
REMARK    1  A    between atoms: C_6  and  C_7
REMARK    2  A    between atoms: N_10  and  C_11
REMARK    3  A    between atoms: C_11  and  C_12
REMARK    4  A    between atoms: C_12  and  C_13
REMARK    5  A    between atoms: C_13  and  O_14
REMARK    6  A    between atoms: O_14  and  C_15
REMARK    7  A    between atoms: C_18  and  C_19
REMARK    8  A    between atoms: C_19  and  C_20
REMARK    9  A    between atoms: C_20  and  C_21
REMARK                            x       y       z     vdW  Elec       q    Type
REMARK                         _______ _______ _______ _____ _____    ______ ____
ROOT
ATOM      1  C   UNL     1       1.689   8.585  19.786  0.00  0.00    +0.000 C 
ENDROOT
BRANCH   1   2
ATOM      2  C   UNL     1       1.747   7.172  19.201  0.00  0.00    +0.000 C 
BRANCH   2   3
ATOM      3  C   UNL     1       2.645   6.213  20.002  0.00  0.00    +0.000 C 
BRANCH   3   7
ATOM      4  C   UNL     1       5.142   3.851  17.286  0.00  0.00    +0.000 C 
ATOM      5  C   UNL     1       3.656   4.123  16.986  0.00  0.00    +0.000 C 
ATOM      6  C   UNL     1       3.023   5.279  17.770  0.00  0.00    +0.000 C 
ATOM      7  N   UNL     1       3.351   5.193  19.201  0.00  0.00    +0.000 NA
ATOM      8  C   UNL     1       4.809   5.348  19.345  0.00  0.00    +0.000 C 
ATOM      9  C   UNL     1       5.521   4.133  18.746  0.00  0.00    +0.000 C 
BRANCH   4  15
ATOM     10  F   UNL     1       7.467   4.493  10.972  0.00  0.00    +0.000 F 
ATOM     11  C   UNL     1       7.067   4.427  12.250  0.00  0.00    +0.000 A 
ATOM     12  C   UNL     1       6.037   3.552  12.591  0.00  0.00    +0.000 A 
ATOM     13  C   UNL     1       5.588   3.456  13.920  0.00  0.00    +0.000 A 
ATOM     14  C   UNL     1       6.204   4.264  14.900  0.00  0.00    +0.000 A 
ATOM     15  C   UNL     1       6.091   4.496  16.308  0.00  0.00    +0.000 A 
ATOM     16  N   UNL     1       6.984   5.409  16.719  0.00  0.00    +0.000 NA
ATOM     17  O   UNL     1       7.685   5.793  15.587  0.00  0.00    +0.000 OA
ATOM     18  C   UNL     1       7.224   5.111  14.505  0.00  0.00    +0.000 A 
ATOM     19  C   UNL     1       7.693   5.234  13.197  0.00  0.00    +0.000 A 
ENDBRANCH   4  15
ENDBRANCH   3   7
ENDBRANCH   2   3
ENDBRANCH   1   2
BRANCH   1  20
ATOM     20  O   UNL     1       1.388   8.488  21.186  0.00  0.00    +0.000 OA
BRANCH  20  21
ATOM     21  C   UNL     1       0.612   9.487  21.717  0.00  0.00    +0.000 A 
ATOM     22  C   UNL     1       0.735  10.735  21.102  0.00  0.00    +0.000 A 
ATOM     23  C   UNL     1      -0.019  11.832  21.542  0.00  0.00    +0.000 A 
ATOM     24  C   UNL     1      -0.925  11.694  22.599  0.00  0.00    +0.000 A 
ATOM     25  C   UNL     1      -1.056  10.436  23.203  0.00  0.00    +0.000 A 
ATOM     26  C   UNL     1      -0.293   9.343  22.766  0.00  0.00    +0.000 A 
BRANCH  24  27
ATOM     27  C   UNL     1      -1.775  12.862  23.058  0.00  0.00    +0.000 C 
BRANCH  27  28
ATOM     28  C   UNL     1      -2.253  13.717  21.882  0.00  0.00    +0.000 C 
BRANCH  28  29
ATOM     29  C   UNL     1      -3.524  13.225  21.277  0.00  0.00    +0.000 A 
ATOM     30  N   UNL     1      -4.690  12.998  21.853  0.00  0.00    +0.000 NA
ATOM     31  C   UNL     1      -5.431  12.398  20.864  0.00  0.00    +0.000 A 
ATOM     32  C   UNL     1      -6.735  11.882  20.871  0.00  0.00    +0.000 A 
ATOM     33  C   UNL     1      -7.219  11.280  19.697  0.00  0.00    +0.000 A 
ATOM     34  C   UNL     1      -6.430  11.211  18.542  0.00  0.00    +0.000 A 
ATOM     35  C   UNL     1      -5.132  11.736  18.514  0.00  0.00    +0.000 A 
ATOM     36  C   UNL     1      -4.683  12.309  19.700  0.00  0.00    +0.000 A 
ATOM     37  O   UNL     1      -3.455  12.850  19.956  0.00  0.00    +0.000 OA
ENDBRANCH  28  29
ENDBRANCH  27  28
ENDBRANCH  24  27
ENDBRANCH  20  21
ENDBRANCH   1  20
TORSDOF 9
ENDMDL
MODEL 2
REMARK VINA RESULT:      -8.7      3.521     12.344
REMARK  Name = 
REMARK  9 active torsions:
REMARK  status: ('A' for Active; 'I' for Inactive)
REMARK    1  A    between atoms: C_6  and  C_7
REMARK    2  A    between atoms: N_10  and  C_11
REMARK    3  A    between atoms: C_11  and  C_12
REMARK    4  A    between atoms: C_12  and  C_13
REMARK    5  A    between atoms: C_13  and  O_14
REMARK    6  A    between atoms: O_14  and  C_15
REMARK    7  A    between atoms: C_18  and  C_19
REMARK    8  A    between atoms: C_19  and  C_20
REMARK    9  A    between atoms: C_20  and  C_21
REMARK                            x       y       z     vdW  Elec       q    Type
REMARK                         _______ _______ _______ _____ _____    ______ ____
ROOT
ATOM      1  C   UNL     1       1.256   9.293  19.266  0.00  0.00    +0.000 C 
ENDROOT
BRANCH   1   2
ATOM      2  C   UNL     1       0.204  10.010  20.116  0.00  0.00    +0.000 C 
BRANCH   2   3
ATOM      3  C   UNL     1       0.706  11.329  20.728  0.00  0.00    +0.000 C 
BRANCH   3   7
ATOM      4  C   UNL     1      -2.820  13.101  22.631  0.00  0.00    +0.000 C 
ATOM      5  C   UNL     1      -2.016  13.857  21.557  0.00  0.00    +0.000 C 
ATOM      6  C   UNL     1      -1.090  12.993  20.692  0.00  0.00    +0.000 C 
ATOM      7  N   UNL     1      -0.292  12.076  21.519  0.00  0.00    +0.000 NA
ATOM      8  C   UNL     1      -1.216  11.146  22.191  0.00  0.00    +0.000 C 
ATOM      9  C   UNL     1      -2.060  11.904  23.217  0.00  0.00    +0.000 C 
BRANCH   4  15
ATOM     10  F   UNL     1      -7.204  11.479  17.750  0.00  0.00    +0.000 F 
ATOM     11  C   UNL     1      -6.403  11.796  18.777  0.00  0.00    +0.000 A 
ATOM     12  C   UNL     1      -5.055  12.050  18.528  0.00  0.00    +0.000 A 
ATOM     13  C   UNL     1      -4.183  12.382  19.580  0.00  0.00    +0.000 A 
ATOM     14  C   UNL     1      -4.702  12.455  20.890  0.00  0.00    +0.000 A 
ATOM     15  C   UNL     1      -4.222  12.744  22.207  0.00  0.00    +0.000 A 
ATOM     16  N   UNL     1      -5.212  12.670  23.108  0.00  0.00    +0.000 NA
ATOM     17  O   UNL     1      -6.350  12.324  22.396  0.00  0.00    +0.000 OA
ATOM     18  C   UNL     1      -6.048  12.197  21.077  0.00  0.00    +0.000 A 
ATOM     19  C   UNL     1      -6.942  11.863  20.059  0.00  0.00    +0.000 A 
ENDBRANCH   4  15
ENDBRANCH   3   7
ENDBRANCH   2   3
ENDBRANCH   1   2
BRANCH   1  20
ATOM     20  O   UNL     1       1.921   8.320  20.086  0.00  0.00    +0.000 OA
BRANCH  20  21
ATOM     21  C   UNL     1       1.990   7.043  19.589  0.00  0.00    +0.000 A 
ATOM     22  C   UNL     1       1.744   6.024  20.513  0.00  0.00    +0.000 A 
ATOM     23  C   UNL     1       1.768   4.678  20.123  0.00  0.00    +0.000 A 
ATOM     24  C   UNL     1       2.024   4.327  18.794  0.00  0.00    +0.000 A 
ATOM     25  C   UNL     1       2.256   5.353  17.867  0.00  0.00    +0.000 A 
ATOM     26  C   UNL     1       2.240   6.699  18.262  0.00  0.00    +0.000 A 
BRANCH  24  27
ATOM     27  C   UNL     1       2.014   2.877  18.352  0.00  0.00    +0.000 C 
BRANCH  27  28
ATOM     28  C   UNL     1       3.380   2.213  18.539  0.00  0.00    +0.000 C 
BRANCH  28  29
ATOM     29  C   UNL     1       4.518   3.170  18.433  0.00  0.00    +0.000 A 
ATOM     30  N   UNL     1       5.245   3.712  19.394  0.00  0.00    +0.000 NA
ATOM     31  C   UNL     1       6.021   4.634  18.735  0.00  0.00    +0.000 A 
ATOM     32  C   UNL     1       6.964   5.556  19.210  0.00  0.00    +0.000 A 
ATOM     33  C   UNL     1       7.583   6.413  18.285  0.00  0.00    +0.000 A 
ATOM     34  C   UNL     1       7.282   6.340  16.919  0.00  0.00    +0.000 A 
ATOM     35  C   UNL     1       6.354   5.414  16.426  0.00  0.00    +0.000 A 
ATOM     36  C   UNL     1       5.751   4.594  17.375  0.00  0.00    +0.000 A 
ATOM     37  O   UNL     1       4.791   3.645  17.173  0.00  0.00    +0.000 OA
ENDBRANCH  28  29
ENDBRANCH  27  28
ENDBRANCH  24  27
ENDBRANCH  20  21
ENDBRANCH   1  20
TORSDOF 9
ENDMDL
MODEL 3
REMARK VINA RESULT:      -8.7      4.184     12.654
REMARK  Name = 
REMARK  9 active torsions:
REMARK  status: ('A' for Active; 'I' for Inactive)
REMARK    1  A    between atoms: C_6  and  C_7
REMARK    2  A    between atoms: N_10  and  C_11
REMARK    3  A    between atoms: C_11  and  C_12
REMARK    4  A    between atoms: C_12  and  C_13
REMARK    5  A    between atoms: C_13  and  O_14
REMARK    6  A    between atoms: O_14  and  C_15
REMARK    7  A    between atoms: C_18  and  C_19
REMARK    8  A    between atoms: C_19  and  C_20
REMARK    9  A    between atoms: C_20  and  C_21
REMARK                            x       y       z     vdW  Elec       q    Type
REMARK                         _______ _______ _______ _____ _____    ______ ____
ROOT
ATOM      1  C   UNL     1       0.528   8.042  21.624  0.00  0.00    +0.000 C 
ENDROOT
BRANCH   1   2
ATOM      2  C   UNL     1       0.458   9.486  22.126  0.00  0.00    +0.000 C 
BRANCH   2   3
ATOM      3  C   UNL     1       1.009  10.513  21.121  0.00  0.00    +0.000 C 
BRANCH   3   7
ATOM      4  C   UNL     1      -2.318  13.251  20.331  0.00  0.00    +0.000 C 
ATOM      5  C   UNL     1      -1.556  12.555  19.189  0.00  0.00    +0.000 C 
ATOM      6  C   UNL     1      -0.721  11.335  19.596  0.00  0.00    +0.000 C 
ATOM      7  N   UNL     1       0.093  11.621  20.786  0.00  0.00    +0.000 NA
ATOM      8  C   UNL     1      -0.821  11.890  21.911  0.00  0.00    +0.000 C 
ATOM      9  C   UNL     1      -1.568  13.202  21.670  0.00  0.00    +0.000 C 
BRANCH   4  15
ATOM     10  F   UNL     1      -7.916  12.657  24.071  0.00  0.00    +0.000 F 
ATOM     11  C   UNL     1      -6.851  12.736  23.260  0.00  0.00    +0.000 A 
ATOM     12  C   UNL     1      -5.669  13.287  23.752  0.00  0.00    +0.000 A 
ATOM     13  C   UNL     1      -4.531  13.390  22.933  0.00  0.00    +0.000 A 
ATOM     14  C   UNL     1      -4.612  12.920  21.604  0.00  0.00    +0.000 A 
ATOM     15  C   UNL     1      -3.757  12.820  20.460  0.00  0.00    +0.000 A 
ATOM     16  N   UNL     1      -4.398  12.253  19.428  0.00  0.00    +0.000 NA
ATOM     17  O   UNL     1      -5.682  11.984  19.877  0.00  0.00    +0.000 OA
ATOM     18  C   UNL     1      -5.809  12.379  21.171  0.00  0.00    +0.000 A 
ATOM     19  C   UNL     1      -6.958  12.264  21.955  0.00  0.00    +0.000 A 
ENDBRANCH   4  15
ENDBRANCH   3   7
ENDBRANCH   2   3
ENDBRANCH   1   2
BRANCH   1  20
ATOM     20  O   UNL     1       1.704   7.896  20.814  0.00  0.00    +0.000 OA
BRANCH  20  21
ATOM     21  C   UNL     1       1.804   6.741  20.081  0.00  0.00    +0.000 A 
ATOM     22  C   UNL     1       2.278   6.897  18.776  0.00  0.00    +0.000 A 
ATOM     23  C   UNL     1       2.441   5.789  17.932  0.00  0.00    +0.000 A 
ATOM     24  C   UNL     1       2.147   4.499  18.387  0.00  0.00    +0.000 A 
ATOM     25  C   UNL     1       1.687   4.346  19.703  0.00  0.00    +0.000 A 
ATOM     26  C   UNL     1       1.516   5.458  20.541  0.00  0.00    +0.000 A 
BRANCH  24  27
ATOM     27  C   UNL     1       2.357   3.290  17.499  0.00  0.00    +0.000 C 
BRANCH  27  28
ATOM     28  C   UNL     1       3.681   2.582  17.800  0.00  0.00    +0.000 C 
BRANCH  28  29
ATOM     29  C   UNL     1       4.825   3.523  17.969  0.00  0.00    +0.000 A 
ATOM     30  N   UNL     1       5.486   3.845  19.066  0.00  0.00    +0.000 NA
ATOM     31  C   UNL     1       6.306   4.871  18.664  0.00  0.00    +0.000 A 
ATOM     32  C   UNL     1       7.216   5.662  19.380  0.00  0.00    +0.000 A 
ATOM     33  C   UNL     1       7.896   6.681  18.694  0.00  0.00    +0.000 A 
ATOM     34  C   UNL     1       7.689   6.895  17.326  0.00  0.00    +0.000 A 
ATOM     35  C   UNL     1       6.794   6.104  16.593  0.00  0.00    +0.000 A 
ATOM     36  C   UNL     1       6.128   5.116  17.311  0.00  0.00    +0.000 A 
ATOM     37  O   UNL     1       5.182   4.243  16.854  0.00  0.00    +0.000 OA
ENDBRANCH  28  29
ENDBRANCH  27  28
ENDBRANCH  24  27
ENDBRANCH  20  21
ENDBRANCH   1  20
TORSDOF 9
ENDMDL
MODEL 4
REMARK VINA RESULT:      -8.6      4.950     11.680
REMARK  Name = 
REMARK  9 active torsions:
REMARK  status: ('A' for Active; 'I' for Inactive)
REMARK    1  A    between atoms: C_6  and  C_7
REMARK    2  A    between atoms: N_10  and  C_11
REMARK    3  A    between atoms: C_11  and  C_12
REMARK    4  A    between atoms: C_12  and  C_13
REMARK    5  A    between atoms: C_13  and  O_14
REMARK    6  A    between atoms: O_14  and  C_15
REMARK    7  A    between atoms: C_18  and  C_19
REMARK    8  A    between atoms: C_19  and  C_20
REMARK    9  A    between atoms: C_20  and  C_21
REMARK                            x       y       z     vdW  Elec       q    Type
REMARK                         _______ _______ _______ _____ _____    ______ ____
ROOT
ATOM      1  C   UNL     1       1.415   8.890  20.250  0.00  0.00    +0.000 C 
ENDROOT
BRANCH   1   2
ATOM      2  C   UNL     1       1.015   9.926  21.303  0.00  0.00    +0.000 C 
BRANCH   2   3
ATOM      3  C   UNL     1       0.583  11.275  20.704  0.00  0.00    +0.000 C 
BRANCH   3   7
ATOM      4  C   UNL     1       3.205  14.233  18.816  0.00  0.00    +0.000 C 
ATOM      5  C   UNL     1       2.639  13.037  18.029  0.00  0.00    +0.000 C 
ATOM      6  C   UNL     1       1.434  12.335  18.667  0.00  0.00    +0.000 C 
ATOM      7  N   UNL     1       1.667  12.071  20.095  0.00  0.00    +0.000 NA
ATOM      8  C   UNL     1       1.801  13.367  20.783  0.00  0.00    +0.000 C 
ATOM      9  C   UNL     1       3.090  14.060  20.337  0.00  0.00    +0.000 C 
BRANCH   4  15
ATOM     10  F   UNL     1      -1.892  18.621  18.148  0.00  0.00    +0.000 F 
ATOM     11  C   UNL     1      -0.827  17.811  18.239  0.00  0.00    +0.000 A 
ATOM     12  C   UNL     1      -0.980  16.560  18.834  0.00  0.00    +0.000 A 
ATOM     13  C   UNL     1       0.112  15.683  18.950  0.00  0.00    +0.000 A 
ATOM     14  C   UNL     1       1.365  16.097  18.449  0.00  0.00    +0.000 A 
ATOM     15  C   UNL     1       2.693  15.572  18.348  0.00  0.00    +0.000 A 
ATOM     16  N   UNL     1       3.511  16.444  17.740  0.00  0.00    +0.000 NA
ATOM     17  O   UNL     1       2.734  17.554  17.446  0.00  0.00    +0.000 OA
ATOM     18  C   UNL     1       1.458  17.348  17.866  0.00  0.00    +0.000 A 
ATOM     19  C   UNL     1       0.397  18.244  17.735  0.00  0.00    +0.000 A 
ENDBRANCH   4  15
ENDBRANCH   3   7
ENDBRANCH   2   3
ENDBRANCH   1   2
BRANCH   1  20
ATOM     20  O   UNL     1       1.455   7.597  20.872  0.00  0.00    +0.000 OA
BRANCH  20  21
ATOM     21  C   UNL     1       1.702   6.528  20.049  0.00  0.00    +0.000 A 
ATOM     22  C   UNL     1       1.489   5.270  20.618  0.00  0.00    +0.000 A 
ATOM     23  C   UNL     1       1.689   4.099  19.873  0.00  0.00    +0.000 A 
ATOM     24  C   UNL     1       2.093   4.168  18.536  0.00  0.00    +0.000 A 
ATOM     25  C   UNL     1       2.291   5.433  17.964  0.00  0.00    +0.000 A 
ATOM     26  C   UNL     1       2.098   6.602  18.716  0.00  0.00    +0.000 A 
BRANCH  24  27
ATOM     27  C   UNL     1       2.274   2.912  17.708  0.00  0.00    +0.000 C 
BRANCH  27  28
ATOM     28  C   UNL     1       3.645   2.270  17.936  0.00  0.00    +0.000 C 
BRANCH  28  29
ATOM     29  C   UNL     1       4.749   3.266  18.045  0.00  0.00    +0.000 A 
ATOM     30  N   UNL     1       5.381   3.696  19.122  0.00  0.00    +0.000 NA
ATOM     31  C   UNL     1       6.167   4.720  18.651  0.00  0.00    +0.000 A 
ATOM     32  C   UNL     1       7.035   5.599  19.315  0.00  0.00    +0.000 A 
ATOM     33  C   UNL     1       7.685   6.589  18.560  0.00  0.00    +0.000 A 
ATOM     34  C   UNL     1       7.489   6.690  17.177  0.00  0.00    +0.000 A 
ATOM     35  C   UNL     1       6.636   5.811  16.497  0.00  0.00    +0.000 A 
ATOM     36  C   UNL     1       5.999   4.854  17.281  0.00  0.00    +0.000 A 
ATOM     37  O   UNL     1       5.094   3.913  16.883  0.00  0.00    +0.000 OA
ENDBRANCH  28  29
ENDBRANCH  27  28
ENDBRANCH  24  27
ENDBRANCH  20  21
ENDBRANCH   1  20
TORSDOF 9
ENDMDL
MODEL 5
REMARK VINA RESULT:      -8.5      3.282     12.756
REMARK  Name = 
REMARK  9 active torsions:
REMARK  status: ('A' for Active; 'I' for Inactive)
REMARK    1  A    between atoms: C_6  and  C_7
REMARK    2  A    between atoms: N_10  and  C_11
REMARK    3  A    between atoms: C_11  and  C_12
REMARK    4  A    between atoms: C_12  and  C_13
REMARK    5  A    between atoms: C_13  and  O_14
REMARK    6  A    between atoms: O_14  and  C_15
REMARK    7  A    between atoms: C_18  and  C_19
REMARK    8  A    between atoms: C_19  and  C_20
REMARK    9  A    between atoms: C_20  and  C_21
REMARK                            x       y       z     vdW  Elec       q    Type
REMARK                         _______ _______ _______ _____ _____    ______ ____
ROOT
ATOM      1  C   UNL     1      -0.097   9.870  19.838  0.00  0.00    +0.000 C 
ENDROOT
BRANCH   1   2
ATOM      2  C   UNL     1       0.100  11.374  19.640  0.00  0.00    +0.000 C 
BRANCH   2   3
ATOM      3  C   UNL     1       0.534  12.109  20.920  0.00  0.00    +0.000 C 
BRANCH   3   7
ATOM      4  C   UNL     1      -3.224  13.340  22.806  0.00  0.00    +0.000 C 
ATOM      5  C   UNL     1      -2.498  14.240  21.790  0.00  0.00    +0.000 C 
ATOM      6  C   UNL     1      -1.454  13.540  20.911  0.00  0.00    +0.000 C 
ATOM      7  N   UNL     1      -0.565  12.689  21.718  0.00  0.00    +0.000 NA
ATOM      8  C   UNL     1      -1.381  11.621  22.321  0.00  0.00    +0.000 C 
ATOM      9  C   UNL     1      -2.334  12.218  23.358  0.00  0.00    +0.000 C 
BRANCH   4  15
ATOM     10  F   UNL     1      -7.182  11.165  17.777  0.00  0.00    +0.000 F 
ATOM     11  C   UNL     1      -6.467  11.586  18.831  0.00  0.00    +0.000 A 
ATOM     12  C   UNL     1      -5.140  11.967  18.637  0.00  0.00    +0.000 A 
ATOM     13  C   UNL     1      -4.358  12.411  19.717  0.00  0.00    +0.000 A 
ATOM     14  C   UNL     1      -4.946  12.465  20.999  0.00  0.00    +0.000 A 
ATOM     15  C   UNL     1      -4.562  12.834  22.329  0.00  0.00    +0.000 A 
ATOM     16  N   UNL     1      -5.583  12.684  23.184  0.00  0.00    +0.000 NA
ATOM     17  O   UNL     1      -6.645  12.208  22.431  0.00  0.00    +0.000 OA
ATOM     18  C   UNL     1      -6.267  12.079  21.131  0.00  0.00    +0.000 A 
ATOM     19  C   UNL     1      -7.073  11.631  20.084  0.00  0.00    +0.000 A 
ENDBRANCH   4  15
ENDBRANCH   3   7
ENDBRANCH   2   3
ENDBRANCH   1   2
BRANCH   1  20
ATOM     20  O   UNL     1       1.065   9.337  20.491  0.00  0.00    +0.000 OA
BRANCH  20  21
ATOM     21  C   UNL     1       1.691   8.286  19.870  0.00  0.00    +0.000 A 
ATOM     22  C   UNL     1       2.074   8.512  18.546  0.00  0.00    +0.000 A 
ATOM     23  C   UNL     1       2.737   7.521  17.809  0.00  0.00    +0.000 A 
ATOM     24  C   UNL     1       3.043   6.287  18.393  0.00  0.00    +0.000 A 
ATOM     25  C   UNL     1       2.670   6.070  19.727  0.00  0.00    +0.000 A 
ATOM     26  C   UNL     1       1.999   7.061  20.458  0.00  0.00    +0.000 A 
BRANCH  24  27
ATOM     27  C   UNL     1       3.795   5.222  17.621  0.00  0.00    +0.000 C 
BRANCH  27  28
ATOM     28  C   UNL     1       5.297   5.513  17.559  0.00  0.00    +0.000 C 
BRANCH  28  29
ATOM     29  C   UNL     1       5.911   5.157  16.248  0.00  0.00    +0.000 A 
ATOM     30  N   UNL     1       6.984   5.659  15.665  0.00  0.00    +0.000 NA
ATOM     31  C   UNL     1       6.976   5.086  14.417  0.00  0.00    +0.000 A 
ATOM     32  C   UNL     1       7.830   5.254  13.317  0.00  0.00    +0.000 A 
ATOM     33  C   UNL     1       7.542   4.549  12.137  0.00  0.00    +0.000 A 
ATOM     34  C   UNL     1       6.441   3.687  12.059  0.00  0.00    +0.000 A 
ATOM     35  C   UNL     1       5.587   3.497  13.153  0.00  0.00    +0.000 A 
ATOM     36  C   UNL     1       5.896   4.224  14.299  0.00  0.00    +0.000 A 
ATOM     37  O   UNL     1       5.212   4.257  15.480  0.00  0.00    +0.000 OA
ENDBRANCH  28  29
ENDBRANCH  27  28
ENDBRANCH  24  27
ENDBRANCH  20  21
ENDBRANCH   1  20
TORSDOF 9
ENDMDL
MODEL 6
REMARK VINA RESULT:      -8.4      3.567     12.411
REMARK  Name = 
REMARK  9 active torsions:
REMARK  status: ('A' for Active; 'I' for Inactive)
REMARK    1  A    between atoms: C_6  and  C_7
REMARK    2  A    between atoms: N_10  and  C_11
REMARK    3  A    between atoms: C_11  and  C_12
REMARK    4  A    between atoms: C_12  and  C_13
REMARK    5  A    between atoms: C_13  and  O_14
REMARK    6  A    between atoms: O_14  and  C_15
REMARK    7  A    between atoms: C_18  and  C_19
REMARK    8  A    between atoms: C_19  and  C_20
REMARK    9  A    between atoms: C_20  and  C_21
REMARK                            x       y       z     vdW  Elec       q    Type
REMARK                         _______ _______ _______ _____ _____    ______ ____
ROOT
ATOM      1  C   UNL     1       1.092   8.546  20.384  0.00  0.00    +0.000 C 
ENDROOT
BRANCH   1   2
ATOM      2  C   UNL     1       0.011   9.048  21.344  0.00  0.00    +0.000 C 
BRANCH   2   3
ATOM      3  C   UNL     1       0.484  10.192  22.256  0.00  0.00    +0.000 C 
BRANCH   3   7
ATOM      4  C   UNL     1      -2.772  13.122  22.232  0.00  0.00    +0.000 C 
ATOM      5  C   UNL     1      -1.796  12.989  21.049  0.00  0.00    +0.000 C 
ATOM      6  C   UNL     1      -0.992  11.685  20.996  0.00  0.00    +0.000 C 
ATOM      7  N   UNL     1      -0.407  11.368  22.308  0.00  0.00    +0.000 NA
ATOM      8  C   UNL     1      -1.512  11.134  23.255  0.00  0.00    +0.000 C 
ATOM      9  C   UNL     1      -2.263  12.442  23.510  0.00  0.00    +0.000 C 
BRANCH   4  15
ATOM     10  F   UNL     1      -7.462  11.529  17.633  0.00  0.00    +0.000 F 
ATOM     11  C   UNL     1      -6.595  11.835  18.609  0.00  0.00    +0.000 A 
ATOM     12  C   UNL     1      -5.276  12.136  18.271  0.00  0.00    +0.000 A 
ATOM     13  C   UNL     1      -4.338  12.461  19.266  0.00  0.00    +0.000 A 
ATOM     14  C   UNL     1      -4.761  12.477  20.612  0.00  0.00    +0.000 A 
ATOM     15  C   UNL     1      -4.192  12.737  21.900  0.00  0.00    +0.000 A 
ATOM     16  N   UNL     1      -5.111  12.606  22.868  0.00  0.00    +0.000 NA
ATOM     17  O   UNL     1      -6.289  12.249  22.230  0.00  0.00    +0.000 OA
ATOM     18  C   UNL     1      -6.082  12.174  20.889  0.00  0.00    +0.000 A 
ATOM     19  C   UNL     1      -7.039  11.846  19.928  0.00  0.00    +0.000 A 
ENDBRANCH   4  15
ENDBRANCH   3   7
ENDBRANCH   2   3
ENDBRANCH   1   2
BRANCH   1  20
ATOM     20  O   UNL     1       1.739   7.409  20.977  0.00  0.00    +0.000 OA
BRANCH  20  21
ATOM     21  C   UNL     1       1.900   6.308  20.175  0.00  0.00    +0.000 A 
ATOM     22  C   UNL     1       1.877   5.077  20.834  0.00  0.00    +0.000 A 
ATOM     23  C   UNL     1       2.015   3.876  20.123  0.00  0.00    +0.000 A 
ATOM     24  C   UNL     1       2.163   3.888  18.732  0.00  0.00    +0.000 A 
ATOM     25  C   UNL     1       2.170   5.126  18.073  0.00  0.00    +0.000 A 
ATOM     26  C   UNL     1       2.041   6.325  18.789  0.00  0.00    +0.000 A 
BRANCH  24  27
ATOM     27  C   UNL     1       2.272   2.596  17.946  0.00  0.00    +0.000 C 
BRANCH  27  28
ATOM     28  C   UNL     1       3.725   2.254  17.609  0.00  0.00    +0.000 C 
BRANCH  28  29
ATOM     29  C   UNL     1       4.623   3.444  17.599  0.00  0.00    +0.000 A 
ATOM     30  N   UNL     1       4.994   4.201  16.582  0.00  0.00    +0.000 NA
ATOM     31  C   UNL     1       5.948   5.028  17.122  0.00  0.00    +0.000 A 
ATOM     32  C   UNL     1       6.747   6.021  16.539  0.00  0.00    +0.000 A 
ATOM     33  C   UNL     1       7.681   6.687  17.350  0.00  0.00    +0.000 A 
ATOM     34  C   UNL     1       7.804   6.382  18.712  0.00  0.00    +0.000 A 
ATOM     35  C   UNL     1       7.003   5.402  19.313  0.00  0.00    +0.000 A 
ATOM     36  C   UNL     1       6.101   4.755  18.473  0.00  0.00    +0.000 A 
ATOM     37  O   UNL     1       5.242   3.742  18.789  0.00  0.00    +0.000 OA
ENDBRANCH  28  29
ENDBRANCH  27  28
ENDBRANCH  24  27
ENDBRANCH  20  21
ENDBRANCH   1  20
TORSDOF 9
ENDMDL
MODEL 7
REMARK VINA RESULT:      -8.4      4.417     12.507
REMARK  Name = 
REMARK  9 active torsions:
REMARK  status: ('A' for Active; 'I' for Inactive)
REMARK    1  A    between atoms: C_6  and  C_7
REMARK    2  A    between atoms: N_10  and  C_11
REMARK    3  A    between atoms: C_11  and  C_12
REMARK    4  A    between atoms: C_12  and  C_13
REMARK    5  A    between atoms: C_13  and  O_14
REMARK    6  A    between atoms: O_14  and  C_15
REMARK    7  A    between atoms: C_18  and  C_19
REMARK    8  A    between atoms: C_19  and  C_20
REMARK    9  A    between atoms: C_20  and  C_21
REMARK                            x       y       z     vdW  Elec       q    Type
REMARK                         _______ _______ _______ _____ _____    ______ ____
ROOT
ATOM      1  C   UNL     1       1.285   8.412  21.495  0.00  0.00    +0.000 C 
ENDROOT
BRANCH   1   2
ATOM      2  C   UNL     1       0.427   9.655  21.247  0.00  0.00    +0.000 C 
BRANCH   2   3
ATOM      3  C   UNL     1       0.768  10.383  19.935  0.00  0.00    +0.000 C 
BRANCH   3   7
ATOM      4  C   UNL     1      -0.811  14.434  20.469  0.00  0.00    +0.000 C 
ATOM      5  C   UNL     1      -1.296  13.523  19.328  0.00  0.00    +0.000 C 
ATOM      6  C   UNL     1      -0.992  12.029  19.497  0.00  0.00    +0.000 C 
ATOM      7  N   UNL     1       0.407  11.814  19.897  0.00  0.00    +0.000 NA
ATOM      8  C   UNL     1       0.603  12.429  21.222  0.00  0.00    +0.000 C 
ATOM      9  C   UNL     1       0.498  13.950  21.109  0.00  0.00    +0.000 C 
BRANCH   4  15
ATOM     10  F   UNL     1      -4.981  12.380  25.375  0.00  0.00    +0.000 F 
ATOM     11  C   UNL     1      -4.186  12.871  24.413  0.00  0.00    +0.000 A 
ATOM     12  C   UNL     1      -3.326  12.005  23.740  0.00  0.00    +0.000 A 
ATOM     13  C   UNL     1      -2.477  12.482  22.727  0.00  0.00    +0.000 A 
ATOM     14  C   UNL     1      -2.516  13.856  22.405  0.00  0.00    +0.000 A 
ATOM     15  C   UNL     1      -1.871  14.751  21.493  0.00  0.00    +0.000 A 
ATOM     16  N   UNL     1      -2.337  16.001  21.634  0.00  0.00    +0.000 NA
ATOM     17  O   UNL     1      -3.284  15.943  22.644  0.00  0.00    +0.000 OA
ATOM     18  C   UNL     1      -3.392  14.668  23.103  0.00  0.00    +0.000 A 
ATOM     19  C   UNL     1      -4.247  14.230  24.114  0.00  0.00    +0.000 A 
ENDBRANCH   4  15
ENDBRANCH   3   7
ENDBRANCH   2   3
ENDBRANCH   1   2
BRANCH   1  20
ATOM     20  O   UNL     1       2.072   8.157  20.322  0.00  0.00    +0.000 OA
BRANCH  20  21
ATOM     21  C   UNL     1       2.031   6.881  19.821  0.00  0.00    +0.000 A 
ATOM     22  C   UNL     1       2.251   6.768  18.446  0.00  0.00    +0.000 A 
ATOM     23  C   UNL     1       2.252   5.515  17.817  0.00  0.00    +0.000 A 
ATOM     24  C   UNL     1       2.048   4.347  18.560  0.00  0.00    +0.000 A 
ATOM     25  C   UNL     1       1.843   4.464  19.942  0.00  0.00    +0.000 A 
ATOM     26  C   UNL     1       1.834   5.721  20.566  0.00  0.00    +0.000 A 
BRANCH  24  27
ATOM     27  C   UNL     1       2.086   2.984  17.899  0.00  0.00    +0.000 C 
BRANCH  27  28
ATOM     28  C   UNL     1       3.432   2.286  18.106  0.00  0.00    +0.000 C 
BRANCH  28  29
ATOM     29  C   UNL     1       4.583   3.232  18.156  0.00  0.00    +0.000 A 
ATOM     30  N   UNL     1       5.277   3.648  19.200  0.00  0.00    +0.000 NA
ATOM     31  C   UNL     1       6.088   4.629  18.683  0.00  0.00    +0.000 A 
ATOM     32  C   UNL     1       7.020   5.477  19.298  0.00  0.00    +0.000 A 
ATOM     33  C   UNL     1       7.683   6.426  18.503  0.00  0.00    +0.000 A 
ATOM     34  C   UNL     1       7.436   6.516  17.127  0.00  0.00    +0.000 A 
ATOM     35  C   UNL     1       6.519   5.667  16.495  0.00  0.00    +0.000 A 
ATOM     36  C   UNL     1       5.871   4.751  17.319  0.00  0.00    +0.000 A 
ATOM     37  O   UNL     1       4.910   3.846  16.971  0.00  0.00    +0.000 OA
ENDBRANCH  28  29
ENDBRANCH  27  28
ENDBRANCH  24  27
ENDBRANCH  20  21
ENDBRANCH   1  20
TORSDOF 9
ENDMDL
MODEL 8
REMARK VINA RESULT:      -8.4      3.782      5.316
REMARK  Name = 
REMARK  9 active torsions:
REMARK  status: ('A' for Active; 'I' for Inactive)
REMARK    1  A    between atoms: C_6  and  C_7
REMARK    2  A    between atoms: N_10  and  C_11
REMARK    3  A    between atoms: C_11  and  C_12
REMARK    4  A    between atoms: C_12  and  C_13
REMARK    5  A    between atoms: C_13  and  O_14
REMARK    6  A    between atoms: O_14  and  C_15
REMARK    7  A    between atoms: C_18  and  C_19
REMARK    8  A    between atoms: C_19  and  C_20
REMARK    9  A    between atoms: C_20  and  C_21
REMARK                            x       y       z     vdW  Elec       q    Type
REMARK                         _______ _______ _______ _____ _____    ______ ____
ROOT
ATOM      1  C   UNL     1       2.111   5.305  21.065  0.00  0.00    +0.000 C 
ENDROOT
BRANCH   1   2
ATOM      2  C   UNL     1       1.029   4.373  20.515  0.00  0.00    +0.000 C 
BRANCH   2   3
ATOM      3  C   UNL     1       1.537   2.953  20.214  0.00  0.00    +0.000 C 
BRANCH   3   7
ATOM      4  C   UNL     1       4.408   3.397  16.935  0.00  0.00    +0.000 C 
ATOM      5  C   UNL     1       2.891   3.509  16.700  0.00  0.00    +0.000 C 
ATOM      6  C   UNL     1       2.042   3.752  17.954  0.00  0.00    +0.000 C 
ATOM      7  N   UNL     1       2.426   2.837  19.041  0.00  0.00    +0.000 NA
ATOM      8  C   UNL     1       3.818   3.137  19.419  0.00  0.00    +0.000 C 
ATOM      9  C   UNL     1       4.761   2.748  18.280  0.00  0.00    +0.000 C 
BRANCH   4  15
ATOM     10  F   UNL     1       8.956   7.954  18.991  0.00  0.00    +0.000 F 
ATOM     11  C   UNL     1       8.040   7.101  18.509  0.00  0.00    +0.000 A 
ATOM     12  C   UNL     1       7.719   5.966  19.252  0.00  0.00    +0.000 A 
ATOM     13  C   UNL     1       6.766   5.047  18.779  0.00  0.00    +0.000 A 
ATOM     14  C   UNL     1       6.141   5.300  17.539  0.00  0.00    +0.000 A 
ATOM     15  C   UNL     1       5.160   4.682  16.699  0.00  0.00    +0.000 A 
ATOM     16  N   UNL     1       4.944   5.411  15.595  0.00  0.00    +0.000 NA
ATOM     17  O   UNL     1       5.786   6.509  15.691  0.00  0.00    +0.000 OA
ATOM     18  C   UNL     1       6.497   6.444  16.848  0.00  0.00    +0.000 A 
ATOM     19  C   UNL     1       7.438   7.376  17.284  0.00  0.00    +0.000 A 
ENDBRANCH   4  15
ENDBRANCH   3   7
ENDBRANCH   2   3
ENDBRANCH   1   2
BRANCH   1  20
ATOM     20  O   UNL     1       2.404   6.301  20.073  0.00  0.00    +0.000 OA
BRANCH  20  21
ATOM     21  C   UNL     1       1.748   7.499  20.193  0.00  0.00    +0.000 A 
ATOM     22  C   UNL     1       1.755   8.305  19.053  0.00  0.00    +0.000 A 
ATOM     23  C   UNL     1       1.103   9.546  19.044  0.00  0.00    +0.000 A 
ATOM     24  C   UNL     1       0.417   9.996  20.177  0.00  0.00    +0.000 A 
ATOM     25  C   UNL     1       0.400   9.177  21.315  0.00  0.00    +0.000 A 
ATOM     26  C   UNL     1       1.061   7.940  21.322  0.00  0.00    +0.000 A 
BRANCH  24  27
ATOM     27  C   UNL     1      -0.326  11.318  20.168  0.00  0.00    +0.000 C 
BRANCH  27  28
ATOM     28  C   UNL     1       0.473  12.427  20.857  0.00  0.00    +0.000 C 
BRANCH  28  29
ATOM     29  C   UNL     1       1.109  13.376  19.898  0.00  0.00    +0.000 A 
ATOM     30  N   UNL     1       2.266  13.277  19.270  0.00  0.00    +0.000 NA
ATOM     31  C   UNL     1       2.414  14.501  18.665  0.00  0.00    +0.000 A 
ATOM     32  C   UNL     1       3.457  15.029  17.890  0.00  0.00    +0.000 A 
ATOM     33  C   UNL     1       3.342  16.352  17.431  0.00  0.00    +0.000 A 
ATOM     34  C   UNL     1       2.209  17.122  17.722  0.00  0.00    +0.000 A 
ATOM     35  C   UNL     1       1.152  16.605  18.482  0.00  0.00    +0.000 A 
ATOM     36  C   UNL     1       1.310  15.297  18.931  0.00  0.00    +0.000 A 
ATOM     37  O   UNL     1       0.460  14.574  19.717  0.00  0.00    +0.000 OA
ENDBRANCH  28  29
ENDBRANCH  27  28
ENDBRANCH  24  27
ENDBRANCH  20  21
ENDBRANCH   1  20
TORSDOF 9
ENDMDL
MODEL 9
REMARK VINA RESULT:      -8.3      4.526     11.097
REMARK  Name = 
REMARK  9 active torsions:
REMARK  status: ('A' for Active; 'I' for Inactive)
REMARK    1  A    between atoms: C_6  and  C_7
REMARK    2  A    between atoms: N_10  and  C_11
REMARK    3  A    between atoms: C_11  and  C_12
REMARK    4  A    between atoms: C_12  and  C_13
REMARK    5  A    between atoms: C_13  and  O_14
REMARK    6  A    between atoms: O_14  and  C_15
REMARK    7  A    between atoms: C_18  and  C_19
REMARK    8  A    between atoms: C_19  and  C_20
REMARK    9  A    between atoms: C_20  and  C_21
REMARK                            x       y       z     vdW  Elec       q    Type
REMARK                         _______ _______ _______ _____ _____    ______ ____
ROOT
ATOM      1  C   UNL     1       0.257   8.587  21.269  0.00  0.00    +0.000 C 
ENDROOT
BRANCH   1   2
ATOM      2  C   UNL     1       0.489   9.912  22.000  0.00  0.00    +0.000 C 
BRANCH   2   3
ATOM      3  C   UNL     1      -0.498  11.018  21.591  0.00  0.00    +0.000 C 
BRANCH   3   7
ATOM      4  C   UNL     1       1.082  13.835  18.631  0.00  0.00    +0.000 C 
ATOM      5  C   UNL     1      -0.380  13.901  19.109  0.00  0.00    +0.000 C 
ATOM      6  C   UNL     1      -0.684  13.159  20.416  0.00  0.00    +0.000 C 
ATOM      7  N   UNL     1      -0.107  11.806  20.405  0.00  0.00    +0.000 NA
ATOM      8  C   UNL     1       1.359  11.936  20.336  0.00  0.00    +0.000 C 
ATOM      9  C   UNL     1       1.766  12.505  18.976  0.00  0.00    +0.000 C 
BRANCH   4  15
ATOM     10  F   UNL     1       7.037  17.029  18.722  0.00  0.00    +0.000 F 
ATOM     11  C   UNL     1       5.820  16.466  18.750  0.00  0.00    +0.000 A 
ATOM     12  C   UNL     1       5.643  15.215  18.160  0.00  0.00    +0.000 A 
ATOM     13  C   UNL     1       4.382  14.593  18.167  0.00  0.00    +0.000 A 
ATOM     14  C   UNL     1       3.303  15.260  18.785  0.00  0.00    +0.000 A 
ATOM     15  C   UNL     1       1.911  15.030  19.027  0.00  0.00    +0.000 A 
ATOM     16  N   UNL     1       1.364  16.052  19.701  0.00  0.00    +0.000 NA
ATOM     17  O   UNL     1       2.385  16.968  19.900  0.00  0.00    +0.000 OA
ATOM     18  C   UNL     1       3.539  16.497  19.357  0.00  0.00    +0.000 A 
ATOM     19  C   UNL     1       4.774  17.145  19.368  0.00  0.00    +0.000 A 
ENDBRANCH   4  15
ENDBRANCH   3   7
ENDBRANCH   2   3
ENDBRANCH   1   2
BRANCH   1  20
ATOM     20  O   UNL     1       1.409   7.752  21.460  0.00  0.00    +0.000 OA
BRANCH  20  21
ATOM     21  C   UNL     1       1.693   6.860  20.457  0.00  0.00    +0.000 A 
ATOM     22  C   UNL     1       1.507   5.514  20.778  0.00  0.00    +0.000 A 
ATOM     23  C   UNL     1       1.747   4.507  19.832  0.00  0.00    +0.000 A 
ATOM     24  C   UNL     1       2.165   4.835  18.537  0.00  0.00    +0.000 A 
ATOM     25  C   UNL     1       2.336   6.188  18.215  0.00  0.00    +0.000 A 
ATOM     26  C   UNL     1       2.103   7.192  19.167  0.00  0.00    +0.000 A 
BRANCH  24  27
ATOM     27  C   UNL     1       2.390   3.759  17.494  0.00  0.00    +0.000 C 
BRANCH  27  28
ATOM     28  C   UNL     1       3.697   2.998  17.729  0.00  0.00    +0.000 C 
BRANCH  28  29
ATOM     29  C   UNL     1       4.875   3.893  17.906  0.00  0.00    +0.000 A 
ATOM     30  N   UNL     1       5.717   3.974  18.920  0.00  0.00    +0.000 NA
ATOM     31  C   UNL     1       6.483   5.075  18.621  0.00  0.00    +0.000 A 
ATOM     32  C   UNL     1       7.518   5.701  19.330  0.00  0.00    +0.000 A 
ATOM     33  C   UNL     1       8.099   6.855  18.780  0.00  0.00    +0.000 A 
ATOM     34  C   UNL     1       7.670   7.364  17.548  0.00  0.00    +0.000 A 
ATOM     35  C   UNL     1       6.647   6.742  16.820  0.00  0.00    +0.000 A 
ATOM     36  C   UNL     1       6.087   5.610  17.405  0.00  0.00    +0.000 A 
ATOM     37  O   UNL     1       5.058   4.847  16.934  0.00  0.00    +0.000 OA
ENDBRANCH  28  29
ENDBRANCH  27  28
ENDBRANCH  24  27
ENDBRANCH  20  21
ENDBRANCH   1  20
TORSDOF 9
ENDMDL
