MODEL 1
REMARK VINA RESULT:      -6.9      0.000      0.000
REMARK  Name = 
REMARK  3 active torsions:
REMARK  status: ('A' for Active; 'I' for Inactive)
REMARK    1  A    between atoms: C_1  and  C_2
REMARK    2  A    between atoms: C_2  and  C_3
REMARK    3  A    between atoms: C_14  and  C_15
REMARK                            x       y       z     vdW  Elec       q    Type
REMARK                         _______ _______ _______ _____ _____    ______ ____
ROOT
ATOM      1  C   UNL     1      -1.674  11.081  19.337  0.00  0.00    +0.000 C 
ATOM      2  C   UNL     1      -0.406  11.677  19.982  0.00  0.00    +0.000 C 
ATOM      3  C   UNL     1      -0.537  13.213  20.064  0.00  0.00    +0.000 C 
ATOM      4  C   UNL     1       0.823  11.434  19.044  0.00  0.00    +0.000 C 
ATOM      5  C   UNL     1       1.303  10.006  19.022  0.00  0.00    +0.000 A 
ATOM      6  C   UNL     1       1.889   9.458  17.875  0.00  0.00    +0.000 A 
ATOM      7  C   UNL     1       2.364   8.148  17.899  0.00  0.00    +0.000 A 
ATOM      8  C   UNL     1       2.272   7.392  19.067  0.00  0.00    +0.000 A 
ATOM      9  C   UNL     1       1.709   7.941  20.219  0.00  0.00    +0.000 A 
ATOM     10  C   UNL     1       1.220   9.250  20.203  0.00  0.00    +0.000 A 
ATOM     11  C   UNL     1       0.603   9.867  21.368  0.00  0.00    +0.000 A 
ATOM     12  N   UNL     1       0.653   9.487  22.626  0.00  0.00    +0.000 NA
ATOM     13  N   UNL     1      -0.097  10.369  23.362  0.00  0.00    +0.000 NA
ATOM     14  C   UNL     1      -0.640  11.247  22.540  0.00  0.00    +0.000 A 
ATOM     15  N   UNL     1      -0.171  11.013  21.272  0.00  0.00    +0.000 N 
ENDROOT
BRANCH  14  16
ATOM     16  C   UNL     1      -1.563  12.247  22.976  0.00  0.00    +0.000 A 
ATOM     17  C   UNL     1      -2.948  12.205  22.930  0.00  0.00    +0.000 A 
ATOM     18  C   UNL     1      -3.428  13.415  23.487  0.00  0.00    +0.000 A 
ATOM     19  C   UNL     1      -2.314  14.145  23.816  0.00  0.00    +0.000 A 
ATOM     20  O   UNL     1      -1.189  13.462  23.490  0.00  0.00    +0.000 OA
ENDBRANCH  14  16
TORSDOF 1
ENDMDL
MODEL 2
REMARK VINA RESULT:      -6.7      0.973      1.128
REMARK  Name = 
REMARK  3 active torsions:
REMARK  status: ('A' for Active; 'I' for Inactive)
REMARK    1  A    between atoms: C_1  and  C_2
REMARK    2  A    between atoms: C_2  and  C_3
REMARK    3  A    between atoms: C_14  and  C_15
REMARK                            x       y       z     vdW  Elec       q    Type
REMARK                         _______ _______ _______ _____ _____    ______ ____
ROOT
ATOM      1  C   UNL     1      -1.430  10.402  18.924  0.00  0.00    +0.000 C 
ATOM      2  C   UNL     1      -0.173  11.079  19.509  0.00  0.00    +0.000 C 
ATOM      3  C   UNL     1      -0.266  12.607  19.314  0.00  0.00    +0.000 C 
ATOM      4  C   UNL     1       1.085  10.650  18.681  0.00  0.00    +0.000 C 
ATOM      5  C   UNL     1       1.527   9.232  18.930  0.00  0.00    +0.000 A 
ATOM      6  C   UNL     1       2.143   8.479  17.923  0.00  0.00    +0.000 A 
ATOM      7  C   UNL     1       2.582   7.184  18.197  0.00  0.00    +0.000 A 
ATOM      8  C   UNL     1       2.425   6.648  19.474  0.00  0.00    +0.000 A 
ATOM      9  C   UNL     1       1.832   7.403  20.488  0.00  0.00    +0.000 A 
ATOM     10  C   UNL     1       1.379   8.697  20.221  0.00  0.00    +0.000 A 
ATOM     11  C   UNL     1       0.734   9.522  21.232  0.00  0.00    +0.000 A 
ATOM     12  N   UNL     1       0.726   9.368  22.539  0.00  0.00    +0.000 NA
ATOM     13  N   UNL     1      -0.028  10.381  23.076  0.00  0.00    +0.000 NA
ATOM     14  C   UNL     1      -0.516  11.111  22.090  0.00  0.00    +0.000 A 
ATOM     15  N   UNL     1      -0.004  10.648  20.904  0.00  0.00    +0.000 N 
ENDROOT
BRANCH  14  16
ATOM     16  C   UNL     1      -1.428  12.190  22.305  0.00  0.00    +0.000 A 
ATOM     17  C   UNL     1      -1.239  13.324  23.078  0.00  0.00    +0.000 A 
ATOM     18  C   UNL     1      -2.411  14.111  22.974  0.00  0.00    +0.000 A 
ATOM     19  C   UNL     1      -3.266  13.404  22.168  0.00  0.00    +0.000 A 
ATOM     20  O   UNL     1      -2.694  12.237  21.781  0.00  0.00    +0.000 OA
ENDBRANCH  14  16
TORSDOF 1
ENDMDL
MODEL 3
REMARK VINA RESULT:      -6.5      1.863      2.611
REMARK  Name = 
REMARK  3 active torsions:
REMARK  status: ('A' for Active; 'I' for Inactive)
REMARK    1  A    between atoms: C_1  and  C_2
REMARK    2  A    between atoms: C_2  and  C_3
REMARK    3  A    between atoms: C_14  and  C_15
REMARK                            x       y       z     vdW  Elec       q    Type
REMARK                         _______ _______ _______ _____ _____    ______ ____
ROOT
ATOM      1  C   UNL     1      -0.095   9.673  18.119  0.00  0.00    +0.000 C 
ATOM      2  C   UNL     1       1.262   9.990  18.781  0.00  0.00    +0.000 C 
ATOM      3  C   UNL     1       1.744  11.387  18.336  0.00  0.00    +0.000 C 
ATOM      4  C   UNL     1       2.351   9.004  18.240  0.00  0.00    +0.000 C 
ATOM      5  C   UNL     1       2.227   7.602  18.775  0.00  0.00    +0.000 A 
ATOM      6  C   UNL     1       2.620   6.498  18.009  0.00  0.00    +0.000 A 
ATOM      7  C   UNL     1       2.536   5.215  18.549  0.00  0.00    +0.000 A 
ATOM      8  C   UNL     1       2.079   5.033  19.853  0.00  0.00    +0.000 A 
ATOM      9  C   UNL     1       1.707   6.133  20.629  0.00  0.00    +0.000 A 
ATOM     10  C   UNL     1       1.778   7.422  20.095  0.00  0.00    +0.000 A 
ATOM     11  C   UNL     1       1.383   8.602  20.849  0.00  0.00    +0.000 A 
ATOM     12  N   UNL     1       1.200   8.729  22.145  0.00  0.00    +0.000 NA
ATOM     13  N   UNL     1       0.815  10.023  22.391  0.00  0.00    +0.000 NA
ATOM     14  C   UNL     1       0.717  10.658  21.238  0.00  0.00    +0.000 A 
ATOM     15  N   UNL     1       1.134   9.820  20.236  0.00  0.00    +0.000 N 
ENDROOT
BRANCH  14  16
ATOM     16  C   UNL     1       0.239  12.001  21.134  0.00  0.00    +0.000 A 
ATOM     17  C   UNL     1      -0.939  12.442  20.550  0.00  0.00    +0.000 A 
ATOM     18  C   UNL     1      -0.987  13.849  20.701  0.00  0.00    +0.000 A 
ATOM     19  C   UNL     1       0.175  14.197  21.342  0.00  0.00    +0.000 A 
ATOM     20  O   UNL     1       0.929  13.096  21.583  0.00  0.00    +0.000 OA
ENDBRANCH  14  16
TORSDOF 1
ENDMDL
MODEL 4
REMARK VINA RESULT:      -6.3      4.228      5.618
REMARK  Name = 
REMARK  3 active torsions:
REMARK  status: ('A' for Active; 'I' for Inactive)
REMARK    1  A    between atoms: C_1  and  C_2
REMARK    2  A    between atoms: C_2  and  C_3
REMARK    3  A    between atoms: C_14  and  C_15
REMARK                            x       y       z     vdW  Elec       q    Type
REMARK                         _______ _______ _______ _____ _____    ______ ____
ROOT
ATOM      1  C   UNL     1      -6.697  10.431  19.253  0.00  0.00    +0.000 C 
ATOM      2  C   UNL     1      -6.282  11.890  18.972  0.00  0.00    +0.000 C 
ATOM      3  C   UNL     1      -7.516  12.811  19.081  0.00  0.00    +0.000 C 
ATOM      4  C   UNL     1      -5.818  12.025  17.483  0.00  0.00    +0.000 C 
ATOM      5  C   UNL     1      -4.470  11.412  17.205  0.00  0.00    +0.000 A 
ATOM      6  C   UNL     1      -4.170  10.863  15.953  0.00  0.00    +0.000 A 
ATOM      7  C   UNL     1      -2.898  10.344  15.712  0.00  0.00    +0.000 A 
ATOM      8  C   UNL     1      -1.924  10.387  16.708  0.00  0.00    +0.000 A 
ATOM      9  C   UNL     1      -2.212  10.953  17.951  0.00  0.00    +0.000 A 
ATOM     10  C   UNL     1      -3.486  11.467  18.207  0.00  0.00    +0.000 A 
ATOM     11  C   UNL     1      -3.849  12.049  19.491  0.00  0.00    +0.000 A 
ATOM     12  N   UNL     1      -3.062  12.458  20.462  0.00  0.00    +0.000 NA
ATOM     13  N   UNL     1      -3.858  12.916  21.483  0.00  0.00    +0.000 NA
ATOM     14  C   UNL     1      -5.121  12.732  21.146  0.00  0.00    +0.000 A 
ATOM     15  N   UNL     1      -5.169  12.250  19.862  0.00  0.00    +0.000 N 
ENDROOT
BRANCH  14  16
ATOM     16  C   UNL     1      -6.206  13.011  22.032  0.00  0.00    +0.000 A 
ATOM     17  C   UNL     1      -6.686  14.250  22.427  0.00  0.00    +0.000 A 
ATOM     18  C   UNL     1      -7.779  14.025  23.299  0.00  0.00    +0.000 A 
ATOM     19  C   UNL     1      -7.890  12.662  23.415  0.00  0.00    +0.000 A 
ATOM     20  O   UNL     1      -6.934  12.046  22.678  0.00  0.00    +0.000 OA
ENDBRANCH  14  16
TORSDOF 1
ENDMDL
MODEL 5
REMARK VINA RESULT:      -6.2      7.005     10.183
REMARK  Name = 
REMARK  3 active torsions:
REMARK  status: ('A' for Active; 'I' for Inactive)
REMARK    1  A    between atoms: C_1  and  C_2
REMARK    2  A    between atoms: C_2  and  C_3
REMARK    3  A    between atoms: C_14  and  C_15
REMARK                            x       y       z     vdW  Elec       q    Type
REMARK                         _______ _______ _______ _____ _____    ______ ____
ROOT
ATOM      1  C   UNL     1       5.926   6.893  17.622  0.00  0.00    +0.000 C 
ATOM      2  C   UNL     1       4.705   6.474  16.775  0.00  0.00    +0.000 C 
ATOM      3  C   UNL     1       4.750   7.191  15.409  0.00  0.00    +0.000 C 
ATOM      4  C   UNL     1       3.394   6.995  17.454  0.00  0.00    +0.000 C 
ATOM      5  C   UNL     1       3.004   6.236  18.695  0.00  0.00    +0.000 A 
ATOM      6  C   UNL     1       2.326   6.866  19.745  0.00  0.00    +0.000 A 
ATOM      7  C   UNL     1       1.938   6.127  20.862  0.00  0.00    +0.000 A 
ATOM      8  C   UNL     1       2.210   4.761  20.925  0.00  0.00    +0.000 A 
ATOM      9  C   UNL     1       2.867   4.123  19.871  0.00  0.00    +0.000 A 
ATOM     10  C   UNL     1       3.269   4.857  18.752  0.00  0.00    +0.000 A 
ATOM     11  C   UNL     1       3.976   4.250  17.634  0.00  0.00    +0.000 A 
ATOM     12  N   UNL     1       4.093   2.977  17.327  0.00  0.00    +0.000 NA
ATOM     13  N   UNL     1       4.866   2.887  16.196  0.00  0.00    +0.000 NA
ATOM     14  C   UNL     1       5.256   4.101  15.856  0.00  0.00    +0.000 A 
ATOM     15  N   UNL     1       4.661   5.007  16.696  0.00  0.00    +0.000 N 
ENDROOT
BRANCH  14  16
ATOM     16  C   UNL     1       6.160   4.349  14.777  0.00  0.00    +0.000 A 
ATOM     17  C   UNL     1       6.095   3.856  13.483  0.00  0.00    +0.000 A 
ATOM     18  C   UNL     1       7.198   4.388  12.770  0.00  0.00    +0.000 A 
ATOM     19  C   UNL     1       7.894   5.151  13.673  0.00  0.00    +0.000 A 
ATOM     20  O   UNL     1       7.292   5.113  14.887  0.00  0.00    +0.000 OA
ENDBRANCH  14  16
TORSDOF 1
ENDMDL
MODEL 6
REMARK VINA RESULT:      -6.1      4.947      8.518
REMARK  Name = 
REMARK  3 active torsions:
REMARK  status: ('A' for Active; 'I' for Inactive)
REMARK    1  A    between atoms: C_1  and  C_2
REMARK    2  A    between atoms: C_2  and  C_3
REMARK    3  A    between atoms: C_14  and  C_15
REMARK                            x       y       z     vdW  Elec       q    Type
REMARK                         _______ _______ _______ _____ _____    ______ ____
ROOT
ATOM      1  C   UNL     1       0.694   4.833  19.811  0.00  0.00    +0.000 C 
ATOM      2  C   UNL     1       2.065   5.330  20.313  0.00  0.00    +0.000 C 
ATOM      3  C   UNL     1       2.576   4.402  21.436  0.00  0.00    +0.000 C 
ATOM      4  C   UNL     1       1.896   6.727  21.000  0.00  0.00    +0.000 C 
ATOM      5  C   UNL     1       1.652   7.857  20.035  0.00  0.00    +0.000 A 
ATOM      6  C   UNL     1       0.879   8.966  20.401  0.00  0.00    +0.000 A 
ATOM      7  C   UNL     1       0.708  10.018  19.502  0.00  0.00    +0.000 A 
ATOM      8  C   UNL     1       1.318   9.974  18.249  0.00  0.00    +0.000 A 
ATOM      9  C   UNL     1       2.107   8.881  17.888  0.00  0.00    +0.000 A 
ATOM     10  C   UNL     1       2.277   7.817  18.777  0.00  0.00    +0.000 A 
ATOM     11  C   UNL     1       3.071   6.642  18.446  0.00  0.00    +0.000 A 
ATOM     12  N   UNL     1       3.953   6.488  17.483  0.00  0.00    +0.000 NA
ATOM     13  N   UNL     1       4.430   5.203  17.552  0.00  0.00    +0.000 NA
ATOM     14  C   UNL     1       3.797   4.571  18.523  0.00  0.00    +0.000 A 
ATOM     15  N   UNL     1       2.974   5.461  19.165  0.00  0.00    +0.000 N 
ENDROOT
BRANCH  14  16
ATOM     16  C   UNL     1       3.989   3.181  18.794  0.00  0.00    +0.000 A 
ATOM     17  C   UNL     1       3.348   2.103  18.204  0.00  0.00    +0.000 A 
ATOM     18  C   UNL     1       3.877   0.924  18.784  0.00  0.00    +0.000 A 
ATOM     19  C   UNL     1       4.790   1.344  19.718  0.00  0.00    +0.000 A 
ATOM     20  O   UNL     1       4.845   2.698  19.749  0.00  0.00    +0.000 OA
ENDBRANCH  14  16
TORSDOF 1
ENDMDL
MODEL 7
REMARK VINA RESULT:      -6.1      4.651      8.054
REMARK  Name = 
REMARK  3 active torsions:
REMARK  status: ('A' for Active; 'I' for Inactive)
REMARK    1  A    between atoms: C_1  and  C_2
REMARK    2  A    between atoms: C_2  and  C_3
REMARK    3  A    between atoms: C_14  and  C_15
REMARK                            x       y       z     vdW  Elec       q    Type
REMARK                         _______ _______ _______ _____ _____    ______ ____
ROOT
ATOM      1  C   UNL     1      -7.058  12.731  18.537  0.00  0.00    +0.000 C 
ATOM      2  C   UNL     1      -6.395  11.650  19.417  0.00  0.00    +0.000 C 
ATOM      3  C   UNL     1      -6.562  10.266  18.755  0.00  0.00    +0.000 C 
ATOM      4  C   UNL     1      -7.167  11.535  20.774  0.00  0.00    +0.000 C 
ATOM      5  C   UNL     1      -6.925  12.687  21.715  0.00  0.00    +0.000 A 
ATOM      6  C   UNL     1      -7.915  13.110  22.610  0.00  0.00    +0.000 A 
ATOM      7  C   UNL     1      -7.646  14.150  23.499  0.00  0.00    +0.000 A 
ATOM      8  C   UNL     1      -6.391  14.755  23.509  0.00  0.00    +0.000 A 
ATOM      9  C   UNL     1      -5.393  14.323  22.633  0.00  0.00    +0.000 A 
ATOM     10  C   UNL     1      -5.655  13.288  21.731  0.00  0.00    +0.000 A 
ATOM     11  C   UNL     1      -4.661  12.811  20.781  0.00  0.00    +0.000 A 
ATOM     12  N   UNL     1      -3.360  13.007  20.781  0.00  0.00    +0.000 NA
ATOM     13  N   UNL     1      -2.841  12.379  19.676  0.00  0.00    +0.000 NA
ATOM     14  C   UNL     1      -3.835  11.852  18.986  0.00  0.00    +0.000 A 
ATOM     15  N   UNL     1      -5.002  12.039  19.682  0.00  0.00    +0.000 N 
ENDROOT
BRANCH  14  16
ATOM     16  C   UNL     1      -3.645  11.211  17.723  0.00  0.00    +0.000 A 
ATOM     17  C   UNL     1      -2.859  10.105  17.440  0.00  0.00    +0.000 A 
ATOM     18  C   UNL     1      -2.998   9.827  16.058  0.00  0.00    +0.000 A 
ATOM     19  C   UNL     1      -3.836  10.794  15.564  0.00  0.00    +0.000 A 
ATOM     20  O   UNL     1      -4.210  11.644  16.552  0.00  0.00    +0.000 OA
ENDBRANCH  14  16
TORSDOF 1
ENDMDL
MODEL 8
REMARK VINA RESULT:      -6.1      4.343      5.630
REMARK  Name = 
REMARK  3 active torsions:
REMARK  status: ('A' for Active; 'I' for Inactive)
REMARK    1  A    between atoms: C_1  and  C_2
REMARK    2  A    between atoms: C_2  and  C_3
REMARK    3  A    between atoms: C_14  and  C_15
REMARK                            x       y       z     vdW  Elec       q    Type
REMARK                         _______ _______ _______ _____ _____    ______ ____
ROOT
ATOM      1  C   UNL     1      -6.818  10.657  18.664  0.00  0.00    +0.000 C 
ATOM      2  C   UNL     1      -6.203  12.042  18.374  0.00  0.00    +0.000 C 
ATOM      3  C   UNL     1      -7.311  13.116  18.386  0.00  0.00    +0.000 C 
ATOM      4  C   UNL     1      -5.642  12.070  16.912  0.00  0.00    +0.000 C 
ATOM      5  C   UNL     1      -4.371  11.281  16.730  0.00  0.00    +0.000 A 
ATOM      6  C   UNL     1      -4.074  10.660  15.511  0.00  0.00    +0.000 A 
ATOM      7  C   UNL     1      -2.869   9.975  15.359  0.00  0.00    +0.000 A 
ATOM      8  C   UNL     1      -1.955   9.925  16.410  0.00  0.00    +0.000 A 
ATOM      9  C   UNL     1      -2.237  10.561  17.620  0.00  0.00    +0.000 A 
ATOM     10  C   UNL     1      -3.446  11.241  17.787  0.00  0.00    +0.000 A 
ATOM     11  C   UNL     1      -3.802  11.905  19.033  0.00  0.00    +0.000 A 
ATOM     12  N   UNL     1      -3.025  12.240  20.039  0.00  0.00    +0.000 NA
ATOM     13  N   UNL     1      -3.811  12.827  20.999  0.00  0.00    +0.000 NA
ATOM     14  C   UNL     1      -5.066  12.796  20.592  0.00  0.00    +0.000 A 
ATOM     15  N   UNL     1      -5.104  12.284  19.320  0.00  0.00    +0.000 N 
ENDROOT
BRANCH  14  16
ATOM     16  C   UNL     1      -6.155  13.238  21.405  0.00  0.00    +0.000 A 
ATOM     17  C   UNL     1      -7.007  12.467  22.179  0.00  0.00    +0.000 A 
ATOM     18  C   UNL     1      -7.917  13.346  22.816  0.00  0.00    +0.000 A 
ATOM     19  C   UNL     1      -7.592  14.604  22.375  0.00  0.00    +0.000 A 
ATOM     20  O   UNL     1      -6.551  14.546  21.508  0.00  0.00    +0.000 OA
ENDBRANCH  14  16
TORSDOF 1
ENDMDL
MODEL 9
REMARK VINA RESULT:      -6.1      1.704      2.145
REMARK  Name = 
REMARK  3 active torsions:
REMARK  status: ('A' for Active; 'I' for Inactive)
REMARK    1  A    between atoms: C_1  and  C_2
REMARK    2  A    between atoms: C_2  and  C_3
REMARK    3  A    between atoms: C_14  and  C_15
REMARK                            x       y       z     vdW  Elec       q    Type
REMARK                         _______ _______ _______ _____ _____    ______ ____
ROOT
ATOM      1  C   UNL     1      -0.438  10.061  18.125  0.00  0.00    +0.000 C 
ATOM      2  C   UNL     1       0.850  10.525  18.836  0.00  0.00    +0.000 C 
ATOM      3  C   UNL     1       1.134  12.001  18.484  0.00  0.00    +0.000 C 
ATOM      4  C   UNL     1       2.076   9.739  18.262  0.00  0.00    +0.000 C 
ATOM      5  C   UNL     1       2.146   8.302  18.712  0.00  0.00    +0.000 A 
ATOM      6  C   UNL     1       2.703   7.314  17.892  0.00  0.00    +0.000 A 
ATOM      7  C   UNL     1       2.795   6.002  18.354  0.00  0.00    +0.000 A 
ATOM      8  C   UNL     1       2.350   5.678  19.635  0.00  0.00    +0.000 A 
ATOM      9  C   UNL     1       1.815   6.664  20.465  0.00  0.00    +0.000 A 
ATOM     10  C   UNL     1       1.708   7.981  20.008  0.00  0.00    +0.000 A 
ATOM     11  C   UNL     1       1.139   9.045  20.821  0.00  0.00    +0.000 A 
ATOM     12  N   UNL     1       0.921   9.065  22.118  0.00  0.00    +0.000 NA
ATOM     13  N   UNL     1       0.352  10.275  22.430  0.00  0.00    +0.000 NA
ATOM     14  C   UNL     1       0.180  10.959  21.314  0.00  0.00    +0.000 A 
ATOM     15  N   UNL     1       0.727  10.250  20.274  0.00  0.00    +0.000 N 
ENDROOT
BRANCH  14  16
ATOM     16  C   UNL     1      -0.482  12.224  21.278  0.00  0.00    +0.000 A 
ATOM     17  C   UNL     1      -0.178  13.366  22.002  0.00  0.00    +0.000 A 
ATOM     18  C   UNL     1      -1.100  14.370  21.620  0.00  0.00    +0.000 A 
ATOM     19  C   UNL     1      -1.937  13.782  20.706  0.00  0.00    +0.000 A 
ATOM     20  O   UNL     1      -1.590  12.486  20.513  0.00  0.00    +0.000 OA
ENDBRANCH  14  16
TORSDOF 1
ENDMDL
