MODEL 1
REMARK VINA RESULT:      -9.5      0.000      0.000
REMARK  Name = 
REMARK  4 active torsions:
REMARK  status: ('A' for Active; 'I' for Inactive)
REMARK    1  A    between atoms: C_6  and  N_7
REMARK    2  A    between atoms: C_15  and  C_16
REMARK    3  A    between atoms: N_18  and  C_19
REMARK    4  A    between atoms: C_19  and  C_20
REMARK                            x       y       z     vdW  Elec       q    Type
REMARK                         _______ _______ _______ _____ _____    ______ ____
ROOT
ATOM      1  N   UNL     1       2.660   6.672  20.218  0.00  0.00    +0.000 N 
ATOM      2  C   UNL     1       2.030   7.725  19.600  0.00  0.00    +0.000 C 
ATOM      3  O   UNL     1       1.993   7.899  18.381  0.00  0.00    +0.000 OA
ATOM      4  N   UNL     1       1.441   8.664  20.417  0.00  0.00    +0.000 N 
ATOM      5  C   UNL     1       1.369   8.720  21.873  0.00  0.00    +0.000 C 
ATOM      6  C   UNL     1       0.027   9.378  22.159  0.00  0.00    +0.000 C 
ATOM      7  F   UNL     1      -0.944   8.425  22.119  0.00  0.00    +0.000 F 
ATOM      8  C   UNL     1      -0.176  10.330  21.001  0.00  0.00    +0.000 C 
ATOM      9  C   UNL     1       0.525   9.649  19.817  0.00  0.00    +0.000 C 
ATOM     10  H   UNL     1       2.408   6.448  21.167  0.00  0.00    +0.000 HD
ENDROOT
BRANCH   1  16
ATOM     11  N   UNL     1       6.264   4.102  16.590  0.00  0.00    +0.000 N 
ATOM     12  C   UNL     1       6.263   4.317  17.938  0.00  0.00    +0.000 C 
ATOM     13  O   UNL     1       7.255   4.448  18.637  0.00  0.00    +0.000 OA
ATOM     14  N   UNL     1       4.985   4.570  18.450  0.00  0.00    +0.000 N 
ATOM     15  C   UNL     1       4.679   5.676  19.212  0.00  0.00    +0.000 A 
ATOM     16  C   UNL     1       3.343   5.672  19.528  0.00  0.00    +0.000 A 
ATOM     17  C   UNL     1       2.812   4.441  19.038  0.00  0.00    +0.000 A 
ATOM     18  C   UNL     1       1.540   3.820  19.101  0.00  0.00    +0.000 A 
ATOM     19  C   UNL     1       1.353   2.556  18.537  0.00  0.00    +0.000 A 
ATOM     20  C   UNL     1       2.400   1.896  17.902  0.00  0.00    +0.000 A 
ATOM     21  C   UNL     1       3.660   2.495  17.797  0.00  0.00    +0.000 A 
ATOM     22  C   UNL     1       3.843   3.772  18.358  0.00  0.00    +0.000 A 
ATOM     23  H   UNL     1       7.183   4.164  16.165  0.00  0.00    +0.000 HD
ATOM     24  H   UNL     1       5.497   4.462  16.031  0.00  0.00    +0.000 HD
ENDBRANCH   1  16
BRANCH   9  25
ATOM     25  C   UNL     1       1.176  10.762  18.967  0.00  0.00    +0.000 C 
ATOM     26  O   UNL     1       1.812  10.498  17.947  0.00  0.00    +0.000 OA
ATOM     27  N   UNL     1       0.875  12.051  19.340  0.00  0.00    +0.000 N 
ATOM     28  H   UNL     1       0.607  12.189  20.306  0.00  0.00    +0.000 HD
BRANCH  27  29
ATOM     29  C   UNL     1       1.326  13.197  18.592  0.00  0.00    +0.000 C 
BRANCH  29  30
ATOM     30  C   UNL     1       2.518  13.812  19.265  0.00  0.00    +0.000 A 
ATOM     31  C   UNL     1       2.680  13.715  20.647  0.00  0.00    +0.000 A 
ATOM     32  N   UNL     1       3.740  14.212  21.327  0.00  0.00    +0.000 NA
ATOM     33  C   UNL     1       4.688  14.839  20.590  0.00  0.00    +0.000 A 
ATOM     34  C   UNL     1       4.619  14.977  19.215  0.00  0.00    +0.000 A 
ATOM     35  F   UNL     1       5.592  15.604  18.543  0.00  0.00    +0.000 F 
ATOM     36  C   UNL     1       3.526  14.453  18.539  0.00  0.00    +0.000 A 
ENDBRANCH  29  30
ENDBRANCH  27  29
ENDBRANCH   9  25
TORSDOF 4
ENDMDL
MODEL 2
REMARK VINA RESULT:      -9.4      0.945      1.166
REMARK  Name = 
REMARK  4 active torsions:
REMARK  status: ('A' for Active; 'I' for Inactive)
REMARK    1  A    between atoms: C_6  and  N_7
REMARK    2  A    between atoms: C_15  and  C_16
REMARK    3  A    between atoms: N_18  and  C_19
REMARK    4  A    between atoms: C_19  and  C_20
REMARK                            x       y       z     vdW  Elec       q    Type
REMARK                         _______ _______ _______ _____ _____    ______ ____
ROOT
ATOM      1  N   UNL     1       2.651   6.678  20.224  0.00  0.00    +0.000 N 
ATOM      2  C   UNL     1       2.027   7.739  19.613  0.00  0.00    +0.000 C 
ATOM      3  O   UNL     1       1.995   7.922  18.395  0.00  0.00    +0.000 OA
ATOM      4  N   UNL     1       1.439   8.672  20.436  0.00  0.00    +0.000 N 
ATOM      5  C   UNL     1       1.362   8.716  21.892  0.00  0.00    +0.000 C 
ATOM      6  C   UNL     1       0.022   9.377  22.178  0.00  0.00    +0.000 C 
ATOM      7  F   UNL     1      -0.953   8.428  22.127  0.00  0.00    +0.000 F 
ATOM      8  C   UNL     1      -0.174  10.340  21.028  0.00  0.00    +0.000 C 
ATOM      9  C   UNL     1       0.528   9.666  19.840  0.00  0.00    +0.000 C 
ATOM     10  H   UNL     1       2.395   6.447  21.170  0.00  0.00    +0.000 HD
ENDROOT
BRANCH   1  16
ATOM     11  N   UNL     1       6.255   4.125  16.584  0.00  0.00    +0.000 N 
ATOM     12  C   UNL     1       6.252   4.330  17.933  0.00  0.00    +0.000 C 
ATOM     13  O   UNL     1       7.243   4.453  18.635  0.00  0.00    +0.000 OA
ATOM     14  N   UNL     1       4.974   4.582  18.445  0.00  0.00    +0.000 N 
ATOM     15  C   UNL     1       4.669   5.684  19.214  0.00  0.00    +0.000 A 
ATOM     16  C   UNL     1       3.333   5.681  19.527  0.00  0.00    +0.000 A 
ATOM     17  C   UNL     1       2.799   4.455  19.027  0.00  0.00    +0.000 A 
ATOM     18  C   UNL     1       1.525   3.837  19.082  0.00  0.00    +0.000 A 
ATOM     19  C   UNL     1       1.335   2.578  18.509  0.00  0.00    +0.000 A 
ATOM     20  C   UNL     1       2.382   1.920  17.871  0.00  0.00    +0.000 A 
ATOM     21  C   UNL     1       3.644   2.516  17.773  0.00  0.00    +0.000 A 
ATOM     22  C   UNL     1       3.830   3.788  18.344  0.00  0.00    +0.000 A 
ATOM     23  H   UNL     1       7.175   4.187  16.161  0.00  0.00    +0.000 HD
ATOM     24  H   UNL     1       5.491   4.492  16.026  0.00  0.00    +0.000 HD
ENDBRANCH   1  16
BRANCH   9  25
ATOM     25  C   UNL     1       1.187  10.784  19.003  0.00  0.00    +0.000 C 
ATOM     26  O   UNL     1       1.797  10.529  17.965  0.00  0.00    +0.000 OA
ATOM     27  N   UNL     1       0.921  12.070  19.409  0.00  0.00    +0.000 N 
ATOM     28  H   UNL     1       0.675  12.192  20.384  0.00  0.00    +0.000 HD
BRANCH  27  29
ATOM     29  C   UNL     1       1.381  13.223  18.678  0.00  0.00    +0.000 C 
BRANCH  29  30
ATOM     30  C   UNL     1       2.600  13.797  19.340  0.00  0.00    +0.000 A 
ATOM     31  C   UNL     1       3.621  14.362  18.576  0.00  0.00    +0.000 A 
ATOM     32  N   UNL     1       4.736  14.929  19.095  0.00  0.00    +0.000 NA
ATOM     33  C   UNL     1       4.838  14.932  20.446  0.00  0.00    +0.000 A 
ATOM     34  C   UNL     1       3.873  14.403  21.285  0.00  0.00    +0.000 A 
ATOM     35  F   UNL     1       4.030  14.442  22.614  0.00  0.00    +0.000 F 
ATOM     36  C   UNL     1       2.735  13.835  20.731  0.00  0.00    +0.000 A 
ENDBRANCH  29  30
ENDBRANCH  27  29
ENDBRANCH   9  25
TORSDOF 4
ENDMDL
MODEL 3
REMARK VINA RESULT:      -9.4      1.659      2.031
REMARK  Name = 
REMARK  4 active torsions:
REMARK  status: ('A' for Active; 'I' for Inactive)
REMARK    1  A    between atoms: C_6  and  N_7
REMARK    2  A    between atoms: C_15  and  C_16
REMARK    3  A    between atoms: N_18  and  C_19
REMARK    4  A    between atoms: C_19  and  C_20
REMARK                            x       y       z     vdW  Elec       q    Type
REMARK                         _______ _______ _______ _____ _____    ______ ____
ROOT
ATOM      1  N   UNL     1       2.471   6.719  20.481  0.00  0.00    +0.000 N 
ATOM      2  C   UNL     1       1.887   7.817  19.898  0.00  0.00    +0.000 C 
ATOM      3  O   UNL     1       1.851   8.028  18.685  0.00  0.00    +0.000 OA
ATOM      4  N   UNL     1       1.345   8.757  20.747  0.00  0.00    +0.000 N 
ATOM      5  C   UNL     1       1.284   8.772  22.204  0.00  0.00    +0.000 C 
ATOM      6  C   UNL     1      -0.025   9.482  22.518  0.00  0.00    +0.000 C 
ATOM      7  F   UNL     1      -1.039   8.575  22.457  0.00  0.00    +0.000 F 
ATOM      8  C   UNL     1      -0.191  10.476  21.390  0.00  0.00    +0.000 C 
ATOM      9  C   UNL     1       0.471   9.799  20.182  0.00  0.00    +0.000 C 
ATOM     10  H   UNL     1       2.215   6.478  21.425  0.00  0.00    +0.000 HD
ENDROOT
BRANCH   1  16
ATOM     11  N   UNL     1       5.853   4.101  16.677  0.00  0.00    +0.000 N 
ATOM     12  C   UNL     1       5.921   4.314  18.024  0.00  0.00    +0.000 C 
ATOM     13  O   UNL     1       6.949   4.429  18.673  0.00  0.00    +0.000 OA
ATOM     14  N   UNL     1       4.675   4.585  18.599  0.00  0.00    +0.000 N 
ATOM     15  C   UNL     1       4.423   5.694  19.375  0.00  0.00    +0.000 A 
ATOM     16  C   UNL     1       3.105   5.710  19.757  0.00  0.00    +0.000 A 
ATOM     17  C   UNL     1       2.531   4.488  19.292  0.00  0.00    +0.000 A 
ATOM     18  C   UNL     1       1.255   3.885  19.417  0.00  0.00    +0.000 A 
ATOM     19  C   UNL     1       1.021   2.625  18.862  0.00  0.00    +0.000 A 
ATOM     20  C   UNL     1       2.026   1.951  18.176  0.00  0.00    +0.000 A 
ATOM     21  C   UNL     1       3.288   2.531  18.010  0.00  0.00    +0.000 A 
ATOM     22  C   UNL     1       3.518   3.804  18.562  0.00  0.00    +0.000 A 
ATOM     23  H   UNL     1       6.751   4.149  16.207  0.00  0.00    +0.000 HD
ATOM     24  H   UNL     1       5.065   4.474  16.157  0.00  0.00    +0.000 HD
ENDBRANCH   1  16
BRANCH   9  25
ATOM     25  C   UNL     1       1.168  10.907  19.361  0.00  0.00    +0.000 C 
ATOM     26  O   UNL     1       1.273  10.825  18.138  0.00  0.00    +0.000 OA
ATOM     27  N   UNL     1       1.521  12.036  20.061  0.00  0.00    +0.000 N 
ATOM     28  H   UNL     1       1.667  11.922  21.056  0.00  0.00    +0.000 HD
BRANCH  27  29
ATOM     29  C   UNL     1       2.091  13.196  19.422  0.00  0.00    +0.000 C 
BRANCH  29  30
ATOM     30  C   UNL     1       1.082  14.306  19.383  0.00  0.00    +0.000 A 
ATOM     31  C   UNL     1      -0.089  14.226  20.136  0.00  0.00    +0.000 A 
ATOM     32  N   UNL     1      -1.033  15.197  20.182  0.00  0.00    +0.000 NA
ATOM     33  C   UNL     1      -0.797  16.303  19.437  0.00  0.00    +0.000 A 
ATOM     34  C   UNL     1       0.339  16.476  18.666  0.00  0.00    +0.000 A 
ATOM     35  F   UNL     1       0.517  17.596  17.956  0.00  0.00    +0.000 F 
ATOM     36  C   UNL     1       1.297  15.471  18.641  0.00  0.00    +0.000 A 
ENDBRANCH  29  30
ENDBRANCH  27  29
ENDBRANCH   9  25
TORSDOF 4
ENDMDL
MODEL 4
REMARK VINA RESULT:      -9.3      1.849      2.294
REMARK  Name = 
REMARK  4 active torsions:
REMARK  status: ('A' for Active; 'I' for Inactive)
REMARK    1  A    between atoms: C_6  and  N_7
REMARK    2  A    between atoms: C_15  and  C_16
REMARK    3  A    between atoms: N_18  and  C_19
REMARK    4  A    between atoms: C_19  and  C_20
REMARK                            x       y       z     vdW  Elec       q    Type
REMARK                         _______ _______ _______ _____ _____    ______ ____
ROOT
ATOM      1  N   UNL     1       2.677   6.601  20.106  0.00  0.00    +0.000 N 
ATOM      2  C   UNL     1       2.115   7.677  19.461  0.00  0.00    +0.000 C 
ATOM      3  O   UNL     1       2.156   7.861  18.243  0.00  0.00    +0.000 OA
ATOM      4  N   UNL     1       1.504   8.625  20.250  0.00  0.00    +0.000 N 
ATOM      5  C   UNL     1       1.346   8.672  21.699  0.00  0.00    +0.000 C 
ATOM      6  C   UNL     1       0.009   9.365  21.911  0.00  0.00    +0.000 C 
ATOM      7  F   UNL     1      -0.985   8.441  21.803  0.00  0.00    +0.000 F 
ATOM      8  C   UNL     1      -0.098  10.332  20.751  0.00  0.00    +0.000 C 
ATOM      9  C   UNL     1       0.653   9.640  19.605  0.00  0.00    +0.000 C 
ATOM     10  H   UNL     1       2.362   6.377  21.035  0.00  0.00    +0.000 HD
ENDROOT
BRANCH   1  16
ATOM     11  N   UNL     1       6.278   3.957  16.529  0.00  0.00    +0.000 N 
ATOM     12  C   UNL     1       6.295   4.232  17.865  0.00  0.00    +0.000 C 
ATOM     13  O   UNL     1       7.297   4.419  18.539  0.00  0.00    +0.000 OA
ATOM     14  N   UNL     1       5.021   4.477  18.390  0.00  0.00    +0.000 N 
ATOM     15  C   UNL     1       4.701   5.609  19.107  0.00  0.00    +0.000 A 
ATOM     16  C   UNL     1       3.372   5.588  19.448  0.00  0.00    +0.000 A 
ATOM     17  C   UNL     1       2.863   4.323  19.024  0.00  0.00    +0.000 A 
ATOM     18  C   UNL     1       1.608   3.675  19.138  0.00  0.00    +0.000 A 
ATOM     19  C   UNL     1       1.442   2.383  18.636  0.00  0.00    +0.000 A 
ATOM     20  C   UNL     1       2.494   1.720  18.011  0.00  0.00    +0.000 A 
ATOM     21  C   UNL     1       3.736   2.344  17.856  0.00  0.00    +0.000 A 
ATOM     22  C   UNL     1       3.898   3.649  18.355  0.00  0.00    +0.000 A 
ATOM     23  H   UNL     1       7.187   4.021  16.084  0.00  0.00    +0.000 HD
ATOM     24  H   UNL     1       5.493   4.273  15.969  0.00  0.00    +0.000 HD
ENDBRANCH   1  16
BRANCH   9  25
ATOM     25  C   UNL     1       1.386  10.742  18.807  0.00  0.00    +0.000 C 
ATOM     26  O   UNL     1       1.728  10.563  17.638  0.00  0.00    +0.000 OA
ATOM     27  N   UNL     1       1.492  11.961  19.432  0.00  0.00    +0.000 N 
ATOM     28  H   UNL     1       1.457  11.954  20.444  0.00  0.00    +0.000 HD
BRANCH  27  29
ATOM     29  C   UNL     1       2.061  13.116  18.783  0.00  0.00    +0.000 C 
BRANCH  29  30
ATOM     30  C   UNL     1       1.204  14.321  19.038  0.00  0.00    +0.000 A 
ATOM     31  C   UNL     1       1.625  15.588  18.635  0.00  0.00    +0.000 A 
ATOM     32  N   UNL     1       0.900  16.720  18.798  0.00  0.00    +0.000 NA
ATOM     33  C   UNL     1      -0.308  16.581  19.395  0.00  0.00    +0.000 A 
ATOM     34  C   UNL     1      -0.814  15.365  19.820  0.00  0.00    +0.000 A 
ATOM     35  F   UNL     1      -2.018  15.293  20.399  0.00  0.00    +0.000 F 
ATOM     36  C   UNL     1      -0.056  14.217  19.635  0.00  0.00    +0.000 A 
ENDBRANCH  29  30
ENDBRANCH  27  29
ENDBRANCH   9  25
TORSDOF 4
ENDMDL
MODEL 5
REMARK VINA RESULT:      -9.1      3.651      8.883
REMARK  Name = 
REMARK  4 active torsions:
REMARK  status: ('A' for Active; 'I' for Inactive)
REMARK    1  A    between atoms: C_6  and  N_7
REMARK    2  A    between atoms: C_15  and  C_16
REMARK    3  A    between atoms: N_18  and  C_19
REMARK    4  A    between atoms: C_19  and  C_20
REMARK                            x       y       z     vdW  Elec       q    Type
REMARK                         _______ _______ _______ _____ _____    ______ ____
ROOT
ATOM      1  N   UNL     1       1.652   6.566  19.207  0.00  0.00    +0.000 N 
ATOM      2  C   UNL     1       2.831   5.870  19.337  0.00  0.00    +0.000 C 
ATOM      3  O   UNL     1       3.783   6.232  20.030  0.00  0.00    +0.000 OA
ATOM      4  N   UNL     1       2.953   4.713  18.600  0.00  0.00    +0.000 N 
ATOM      5  C   UNL     1       2.007   4.085  17.685  0.00  0.00    +0.000 C 
ATOM      6  C   UNL     1       2.265   2.594  17.841  0.00  0.00    +0.000 C 
ATOM      7  F   UNL     1       1.567   2.140  18.919  0.00  0.00    +0.000 F 
ATOM      8  C   UNL     1       3.745   2.501  18.144  0.00  0.00    +0.000 C 
ATOM      9  C   UNL     1       4.062   3.794  18.908  0.00  0.00    +0.000 C 
ATOM     10  H   UNL     1       0.840   6.080  18.866  0.00  0.00    +0.000 HD
ENDROOT
BRANCH   1  16
ATOM     11  N   UNL     1      -0.779  10.493  22.587  0.00  0.00    +0.000 N 
ATOM     12  C   UNL     1       0.356   9.740  22.667  0.00  0.00    +0.000 C 
ATOM     13  O   UNL     1       0.882   9.356  23.700  0.00  0.00    +0.000 OA
ATOM     14  N   UNL     1       0.788   9.267  21.423  0.00  0.00    +0.000 N 
ATOM     15  C   UNL     1       1.039   7.938  21.163  0.00  0.00    +0.000 A 
ATOM     16  C   UNL     1       1.401   7.778  19.849  0.00  0.00    +0.000 A 
ATOM     17  C   UNL     1       1.495   9.088  19.289  0.00  0.00    +0.000 A 
ATOM     18  C   UNL     1       1.880   9.597  18.024  0.00  0.00    +0.000 A 
ATOM     19  C   UNL     1       1.902  10.976  17.803  0.00  0.00    +0.000 A 
ATOM     20  C   UNL     1       1.540  11.864  18.811  0.00  0.00    +0.000 A 
ATOM     21  C   UNL     1       1.127  11.393  20.062  0.00  0.00    +0.000 A 
ATOM     22  C   UNL     1       1.098  10.004  20.278  0.00  0.00    +0.000 A 
ATOM     23  H   UNL     1      -1.242  10.635  23.479  0.00  0.00    +0.000 HD
ATOM     24  H   UNL     1      -1.394  10.377  21.788  0.00  0.00    +0.000 HD
ENDBRANCH   1  16
BRANCH   9  25
ATOM     25  C   UNL     1       5.472   4.249  18.472  0.00  0.00    +0.000 C 
ATOM     26  O   UNL     1       6.344   4.510  19.301  0.00  0.00    +0.000 OA
ATOM     27  N   UNL     1       5.725   4.200  17.122  0.00  0.00    +0.000 N 
ATOM     28  H   UNL     1       4.920   4.258  16.510  0.00  0.00    +0.000 HD
BRANCH  27  29
ATOM     29  C   UNL     1       7.020   4.500  16.566  0.00  0.00    +0.000 C 
BRANCH  29  30
ATOM     30  C   UNL     1       6.947   4.499  15.067  0.00  0.00    +0.000 A 
ATOM     31  C   UNL     1       7.781   5.329  14.316  0.00  0.00    +0.000 A 
ATOM     32  N   UNL     1       7.801   5.366  12.963  0.00  0.00    +0.000 NA
ATOM     33  C   UNL     1       6.943   4.533  12.325  0.00  0.00    +0.000 A 
ATOM     34  C   UNL     1       6.085   3.670  12.983  0.00  0.00    +0.000 A 
ATOM     35  F   UNL     1       5.265   2.867  12.294  0.00  0.00    +0.000 F 
ATOM     36  C   UNL     1       6.088   3.644  14.371  0.00  0.00    +0.000 A 
ENDBRANCH  29  30
ENDBRANCH  27  29
ENDBRANCH   9  25
TORSDOF 4
ENDMDL
MODEL 6
REMARK VINA RESULT:      -9.0      1.378      1.385
REMARK  Name = 
REMARK  4 active torsions:
REMARK  status: ('A' for Active; 'I' for Inactive)
REMARK    1  A    between atoms: C_6  and  N_7
REMARK    2  A    between atoms: C_15  and  C_16
REMARK    3  A    between atoms: N_18  and  C_19
REMARK    4  A    between atoms: C_19  and  C_20
REMARK                            x       y       z     vdW  Elec       q    Type
REMARK                         _______ _______ _______ _____ _____    ______ ____
ROOT
ATOM      1  N   UNL     1       2.454   7.319  19.718  0.00  0.00    +0.000 N 
ATOM      2  C   UNL     1       1.634   8.344  19.312  0.00  0.00    +0.000 C 
ATOM      3  O   UNL     1       1.377   8.609  18.136  0.00  0.00    +0.000 OA
ATOM      4  N   UNL     1       1.106   9.145  20.299  0.00  0.00    +0.000 N 
ATOM      5  C   UNL     1       1.274   9.076  21.746  0.00  0.00    +0.000 C 
ATOM      6  C   UNL     1      -0.056   9.561  22.304  0.00  0.00    +0.000 C 
ATOM      7  F   UNL     1      -0.927   8.515  22.327  0.00  0.00    +0.000 F 
ATOM      8  C   UNL     1      -0.539  10.576  21.290  0.00  0.00    +0.000 C 
ATOM      9  C   UNL     1       0.014  10.071  19.950  0.00  0.00    +0.000 C 
ATOM     10  H   UNL     1       2.387   6.994  20.668  0.00  0.00    +0.000 HD
ENDROOT
BRANCH   1  16
ATOM     11  N   UNL     1       5.311   5.415  15.138  0.00  0.00    +0.000 N 
ATOM     12  C   UNL     1       5.654   5.675  16.433  0.00  0.00    +0.000 C 
ATOM     13  O   UNL     1       6.756   6.035  16.818  0.00  0.00    +0.000 OA
ATOM     14  N   UNL     1       4.555   5.678  17.301  0.00  0.00    +0.000 N 
ATOM     15  C   UNL     1       4.258   6.724  18.145  0.00  0.00    +0.000 A 
ATOM     16  C   UNL     1       3.102   6.456  18.834  0.00  0.00    +0.000 A 
ATOM     17  C   UNL     1       2.720   5.125  18.489  0.00  0.00    +0.000 A 
ATOM     18  C   UNL     1       1.680   4.257  18.902  0.00  0.00    +0.000 A 
ATOM     19  C   UNL     1       1.605   2.961  18.386  0.00  0.00    +0.000 A 
ATOM     20  C   UNL     1       2.539   2.509  17.459  0.00  0.00    +0.000 A 
ATOM     21  C   UNL     1       3.561   3.351  17.008  0.00  0.00    +0.000 A 
ATOM     22  C   UNL     1       3.628   4.658  17.523  0.00  0.00    +0.000 A 
ATOM     23  H   UNL     1       6.034   5.649  14.467  0.00  0.00    +0.000 HD
ATOM     24  H   UNL     1       4.358   5.588  14.835  0.00  0.00    +0.000 HD
ENDBRANCH   1  16
BRANCH   9  25
ATOM     25  C   UNL     1       0.407  11.312  19.119  0.00  0.00    +0.000 C 
ATOM     26  O   UNL     1      -0.434  11.950  18.486  0.00  0.00    +0.000 OA
ATOM     27  N   UNL     1       1.709  11.733  19.254  0.00  0.00    +0.000 N 
ATOM     28  H   UNL     1       2.382  11.032  19.538  0.00  0.00    +0.000 HD
BRANCH  27  29
ATOM     29  C   UNL     1       2.204  12.930  18.622  0.00  0.00    +0.000 C 
BRANCH  29  30
ATOM     30  C   UNL     1       2.513  13.968  19.661  0.00  0.00    +0.000 A 
ATOM     31  C   UNL     1       2.390  13.670  21.018  0.00  0.00    +0.000 A 
ATOM     32  N   UNL     1       2.679  14.537  22.018  0.00  0.00    +0.000 NA
ATOM     33  C   UNL     1       3.111  15.765  21.644  0.00  0.00    +0.000 A 
ATOM     34  C   UNL     1       3.272  16.149  20.324  0.00  0.00    +0.000 A 
ATOM     35  F   UNL     1       3.709  17.377  20.020  0.00  0.00    +0.000 F 
ATOM     36  C   UNL     1       2.977  15.240  19.317  0.00  0.00    +0.000 A 
ENDBRANCH  29  30
ENDBRANCH  27  29
ENDBRANCH   9  25
TORSDOF 4
ENDMDL
MODEL 7
REMARK VINA RESULT:      -9.0      1.416      1.627
REMARK  Name = 
REMARK  4 active torsions:
REMARK  status: ('A' for Active; 'I' for Inactive)
REMARK    1  A    between atoms: C_6  and  N_7
REMARK    2  A    between atoms: C_15  and  C_16
REMARK    3  A    between atoms: N_18  and  C_19
REMARK    4  A    between atoms: C_19  and  C_20
REMARK                            x       y       z     vdW  Elec       q    Type
REMARK                         _______ _______ _______ _____ _____    ______ ____
ROOT
ATOM      1  N   UNL     1       2.432   6.765  20.511  0.00  0.00    +0.000 N 
ATOM      2  C   UNL     1       1.811   7.835  19.913  0.00  0.00    +0.000 C 
ATOM      3  O   UNL     1       1.718   7.998  18.695  0.00  0.00    +0.000 OA
ATOM      4  N   UNL     1       1.301   8.804  20.748  0.00  0.00    +0.000 N 
ATOM      5  C   UNL     1       1.306   8.877  22.205  0.00  0.00    +0.000 C 
ATOM      6  C   UNL     1       0.007   9.589  22.551  0.00  0.00    +0.000 C 
ATOM      7  F   UNL     1      -1.000   8.673  22.573  0.00  0.00    +0.000 F 
ATOM      8  C   UNL     1      -0.220  10.536  21.394  0.00  0.00    +0.000 C 
ATOM      9  C   UNL     1       0.392   9.817  20.184  0.00  0.00    +0.000 C 
ATOM     10  H   UNL     1       2.222   6.561  21.474  0.00  0.00    +0.000 HD
ENDROOT
BRANCH   1  16
ATOM     11  N   UNL     1       5.686   4.025  16.682  0.00  0.00    +0.000 N 
ATOM     12  C   UNL     1       5.799   4.279  18.018  0.00  0.00    +0.000 C 
ATOM     13  O   UNL     1       6.847   4.413  18.629  0.00  0.00    +0.000 OA
ATOM     14  N   UNL     1       4.571   4.570  18.625  0.00  0.00    +0.000 N 
ATOM     15  C   UNL     1       4.346   5.704  19.374  0.00  0.00    +0.000 A 
ATOM     16  C   UNL     1       3.041   5.733  19.798  0.00  0.00    +0.000 A 
ATOM     17  C   UNL     1       2.452   4.498  19.391  0.00  0.00    +0.000 A 
ATOM     18  C   UNL     1       1.180   3.902  19.576  0.00  0.00    +0.000 A 
ATOM     19  C   UNL     1       0.927   2.625  19.069  0.00  0.00    +0.000 A 
ATOM     20  C   UNL     1       1.909   1.928  18.372  0.00  0.00    +0.000 A 
ATOM     21  C   UNL     1       3.165   2.501  18.146  0.00  0.00    +0.000 A 
ATOM     22  C   UNL     1       3.414   3.790  18.651  0.00  0.00    +0.000 A 
ATOM     23  H   UNL     1       6.568   4.057  16.181  0.00  0.00    +0.000 HD
ATOM     24  H   UNL     1       4.882   4.382  16.177  0.00  0.00    +0.000 HD
ENDBRANCH   1  16
BRANCH   9  25
ATOM     25  C   UNL     1       1.040  10.896  19.288  0.00  0.00    +0.000 C 
ATOM     26  O   UNL     1       0.902  10.879  18.066  0.00  0.00    +0.000 OA
ATOM     27  N   UNL     1       1.643  11.938  19.951  0.00  0.00    +0.000 N 
ATOM     28  H   UNL     1       1.962  11.749  20.894  0.00  0.00    +0.000 HD
BRANCH  27  29
ATOM     29  C   UNL     1       2.208  13.071  19.261  0.00  0.00    +0.000 C 
BRANCH  29  30
ATOM     30  C   UNL     1       2.589  14.135  20.249  0.00  0.00    +0.000 A 
ATOM     31  C   UNL     1       3.846  14.736  20.193  0.00  0.00    +0.000 A 
ATOM     32  N   UNL     1       4.256  15.724  21.024  0.00  0.00    +0.000 NA
ATOM     33  C   UNL     1       3.366  16.131  21.960  0.00  0.00    +0.000 A 
ATOM     34  C   UNL     1       2.094  15.601  22.087  0.00  0.00    +0.000 A 
ATOM     35  F   UNL     1       1.259  16.052  23.030  0.00  0.00    +0.000 F 
ATOM     36  C   UNL     1       1.693  14.595  21.219  0.00  0.00    +0.000 A 
ENDBRANCH  29  30
ENDBRANCH  27  29
ENDBRANCH   9  25
TORSDOF 4
ENDMDL
MODEL 8
REMARK VINA RESULT:      -8.9      1.557      1.632
REMARK  Name = 
REMARK  4 active torsions:
REMARK  status: ('A' for Active; 'I' for Inactive)
REMARK    1  A    between atoms: C_6  and  N_7
REMARK    2  A    between atoms: C_15  and  C_16
REMARK    3  A    between atoms: N_18  and  C_19
REMARK    4  A    between atoms: C_19  and  C_20
REMARK                            x       y       z     vdW  Elec       q    Type
REMARK                         _______ _______ _______ _____ _____    ______ ____
ROOT
ATOM      1  N   UNL     1       2.244   7.076  20.502  0.00  0.00    +0.000 N 
ATOM      2  C   UNL     1       1.567   8.160  19.998  0.00  0.00    +0.000 C 
ATOM      3  O   UNL     1       1.357   8.358  18.800  0.00  0.00    +0.000 OA
ATOM      4  N   UNL     1       1.137   9.102  20.907  0.00  0.00    +0.000 N 
ATOM      5  C   UNL     1       1.281   9.132  22.358  0.00  0.00    +0.000 C 
ATOM      6  C   UNL     1       0.020   9.828  22.847  0.00  0.00    +0.000 C 
ATOM      7  F   UNL     1      -0.979   8.907  22.938  0.00  0.00    +0.000 F 
ATOM      8  C   UNL     1      -0.318  10.808  21.745  0.00  0.00    +0.000 C 
ATOM      9  C   UNL     1       0.177  10.127  20.462  0.00  0.00    +0.000 C 
ATOM     10  H   UNL     1       2.127   6.842  21.474  0.00  0.00    +0.000 HD
ENDROOT
BRANCH   1  16
ATOM     11  N   UNL     1       4.905   4.453  16.166  0.00  0.00    +0.000 N 
ATOM     12  C   UNL     1       5.252   4.760  17.450  0.00  0.00    +0.000 C 
ATOM     13  O   UNL     1       6.385   4.991  17.843  0.00  0.00    +0.000 OA
ATOM     14  N   UNL     1       4.146   4.981  18.279  0.00  0.00    +0.000 N 
ATOM     15  C   UNL     1       3.980   6.120  19.036  0.00  0.00    +0.000 A 
ATOM     16  C   UNL     1       2.783   6.068  19.704  0.00  0.00    +0.000 A 
ATOM     17  C   UNL     1       2.225   4.780  19.443  0.00  0.00    +0.000 A 
ATOM     18  C   UNL     1       1.064   4.098  19.884  0.00  0.00    +0.000 A 
ATOM     19  C   UNL     1       0.819   2.790  19.460  0.00  0.00    +0.000 A 
ATOM     20  C   UNL     1       1.700   2.144  18.598  0.00  0.00    +0.000 A 
ATOM     21  C   UNL     1       2.840   2.799  18.122  0.00  0.00    +0.000 A 
ATOM     22  C   UNL     1       3.079   4.120  18.544  0.00  0.00    +0.000 A 
ATOM     23  H   UNL     1       5.669   4.533  15.504  0.00  0.00    +0.000 HD
ATOM     24  H   UNL     1       3.993   4.733  15.821  0.00  0.00    +0.000 HD
ENDBRANCH   1  16
BRANCH   9  25
ATOM     25  C   UNL     1       0.734  11.235  19.541  0.00  0.00    +0.000 C 
ATOM     26  O   UNL     1       0.240  11.456  18.436  0.00  0.00    +0.000 OA
ATOM     27  N   UNL     1       1.704  12.037  20.092  0.00  0.00    +0.000 N 
ATOM     28  H   UNL     1       2.243  11.637  20.851  0.00  0.00    +0.000 HD
BRANCH  27  29
ATOM     29  C   UNL     1       2.256  13.173  19.398  0.00  0.00    +0.000 C 
BRANCH  29  30
ATOM     30  C   UNL     1       2.058  14.418  20.212  0.00  0.00    +0.000 A 
ATOM     31  C   UNL     1       1.727  14.334  21.565  0.00  0.00    +0.000 A 
ATOM     32  N   UNL     1       1.563  15.405  22.378  0.00  0.00    +0.000 NA
ATOM     33  C   UNL     1       1.736  16.622  21.811  0.00  0.00    +0.000 A 
ATOM     34  C   UNL     1       2.072  16.805  20.481  0.00  0.00    +0.000 A 
ATOM     35  F   UNL     1       2.234  18.036  19.982  0.00  0.00    +0.000 F 
ATOM     36  C   UNL     1       2.243  15.692  19.670  0.00  0.00    +0.000 A 
ENDBRANCH  29  30
ENDBRANCH  27  29
ENDBRANCH   9  25
TORSDOF 4
ENDMDL
MODEL 9
REMARK VINA RESULT:      -8.9      1.477      1.636
REMARK  Name = 
REMARK  4 active torsions:
REMARK  status: ('A' for Active; 'I' for Inactive)
REMARK    1  A    between atoms: C_6  and  N_7
REMARK    2  A    between atoms: C_15  and  C_16
REMARK    3  A    between atoms: N_18  and  C_19
REMARK    4  A    between atoms: C_19  and  C_20
REMARK                            x       y       z     vdW  Elec       q    Type
REMARK                         _______ _______ _______ _____ _____    ______ ____
ROOT
ATOM      1  N   UNL     1       2.475   7.370  19.727  0.00  0.00    +0.000 N 
ATOM      2  C   UNL     1       1.602   8.353  19.327  0.00  0.00    +0.000 C 
ATOM      3  O   UNL     1       1.284   8.570  18.156  0.00  0.00    +0.000 OA
ATOM      4  N   UNL     1       1.090   9.168  20.311  0.00  0.00    +0.000 N 
ATOM      5  C   UNL     1       1.324   9.152  21.751  0.00  0.00    +0.000 C 
ATOM      6  C   UNL     1       0.004   9.610  22.352  0.00  0.00    +0.000 C 
ATOM      7  F   UNL     1      -0.828   8.536  22.448  0.00  0.00    +0.000 F 
ATOM      8  C   UNL     1      -0.559  10.573  21.330  0.00  0.00    +0.000 C 
ATOM      9  C   UNL     1      -0.049  10.043  19.983  0.00  0.00    +0.000 C 
ATOM     10  H   UNL     1       2.462   7.075  20.689  0.00  0.00    +0.000 HD
ENDROOT
BRANCH   1  16
ATOM     11  N   UNL     1       5.306   5.441  15.142  0.00  0.00    +0.000 N 
ATOM     12  C   UNL     1       5.654   5.698  16.437  0.00  0.00    +0.000 C 
ATOM     13  O   UNL     1       6.760   6.048  16.819  0.00  0.00    +0.000 OA
ATOM     14  N   UNL     1       4.557   5.710  17.306  0.00  0.00    +0.000 N 
ATOM     15  C   UNL     1       4.271   6.760  18.151  0.00  0.00    +0.000 A 
ATOM     16  C   UNL     1       3.114   6.502  18.842  0.00  0.00    +0.000 A 
ATOM     17  C   UNL     1       2.720   5.174  18.498  0.00  0.00    +0.000 A 
ATOM     18  C   UNL     1       1.673   4.315  18.914  0.00  0.00    +0.000 A 
ATOM     19  C   UNL     1       1.586   3.020  18.398  0.00  0.00    +0.000 A 
ATOM     20  C   UNL     1       2.514   2.559  17.469  0.00  0.00    +0.000 A 
ATOM     21  C   UNL     1       3.542   3.392  17.016  0.00  0.00    +0.000 A 
ATOM     22  C   UNL     1       3.622   4.699  17.531  0.00  0.00    +0.000 A 
ATOM     23  H   UNL     1       6.030   5.668  14.469  0.00  0.00    +0.000 HD
ATOM     24  H   UNL     1       4.355   5.622  14.841  0.00  0.00    +0.000 HD
ENDBRANCH   1  16
BRANCH   9  25
ATOM     25  C   UNL     1       0.263  11.269  19.096  0.00  0.00    +0.000 C 
ATOM     26  O   UNL     1      -0.545  11.676  18.262  0.00  0.00    +0.000 OA
ATOM     27  N   UNL     1       1.417  11.949  19.403  0.00  0.00    +0.000 N 
ATOM     28  H   UNL     1       2.140  11.420  19.875  0.00  0.00    +0.000 HD
BRANCH  27  29
ATOM     29  C   UNL     1       1.798  13.168  18.733  0.00  0.00    +0.000 C 
BRANCH  29  30
ATOM     30  C   UNL     1       2.928  13.825  19.470  0.00  0.00    +0.000 A 
ATOM     31  C   UNL     1       3.921  14.516  18.774  0.00  0.00    +0.000 A 
ATOM     32  N   UNL     1       4.954  15.163  19.363  0.00  0.00    +0.000 NA
ATOM     33  C   UNL     1       5.001  15.117  20.715  0.00  0.00    +0.000 A 
ATOM     34  C   UNL     1       4.058  14.465  21.491  0.00  0.00    +0.000 A 
ATOM     35  F   UNL     1       4.158  14.462  22.826  0.00  0.00    +0.000 F 
ATOM     36  C   UNL     1       3.003  13.816  20.865  0.00  0.00    +0.000 A 
ENDBRANCH  29  30
ENDBRANCH  27  29
ENDBRANCH   9  25
TORSDOF 4
ENDMDL
