MODEL 1
REMARK VINA RESULT:      -8.1      0.000      0.000
REMARK  Name = 
REMARK  10 active torsions:
REMARK  status: ('A' for Active; 'I' for Inactive)
REMARK    1  A    between atoms: C_1  and  C_2
REMARK    2  A    between atoms: C_2  and  C_3
REMARK    3  A    between atoms: C_2  and  C_4
REMARK    4  A    between atoms: C_2  and  N_5
REMARK    5  A    between atoms: N_5  and  C_6
REMARK    6  A    between atoms: C_6  and  C_7
REMARK    7  A    between atoms: C_7  and  C_8
REMARK    8  A    between atoms: C_8  and  C_9
REMARK    9  A    between atoms: C_9  and  O_10
REMARK   10  A    between atoms: O_10  and  C_11
REMARK                            x       y       z     vdW  Elec       q    Type
REMARK                         _______ _______ _______ _____ _____    ______ ____
ROOT
ATOM      1  C   UNL     1       6.566   6.235  16.884  0.00  0.00    +0.000 A 
ATOM      2  C   UNL     1       6.009   5.577  15.786  0.00  0.00    +0.000 A 
ATOM      3  C   UNL     1       4.908   4.748  15.956  0.00  0.00    +0.000 A 
ATOM      4  C   UNL     1       4.366   4.577  17.229  0.00  0.00    +0.000 A 
ATOM      5  C   UNL     1       3.189   3.698  17.403  0.00  0.00    +0.000 A 
ATOM      6  O   UNL     1       2.695   3.149  16.426  0.00  0.00    +0.000 OA
ATOM      7  C   UNL     1       2.643   3.502  18.763  0.00  0.00    +0.000 A 
ATOM      8  C   UNL     1       1.549   2.662  18.980  0.00  0.00    +0.000 A 
ATOM      9  F   UNL     1       0.957   2.008  17.972  0.00  0.00    +0.000 F 
ATOM     10  C   UNL     1       1.047   2.483  20.258  0.00  0.00    +0.000 A 
ATOM     11  C   UNL     1       1.643   3.151  21.318  0.00  0.00    +0.000 A 
ATOM     12  F   UNL     1       1.160   2.979  22.555  0.00  0.00    +0.000 F 
ATOM     13  C   UNL     1       2.734   3.997  21.122  0.00  0.00    +0.000 A 
ATOM     14  C   UNL     1       3.252   4.177  19.840  0.00  0.00    +0.000 A 
ATOM     15  N   UNL     1       4.333   5.044  19.611  0.00  0.00    +0.000 N 
ATOM     16  C   UNL     1       4.919   5.218  18.349  0.00  0.00    +0.000 A 
ATOM     17  C   UNL     1       6.020   6.058  18.162  0.00  0.00    +0.000 A 
ATOM     18  H   UNL     1       4.817   5.433  20.412  0.00  0.00    +0.000 HD
ENDROOT
BRANCH   1  19
ATOM     19  O   UNL     1       7.639   7.081  16.817  0.00  0.00    +0.000 OA
BRANCH  19  20
ATOM     20  C   UNL     1       8.010   7.705  18.048  0.00  0.00    +0.000 C 
BRANCH  20  21
ATOM     21  C   UNL     1       8.233   9.186  17.804  0.00  0.00    +0.000 C 
BRANCH  21  22
ATOM     22  C   UNL     1       8.898   9.862  19.005  0.00  0.00    +0.000 C 
BRANCH  22  23
ATOM     23  C   UNL     1      10.066  10.758  18.597  0.00  0.00    +0.000 C 
BRANCH  23  24
ATOM     24  N   UNL     1       9.612  11.903  17.809  0.00  0.00    +0.000 NA
ATOM     25  H   UNL     1       9.669  11.685  16.815  0.00  0.00    +0.000 HD
BRANCH  24  27
ATOM     26  C   UNL     1      11.295  13.050  19.244  0.00  0.00    +0.000 C 
ATOM     27  C   UNL     1      10.331  13.165  18.051  0.00  0.00    +0.000 C 
ATOM     28  C   UNL     1       9.348  14.325  18.256  0.00  0.00    +0.000 C 
ATOM     29  C   UNL     1      11.166  13.447  16.786  0.00  0.00    +0.000 C 
ENDBRANCH  24  27
ENDBRANCH  23  24
ENDBRANCH  22  23
ENDBRANCH  21  22
ENDBRANCH  20  21
ENDBRANCH  19  20
ENDBRANCH   1  19
TORSDOF 7
ENDMDL
MODEL 2
REMARK VINA RESULT:      -8.1      6.278      7.981
REMARK  Name = 
REMARK  10 active torsions:
REMARK  status: ('A' for Active; 'I' for Inactive)
REMARK    1  A    between atoms: C_1  and  C_2
REMARK    2  A    between atoms: C_2  and  C_3
REMARK    3  A    between atoms: C_2  and  C_4
REMARK    4  A    between atoms: C_2  and  N_5
REMARK    5  A    between atoms: N_5  and  C_6
REMARK    6  A    between atoms: C_6  and  C_7
REMARK    7  A    between atoms: C_7  and  C_8
REMARK    8  A    between atoms: C_8  and  C_9
REMARK    9  A    between atoms: C_9  and  O_10
REMARK   10  A    between atoms: O_10  and  C_11
REMARK                            x       y       z     vdW  Elec       q    Type
REMARK                         _______ _______ _______ _____ _____    ______ ____
ROOT
ATOM      1  C   UNL     1       1.286   9.763  19.219  0.00  0.00    +0.000 A 
ATOM      2  C   UNL     1       1.955   9.600  18.004  0.00  0.00    +0.000 A 
ATOM      3  C   UNL     1       2.551   8.385  17.695  0.00  0.00    +0.000 A 
ATOM      4  C   UNL     1       2.479   7.332  18.605  0.00  0.00    +0.000 A 
ATOM      5  C   UNL     1       3.110   6.038  18.267  0.00  0.00    +0.000 A 
ATOM      6  O   UNL     1       3.670   5.902  17.186  0.00  0.00    +0.000 OA
ATOM      7  C   UNL     1       3.051   4.938  19.254  0.00  0.00    +0.000 A 
ATOM      8  C   UNL     1       3.655   3.707  18.989  0.00  0.00    +0.000 A 
ATOM      9  F   UNL     1       4.303   3.477  17.840  0.00  0.00    +0.000 F 
ATOM     10  C   UNL     1       3.596   2.685  19.922  0.00  0.00    +0.000 A 
ATOM     11  C   UNL     1       2.929   2.900  21.119  0.00  0.00    +0.000 A 
ATOM     12  F   UNL     1       2.872   1.913  22.023  0.00  0.00    +0.000 F 
ATOM     13  C   UNL     1       2.317   4.121  21.401  0.00  0.00    +0.000 A 
ATOM     14  C   UNL     1       2.378   5.159  20.472  0.00  0.00    +0.000 A 
ATOM     15  N   UNL     1       1.747   6.389  20.719  0.00  0.00    +0.000 N 
ATOM     16  C   UNL     1       1.823   7.478  19.838  0.00  0.00    +0.000 A 
ATOM     17  C   UNL     1       1.218   8.702  20.132  0.00  0.00    +0.000 A 
ATOM     18  H   UNL     1       1.362   6.558  21.641  0.00  0.00    +0.000 HD
ENDROOT
BRANCH   1  19
ATOM     19  O   UNL     1       0.656  10.913  19.609  0.00  0.00    +0.000 OA
BRANCH  19  20
ATOM     20  C   UNL     1       1.090  12.107  18.955  0.00  0.00    +0.000 C 
BRANCH  20  21
ATOM     21  C   UNL     1      -0.125  12.883  18.483  0.00  0.00    +0.000 C 
BRANCH  21  22
ATOM     22  C   UNL     1      -1.270  12.811  19.497  0.00  0.00    +0.000 C 
BRANCH  22  23
ATOM     23  C   UNL     1      -2.473  12.034  18.963  0.00  0.00    +0.000 C 
BRANCH  23  24
ATOM     24  N   UNL     1      -2.487  12.010  17.501  0.00  0.00    +0.000 NA
ATOM     25  H   UNL     1      -2.760  12.924  17.142  0.00  0.00    +0.000 HD
BRANCH  24  27
ATOM     26  C   UNL     1      -4.835  11.426  16.907  0.00  0.00    +0.000 C 
ATOM     27  C   UNL     1      -3.360  10.991  16.892  0.00  0.00    +0.000 C 
ATOM     28  C   UNL     1      -3.185   9.635  17.588  0.00  0.00    +0.000 C 
ATOM     29  C   UNL     1      -2.915  10.851  15.423  0.00  0.00    +0.000 C 
ENDBRANCH  24  27
ENDBRANCH  23  24
ENDBRANCH  22  23
ENDBRANCH  21  22
ENDBRANCH  20  21
ENDBRANCH  19  20
ENDBRANCH   1  19
TORSDOF 7
ENDMDL
MODEL 3
REMARK VINA RESULT:      -7.9      0.850      1.095
REMARK  Name = 
REMARK  10 active torsions:
REMARK  status: ('A' for Active; 'I' for Inactive)
REMARK    1  A    between atoms: C_1  and  C_2
REMARK    2  A    between atoms: C_2  and  C_3
REMARK    3  A    between atoms: C_2  and  C_4
REMARK    4  A    between atoms: C_2  and  N_5
REMARK    5  A    between atoms: N_5  and  C_6
REMARK    6  A    between atoms: C_6  and  C_7
REMARK    7  A    between atoms: C_7  and  C_8
REMARK    8  A    between atoms: C_8  and  C_9
REMARK    9  A    between atoms: C_9  and  O_10
REMARK   10  A    between atoms: O_10  and  C_11
REMARK                            x       y       z     vdW  Elec       q    Type
REMARK                         _______ _______ _______ _____ _____    ______ ____
ROOT
ATOM      1  C   UNL     1       6.522   6.161  16.965  0.00  0.00    +0.000 A 
ATOM      2  C   UNL     1       5.933   5.547  15.859  0.00  0.00    +0.000 A 
ATOM      3  C   UNL     1       4.821   4.733  16.025  0.00  0.00    +0.000 A 
ATOM      4  C   UNL     1       4.300   4.532  17.302  0.00  0.00    +0.000 A 
ATOM      5  C   UNL     1       3.111   3.669  17.472  0.00  0.00    +0.000 A 
ATOM      6  O   UNL     1       2.588   3.159  16.488  0.00  0.00    +0.000 OA
ATOM      7  C   UNL     1       2.586   3.441  18.836  0.00  0.00    +0.000 A 
ATOM      8  C   UNL     1       1.482   2.614  19.048  0.00  0.00    +0.000 A 
ATOM      9  F   UNL     1       0.859   2.002  18.032  0.00  0.00    +0.000 F 
ATOM     10  C   UNL     1       1.000   2.404  20.330  0.00  0.00    +0.000 A 
ATOM     11  C   UNL     1       1.628   3.028  21.398  0.00  0.00    +0.000 A 
ATOM     12  F   UNL     1       1.166   2.827  22.638  0.00  0.00    +0.000 F 
ATOM     13  C   UNL     1       2.731   3.860  21.207  0.00  0.00    +0.000 A 
ATOM     14  C   UNL     1       3.228   4.071  19.920  0.00  0.00    +0.000 A 
ATOM     15  N   UNL     1       4.320   4.926  19.697  0.00  0.00    +0.000 N 
ATOM     16  C   UNL     1       4.885   5.128  18.430  0.00  0.00    +0.000 A 
ATOM     17  C   UNL     1       5.998   5.954  18.248  0.00  0.00    +0.000 A 
ATOM     18  H   UNL     1       4.827   5.281  20.500  0.00  0.00    +0.000 HD
ENDROOT
BRANCH   1  19
ATOM     19  O   UNL     1       7.609   6.990  16.904  0.00  0.00    +0.000 OA
BRANCH  19  20
ATOM     20  C   UNL     1       7.409   8.309  17.413  0.00  0.00    +0.000 C 
BRANCH  20  21
ATOM     21  C   UNL     1       8.521   8.636  18.393  0.00  0.00    +0.000 C 
BRANCH  21  22
ATOM     22  C   UNL     1       8.924  10.110  18.318  0.00  0.00    +0.000 C 
BRANCH  22  23
ATOM     23  C   UNL     1       9.758  10.547  19.522  0.00  0.00    +0.000 C 
BRANCH  23  24
ATOM     24  N   UNL     1       9.260  11.798  20.092  0.00  0.00    +0.000 NA
ATOM     25  H   UNL     1       8.407  12.082  19.613  0.00  0.00    +0.000 HD
BRANCH  24  27
ATOM     26  C   UNL     1      10.110  13.774  21.349  0.00  0.00    +0.000 C 
ATOM     27  C   UNL     1      10.205  12.927  20.069  0.00  0.00    +0.000 C 
ATOM     28  C   UNL     1       9.987  13.797  18.823  0.00  0.00    +0.000 C 
ATOM     29  C   UNL     1      11.619  12.317  20.001  0.00  0.00    +0.000 C 
ENDBRANCH  24  27
ENDBRANCH  23  24
ENDBRANCH  22  23
ENDBRANCH  21  22
ENDBRANCH  20  21
ENDBRANCH  19  20
ENDBRANCH   1  19
TORSDOF 7
ENDMDL
MODEL 4
REMARK VINA RESULT:      -7.9      5.744      7.948
REMARK  Name = 
REMARK  10 active torsions:
REMARK  status: ('A' for Active; 'I' for Inactive)
REMARK    1  A    between atoms: C_1  and  C_2
REMARK    2  A    between atoms: C_2  and  C_3
REMARK    3  A    between atoms: C_2  and  C_4
REMARK    4  A    between atoms: C_2  and  N_5
REMARK    5  A    between atoms: N_5  and  C_6
REMARK    6  A    between atoms: C_6  and  C_7
REMARK    7  A    between atoms: C_7  and  C_8
REMARK    8  A    between atoms: C_8  and  C_9
REMARK    9  A    between atoms: C_9  and  O_10
REMARK   10  A    between atoms: O_10  and  C_11
REMARK                            x       y       z     vdW  Elec       q    Type
REMARK                         _______ _______ _______ _____ _____    ______ ____
ROOT
ATOM      1  C   UNL     1       3.497   6.139  18.479  0.00  0.00    +0.000 A 
ATOM      2  C   UNL     1       3.473   7.083  17.451  0.00  0.00    +0.000 A 
ATOM      3  C   UNL     1       2.765   8.267  17.610  0.00  0.00    +0.000 A 
ATOM      4  C   UNL     1       2.078   8.503  18.800  0.00  0.00    +0.000 A 
ATOM      5  C   UNL     1       1.332   9.770  18.965  0.00  0.00    +0.000 A 
ATOM      6  O   UNL     1       1.342  10.601  18.065  0.00  0.00    +0.000 OA
ATOM      7  C   UNL     1       0.583   9.995  20.221  0.00  0.00    +0.000 A 
ATOM      8  C   UNL     1      -0.157  11.164  20.411  0.00  0.00    +0.000 A 
ATOM      9  F   UNL     1      -0.215  12.118  19.473  0.00  0.00    +0.000 F 
ATOM     10  C   UNL     1      -0.857  11.364  21.590  0.00  0.00    +0.000 A 
ATOM     11  C   UNL     1      -0.810  10.390  22.577  0.00  0.00    +0.000 A 
ATOM     12  F   UNL     1      -1.487  10.580  23.717  0.00  0.00    +0.000 F 
ATOM     13  C   UNL     1      -0.075   9.217  22.407  0.00  0.00    +0.000 A 
ATOM     14  C   UNL     1       0.627   9.003  21.220  0.00  0.00    +0.000 A 
ATOM     15  N   UNL     1       1.398   7.844  21.034  0.00  0.00    +0.000 N 
ATOM     16  C   UNL     1       2.078   7.562  19.841  0.00  0.00    +0.000 A 
ATOM     17  C   UNL     1       2.803   6.379  19.672  0.00  0.00    +0.000 A 
ATOM     18  H   UNL     1       1.327   7.102  21.721  0.00  0.00    +0.000 HD
ENDROOT
BRANCH   1  19
ATOM     19  O   UNL     1       4.175   4.952  18.425  0.00  0.00    +0.000 OA
BRANCH  19  20
ATOM     20  C   UNL     1       5.378   4.962  17.655  0.00  0.00    +0.000 C 
BRANCH  20  21
ATOM     21  C   UNL     1       5.157   4.167  16.382  0.00  0.00    +0.000 C 
BRANCH  21  22
ATOM     22  C   UNL     1       5.535   4.975  15.138  0.00  0.00    +0.000 C 
BRANCH  22  23
ATOM     23  C   UNL     1       6.615   4.287  14.303  0.00  0.00    +0.000 C 
BRANCH  23  24
ATOM     24  N   UNL     1       6.090   3.108  13.615  0.00  0.00    +0.000 NA
ATOM     25  H   UNL     1       6.608   2.279  13.903  0.00  0.00    +0.000 HD
BRANCH  24  27
ATOM     26  C   UNL     1       4.709   3.519  11.583  0.00  0.00    +0.000 C 
ATOM     27  C   UNL     1       6.099   3.176  12.144  0.00  0.00    +0.000 C 
ATOM     28  C   UNL     1       6.622   1.867  11.539  0.00  0.00    +0.000 C 
ATOM     29  C   UNL     1       7.065   4.315  11.762  0.00  0.00    +0.000 C 
ENDBRANCH  24  27
ENDBRANCH  23  24
ENDBRANCH  22  23
ENDBRANCH  21  22
ENDBRANCH  20  21
ENDBRANCH  19  20
ENDBRANCH   1  19
TORSDOF 7
ENDMDL
MODEL 5
REMARK VINA RESULT:      -7.9      6.095      8.390
REMARK  Name = 
REMARK  10 active torsions:
REMARK  status: ('A' for Active; 'I' for Inactive)
REMARK    1  A    between atoms: C_1  and  C_2
REMARK    2  A    between atoms: C_2  and  C_3
REMARK    3  A    between atoms: C_2  and  C_4
REMARK    4  A    between atoms: C_2  and  N_5
REMARK    5  A    between atoms: N_5  and  C_6
REMARK    6  A    between atoms: C_6  and  C_7
REMARK    7  A    between atoms: C_7  and  C_8
REMARK    8  A    between atoms: C_8  and  C_9
REMARK    9  A    between atoms: C_9  and  O_10
REMARK   10  A    between atoms: O_10  and  C_11
REMARK                            x       y       z     vdW  Elec       q    Type
REMARK                         _______ _______ _______ _____ _____    ______ ____
ROOT
ATOM      1  C   UNL     1       2.464   7.276  19.266  0.00  0.00    +0.000 A 
ATOM      2  C   UNL     1       2.343   8.061  18.117  0.00  0.00    +0.000 A 
ATOM      3  C   UNL     1       1.579   9.219  18.143  0.00  0.00    +0.000 A 
ATOM      4  C   UNL     1       0.932   9.590  19.321  0.00  0.00    +0.000 A 
ATOM      5  C   UNL     1       0.124  10.830  19.343  0.00  0.00    +0.000 A 
ATOM      6  O   UNL     1       0.051  11.522  18.336  0.00  0.00    +0.000 OA
ATOM      7  C   UNL     1      -0.581  11.196  20.591  0.00  0.00    +0.000 A 
ATOM      8  C   UNL     1      -1.375  12.342  20.653  0.00  0.00    +0.000 A 
ATOM      9  F   UNL     1      -1.526  13.148  19.594  0.00  0.00    +0.000 F 
ATOM     10  C   UNL     1      -2.033  12.675  21.825  0.00  0.00    +0.000 A 
ATOM     11  C   UNL     1      -1.891  11.856  22.936  0.00  0.00    +0.000 A 
ATOM     12  F   UNL     1      -2.527  12.175  24.071  0.00  0.00    +0.000 F 
ATOM     13  C   UNL     1      -1.100  10.708  22.896  0.00  0.00    +0.000 A 
ATOM     14  C   UNL     1      -0.440  10.360  21.717  0.00  0.00    +0.000 A 
ATOM     15  N   UNL     1       0.385   9.225  21.657  0.00  0.00    +0.000 N 
ATOM     16  C   UNL     1       1.028   8.809  20.483  0.00  0.00    +0.000 A 
ATOM     17  C   UNL     1       1.809   7.651  20.446  0.00  0.00    +0.000 A 
ATOM     18  H   UNL     1       0.386   8.587  22.445  0.00  0.00    +0.000 HD
ENDROOT
BRANCH   1  19
ATOM     19  O   UNL     1       3.203   6.127  19.345  0.00  0.00    +0.000 OA
BRANCH  19  20
ATOM     20  C   UNL     1       2.532   4.998  19.907  0.00  0.00    +0.000 C 
BRANCH  20  21
ATOM     21  C   UNL     1       2.025   4.115  18.782  0.00  0.00    +0.000 C 
BRANCH  21  22
ATOM     22  C   UNL     1       2.980   2.951  18.504  0.00  0.00    +0.000 C 
BRANCH  22  23
ATOM     23  C   UNL     1       3.952   3.255  17.364  0.00  0.00    +0.000 C 
BRANCH  23  24
ATOM     24  N   UNL     1       5.178   3.880  17.859  0.00  0.00    +0.000 NA
ATOM     25  H   UNL     1       4.959   4.518  18.622  0.00  0.00    +0.000 HD
BRANCH  24  27
ATOM     26  C   UNL     1       5.453   6.047  16.662  0.00  0.00    +0.000 C 
ATOM     27  C   UNL     1       5.968   4.611  16.853  0.00  0.00    +0.000 C 
ATOM     28  C   UNL     1       5.985   3.856  15.517  0.00  0.00    +0.000 C 
ATOM     29  C   UNL     1       7.409   4.686  17.394  0.00  0.00    +0.000 C 
ENDBRANCH  24  27
ENDBRANCH  23  24
ENDBRANCH  22  23
ENDBRANCH  21  22
ENDBRANCH  20  21
ENDBRANCH  19  20
ENDBRANCH   1  19
TORSDOF 7
ENDMDL
MODEL 6
REMARK VINA RESULT:      -7.7      6.319      8.066
REMARK  Name = 
REMARK  10 active torsions:
REMARK  status: ('A' for Active; 'I' for Inactive)
REMARK    1  A    between atoms: C_1  and  C_2
REMARK    2  A    between atoms: C_2  and  C_3
REMARK    3  A    between atoms: C_2  and  C_4
REMARK    4  A    between atoms: C_2  and  N_5
REMARK    5  A    between atoms: N_5  and  C_6
REMARK    6  A    between atoms: C_6  and  C_7
REMARK    7  A    between atoms: C_7  and  C_8
REMARK    8  A    between atoms: C_8  and  C_9
REMARK    9  A    between atoms: C_9  and  O_10
REMARK   10  A    between atoms: O_10  and  C_11
REMARK                            x       y       z     vdW  Elec       q    Type
REMARK                         _______ _______ _______ _____ _____    ______ ____
ROOT
ATOM      1  C   UNL     1       2.276   7.568  19.240  0.00  0.00    +0.000 A 
ATOM      2  C   UNL     1       2.078   8.324  18.083  0.00  0.00    +0.000 A 
ATOM      3  C   UNL     1       1.273   9.455  18.120  0.00  0.00    +0.000 A 
ATOM      4  C   UNL     1       0.662   9.825  19.317  0.00  0.00    +0.000 A 
ATOM      5  C   UNL     1      -0.189  11.035  19.351  0.00  0.00    +0.000 A 
ATOM      6  O   UNL     1      -0.331  11.704  18.335  0.00  0.00    +0.000 OA
ATOM      7  C   UNL     1      -0.854  11.400  20.621  0.00  0.00    +0.000 A 
ATOM      8  C   UNL     1      -1.687  12.518  20.695  0.00  0.00    +0.000 A 
ATOM      9  F   UNL     1      -1.913  13.296  19.629  0.00  0.00    +0.000 F 
ATOM     10  C   UNL     1      -2.308  12.850  21.888  0.00  0.00    +0.000 A 
ATOM     11  C   UNL     1      -2.088  12.060  23.007  0.00  0.00    +0.000 A 
ATOM     12  F   UNL     1      -2.687  12.378  24.162  0.00  0.00    +0.000 F 
ATOM     13  C   UNL     1      -1.257  10.941  22.954  0.00  0.00    +0.000 A 
ATOM     14  C   UNL     1      -0.635  10.594  21.755  0.00  0.00    +0.000 A 
ATOM     15  N   UNL     1       0.229   9.489  21.681  0.00  0.00    +0.000 N 
ATOM     16  C   UNL     1       0.836   9.072  20.489  0.00  0.00    +0.000 A 
ATOM     17  C   UNL     1       1.658   7.943  20.440  0.00  0.00    +0.000 A 
ATOM     18  H   UNL     1       0.286   8.867  22.480  0.00  0.00    +0.000 HD
ENDROOT
BRANCH   1  19
ATOM     19  O   UNL     1       3.060   6.449  19.309  0.00  0.00    +0.000 OA
BRANCH  19  20
ATOM     20  C   UNL     1       2.364   5.203  19.255  0.00  0.00    +0.000 C 
BRANCH  20  21
ATOM     21  C   UNL     1       3.182   4.214  18.446  0.00  0.00    +0.000 C 
BRANCH  21  22
ATOM     22  C   UNL     1       4.399   3.714  19.228  0.00  0.00    +0.000 C 
BRANCH  22  23
ATOM     23  C   UNL     1       5.719   4.153  18.594  0.00  0.00    +0.000 C 
BRANCH  23  24
ATOM     24  N   UNL     1       5.821   5.610  18.526  0.00  0.00    +0.000 NA
ATOM     25  H   UNL     1       4.914   6.031  18.723  0.00  0.00    +0.000 HD
BRANCH  24  27
ATOM     26  C   UNL     1       7.379   7.245  17.474  0.00  0.00    +0.000 C 
ATOM     27  C   UNL     1       6.320   6.153  17.251  0.00  0.00    +0.000 C 
ATOM     28  C   UNL     1       5.164   6.683  16.393  0.00  0.00    +0.000 C 
ATOM     29  C   UNL     1       6.988   4.981  16.505  0.00  0.00    +0.000 C 
ENDBRANCH  24  27
ENDBRANCH  23  24
ENDBRANCH  22  23
ENDBRANCH  21  22
ENDBRANCH  20  21
ENDBRANCH  19  20
ENDBRANCH   1  19
TORSDOF 7
ENDMDL
MODEL 7
REMARK VINA RESULT:      -7.7      5.042      7.035
REMARK  Name = 
REMARK  10 active torsions:
REMARK  status: ('A' for Active; 'I' for Inactive)
REMARK    1  A    between atoms: C_1  and  C_2
REMARK    2  A    between atoms: C_2  and  C_3
REMARK    3  A    between atoms: C_2  and  C_4
REMARK    4  A    between atoms: C_2  and  N_5
REMARK    5  A    between atoms: N_5  and  C_6
REMARK    6  A    between atoms: C_6  and  C_7
REMARK    7  A    between atoms: C_7  and  C_8
REMARK    8  A    between atoms: C_8  and  C_9
REMARK    9  A    between atoms: C_9  and  O_10
REMARK   10  A    between atoms: O_10  and  C_11
REMARK                            x       y       z     vdW  Elec       q    Type
REMARK                         _______ _______ _______ _____ _____    ______ ____
ROOT
ATOM      1  C   UNL     1       3.389   5.956  18.781  0.00  0.00    +0.000 A 
ATOM      2  C   UNL     1       3.422   6.846  17.706  0.00  0.00    +0.000 A 
ATOM      3  C   UNL     1       2.748   8.057  17.784  0.00  0.00    +0.000 A 
ATOM      4  C   UNL     1       2.037   8.375  18.941  0.00  0.00    +0.000 A 
ATOM      5  C   UNL     1       1.327   9.671  19.020  0.00  0.00    +0.000 A 
ATOM      6  O   UNL     1       1.388  10.453  18.080  0.00  0.00    +0.000 OA
ATOM      7  C   UNL     1       0.553   9.983  20.242  0.00  0.00    +0.000 A 
ATOM      8  C   UNL     1      -0.155  11.181  20.352  0.00  0.00    +0.000 A 
ATOM      9  F   UNL     1      -0.157  12.087  19.365  0.00  0.00    +0.000 F 
ATOM     10  C   UNL     1      -0.879  11.463  21.499  0.00  0.00    +0.000 A 
ATOM     11  C   UNL     1      -0.890  10.541  22.534  0.00  0.00    +0.000 A 
ATOM     12  F   UNL     1      -1.590  10.809  23.644  0.00  0.00    +0.000 F 
ATOM     13  C   UNL     1      -0.187   9.339  22.445  0.00  0.00    +0.000 A 
ATOM     14  C   UNL     1       0.538   9.043  21.291  0.00  0.00    +0.000 A 
ATOM     15  N   UNL     1       1.277   7.853  21.186  0.00  0.00    +0.000 N 
ATOM     16  C   UNL     1       1.979   7.489  20.028  0.00  0.00    +0.000 A 
ATOM     17  C   UNL     1       2.671   6.278  19.940  0.00  0.00    +0.000 A 
ATOM     18  H   UNL     1       1.165   7.150  21.907  0.00  0.00    +0.000 HD
ENDROOT
BRANCH   1  19
ATOM     19  O   UNL     1       4.030   4.747  18.806  0.00  0.00    +0.000 OA
BRANCH  19  20
ATOM     20  C   UNL     1       5.243   4.709  19.560  0.00  0.00    +0.000 C 
BRANCH  20  21
ATOM     21  C   UNL     1       6.408   4.495  18.611  0.00  0.00    +0.000 C 
BRANCH  21  22
ATOM     22  C   UNL     1       7.238   5.770  18.439  0.00  0.00    +0.000 C 
BRANCH  22  23
ATOM     23  C   UNL     1       7.192   6.306  17.008  0.00  0.00    +0.000 C 
BRANCH  23  24
ATOM     24  N   UNL     1       7.554   5.273  16.039  0.00  0.00    +0.000 NA
ATOM     25  H   UNL     1       8.397   5.548  15.536  0.00  0.00    +0.000 HD
BRANCH  24  27
ATOM     26  C   UNL     1       5.386   5.982  15.038  0.00  0.00    +0.000 C 
ATOM     27  C   UNL     1       6.513   4.936  15.052  0.00  0.00    +0.000 C 
ATOM     28  C   UNL     1       5.950   3.532  15.309  0.00  0.00    +0.000 C 
ATOM     29  C   UNL     1       7.196   4.947  13.670  0.00  0.00    +0.000 C 
ENDBRANCH  24  27
ENDBRANCH  23  24
ENDBRANCH  22  23
ENDBRANCH  21  22
ENDBRANCH  20  21
ENDBRANCH  19  20
ENDBRANCH   1  19
TORSDOF 7
ENDMDL
MODEL 8
REMARK VINA RESULT:      -7.7      6.110      8.384
REMARK  Name = 
REMARK  10 active torsions:
REMARK  status: ('A' for Active; 'I' for Inactive)
REMARK    1  A    between atoms: C_1  and  C_2
REMARK    2  A    between atoms: C_2  and  C_3
REMARK    3  A    between atoms: C_2  and  C_4
REMARK    4  A    between atoms: C_2  and  N_5
REMARK    5  A    between atoms: N_5  and  C_6
REMARK    6  A    between atoms: C_6  and  C_7
REMARK    7  A    between atoms: C_7  and  C_8
REMARK    8  A    between atoms: C_8  and  C_9
REMARK    9  A    between atoms: C_9  and  O_10
REMARK   10  A    between atoms: O_10  and  C_11
REMARK                            x       y       z     vdW  Elec       q    Type
REMARK                         _______ _______ _______ _____ _____    ______ ____
ROOT
ATOM      1  C   UNL     1       1.389   8.586  20.081  0.00  0.00    +0.000 A 
ATOM      2  C   UNL     1       1.194   7.411  20.810  0.00  0.00    +0.000 A 
ATOM      3  C   UNL     1       1.819   6.236  20.416  0.00  0.00    +0.000 A 
ATOM      4  C   UNL     1       2.637   6.237  19.287  0.00  0.00    +0.000 A 
ATOM      5  C   UNL     1       3.305   4.982  18.877  0.00  0.00    +0.000 A 
ATOM      6  O   UNL     1       3.147   3.966  19.542  0.00  0.00    +0.000 OA
ATOM      7  C   UNL     1       4.147   4.991  17.661  0.00  0.00    +0.000 A 
ATOM      8  C   UNL     1       4.776   3.825  17.220  0.00  0.00    +0.000 A 
ATOM      9  F   UNL     1       4.644   2.666  17.876  0.00  0.00    +0.000 F 
ATOM     10  C   UNL     1       5.561   3.843  16.078  0.00  0.00    +0.000 A 
ATOM     11  C   UNL     1       5.713   5.033  15.382  0.00  0.00    +0.000 A 
ATOM     12  F   UNL     1       6.470   5.053  14.277  0.00  0.00    +0.000 F 
ATOM     13  C   UNL     1       5.095   6.208  15.807  0.00  0.00    +0.000 A 
ATOM     14  C   UNL     1       4.297   6.199  16.951  0.00  0.00    +0.000 A 
ATOM     15  N   UNL     1       3.686   7.374  17.418  0.00  0.00    +0.000 N 
ATOM     16  C   UNL     1       2.836   7.403  18.532  0.00  0.00    +0.000 A 
ATOM     17  C   UNL     1       2.210   8.582  18.946  0.00  0.00    +0.000 A 
ATOM     18  H   UNL     1       3.724   8.202  16.833  0.00  0.00    +0.000 HD
ENDROOT
BRANCH   1  19
ATOM     19  O   UNL     1       0.831   9.795  20.396  0.00  0.00    +0.000 OA
BRANCH  19  20
ATOM     20  C   UNL     1       0.557  10.655  19.289  0.00  0.00    +0.000 C 
BRANCH  20  21
ATOM     21  C   UNL     1       0.190  12.032  19.812  0.00  0.00    +0.000 C 
BRANCH  21  22
ATOM     22  C   UNL     1      -0.614  12.831  18.783  0.00  0.00    +0.000 C 
BRANCH  22  23
ATOM     23  C   UNL     1      -1.961  12.183  18.466  0.00  0.00    +0.000 C 
BRANCH  23  24
ATOM     24  N   UNL     1      -2.113  11.938  17.032  0.00  0.00    +0.000 NA
ATOM     25  H   UNL     1      -2.330  12.810  16.553  0.00  0.00    +0.000 HD
BRANCH  24  27
ATOM     26  C   UNL     1      -4.547  11.535  16.690  0.00  0.00    +0.000 C 
ATOM     27  C   UNL     1      -3.130  10.939  16.664  0.00  0.00    +0.000 C 
ATOM     28  C   UNL     1      -3.041   9.707  17.575  0.00  0.00    +0.000 C 
ATOM     29  C   UNL     1      -2.819  10.505  15.218  0.00  0.00    +0.000 C 
ENDBRANCH  24  27
ENDBRANCH  23  24
ENDBRANCH  22  23
ENDBRANCH  21  22
ENDBRANCH  20  21
ENDBRANCH  19  20
ENDBRANCH   1  19
TORSDOF 7
ENDMDL
MODEL 9
REMARK VINA RESULT:      -7.7      6.247      9.183
REMARK  Name = 
REMARK  10 active torsions:
REMARK  status: ('A' for Active; 'I' for Inactive)
REMARK    1  A    between atoms: C_1  and  C_2
REMARK    2  A    between atoms: C_2  and  C_3
REMARK    3  A    between atoms: C_2  and  C_4
REMARK    4  A    between atoms: C_2  and  N_5
REMARK    5  A    between atoms: N_5  and  C_6
REMARK    6  A    between atoms: C_6  and  C_7
REMARK    7  A    between atoms: C_7  and  C_8
REMARK    8  A    between atoms: C_8  and  C_9
REMARK    9  A    between atoms: C_9  and  O_10
REMARK   10  A    between atoms: O_10  and  C_11
REMARK                            x       y       z     vdW  Elec       q    Type
REMARK                         _______ _______ _______ _____ _____    ______ ____
ROOT
ATOM      1  C   UNL     1       2.376   7.667  19.003  0.00  0.00    +0.000 A 
ATOM      2  C   UNL     1       2.060   8.403  17.860  0.00  0.00    +0.000 A 
ATOM      3  C   UNL     1       1.183   9.476  17.943  0.00  0.00    +0.000 A 
ATOM      4  C   UNL     1       0.619   9.809  19.173  0.00  0.00    +0.000 A 
ATOM      5  C   UNL     1      -0.310  10.957  19.256  0.00  0.00    +0.000 A 
ATOM      6  O   UNL     1      -0.557  11.611  18.250  0.00  0.00    +0.000 OA
ATOM      7  C   UNL     1      -0.924  11.282  20.563  0.00  0.00    +0.000 A 
ATOM      8  C   UNL     1      -1.826  12.341  20.684  0.00  0.00    +0.000 A 
ATOM      9  F   UNL     1      -2.166  13.097  19.633  0.00  0.00    +0.000 F 
ATOM     10  C   UNL     1      -2.398  12.635  21.912  0.00  0.00    +0.000 A 
ATOM     11  C   UNL     1      -2.060  11.866  23.016  0.00  0.00    +0.000 A 
ATOM     12  F   UNL     1      -2.612  12.147  24.204  0.00  0.00    +0.000 F 
ATOM     13  C   UNL     1      -1.159  10.806  22.915  0.00  0.00    +0.000 A 
ATOM     14  C   UNL     1      -0.584  10.497  21.682  0.00  0.00    +0.000 A 
ATOM     15  N   UNL     1       0.347   9.454  21.559  0.00  0.00    +0.000 N 
ATOM     16  C   UNL     1       0.912   9.074  20.333  0.00  0.00    +0.000 A 
ATOM     17  C   UNL     1       1.805   8.004  20.237  0.00  0.00    +0.000 A 
ATOM     18  H   UNL     1       0.493   8.841  22.353  0.00  0.00    +0.000 HD
ENDROOT
BRANCH   1  19
ATOM     19  O   UNL     1       3.238   6.605  19.027  0.00  0.00    +0.000 OA
BRANCH  19  20
ATOM     20  C   UNL     1       3.964   6.371  17.819  0.00  0.00    +0.000 C 
BRANCH  20  21
ATOM     21  C   UNL     1       4.848   5.151  18.000  0.00  0.00    +0.000 C 
BRANCH  21  22
ATOM     22  C   UNL     1       4.320   3.949  17.214  0.00  0.00    +0.000 C 
BRANCH  22  23
ATOM     23  C   UNL     1       3.230   3.191  17.971  0.00  0.00    +0.000 C 
BRANCH  23  24
ATOM     24  N   UNL     1       3.187   3.582  19.379  0.00  0.00    +0.000 NA
ATOM     25  H   UNL     1       4.010   3.228  19.863  0.00  0.00    +0.000 HD
BRANCH  24  27
ATOM     26  C   UNL     1       1.263   2.000  19.404  0.00  0.00    +0.000 C 
ATOM     27  C   UNL     1       1.989   3.150  20.120  0.00  0.00    +0.000 C 
ATOM     28  C   UNL     1       1.038   4.331  20.358  0.00  0.00    +0.000 C 
ATOM     29  C   UNL     1       2.480   2.631  21.486  0.00  0.00    +0.000 C 
ENDBRANCH  24  27
ENDBRANCH  23  24
ENDBRANCH  22  23
ENDBRANCH  21  22
ENDBRANCH  20  21
ENDBRANCH  19  20
ENDBRANCH   1  19
TORSDOF 7
ENDMDL
