MODEL 1
REMARK VINA RESULT:      -7.9      0.000      0.000
REMARK  Name = 
REMARK  7 active torsions:
REMARK  status: ('A' for Active; 'I' for Inactive)
REMARK    1  A    between atoms: C_2  and  C_3
REMARK    2  A    between atoms: C_2  and  C_14
REMARK    3  A    between atoms: C_3  and  C_4
REMARK    4  A    between atoms: C_4  and  C_5
REMARK    5  A    between atoms: C_5  and  C_6
REMARK    6  A    between atoms: C_6  and  C_7
REMARK    7  A    between atoms: C_7  and  C_8
REMARK                            x       y       z     vdW  Elec       q    Type
REMARK                         _______ _______ _______ _____ _____    ______ ____
ROOT
ATOM      1  O   UNL     1       7.555   4.360  18.514  0.00  0.00    +0.000 OA
ATOM      2  C   UNL     1       6.787   4.916  17.728  0.00  0.00    +0.000 C 
ENDROOT
BRANCH   2   3
ATOM      3  C   UNL     1       6.871   4.771  16.289  0.00  0.00    +0.000 A 
ATOM      4  N   UNL     1       7.586   5.525  15.468  0.00  0.00    +0.000 NA
ATOM      5  C   UNL     1       7.296   5.009  14.239  0.00  0.00    +0.000 A 
ATOM      6  N   UNL     1       7.779   5.442  13.052  0.00  0.00    +0.000 NA
ATOM      7  C   UNL     1       7.297   4.756  11.987  0.00  0.00    +0.000 A 
ATOM      8  C   UNL     1       6.385   3.698  12.039  0.00  0.00    +0.000 A 
ATOM      9  C   UNL     1       5.904   3.257  13.272  0.00  0.00    +0.000 A 
ATOM     10  C   UNL     1       6.402   3.959  14.356  0.00  0.00    +0.000 A 
ATOM     11  O   UNL     1       6.131   3.785  15.677  0.00  0.00    +0.000 OA
ENDBRANCH   2   3
BRANCH   2  12
ATOM     12  C   UNL     1       5.654   5.810  18.220  0.00  0.00    +0.000 C 
BRANCH  12  13
ATOM     13  C   UNL     1       4.682   6.170  17.098  0.00  0.00    +0.000 C 
BRANCH  13  14
ATOM     14  C   UNL     1       3.772   7.330  17.497  0.00  0.00    +0.000 C 
BRANCH  14  15
ATOM     15  C   UNL     1       2.628   6.852  18.393  0.00  0.00    +0.000 C 
BRANCH  15  16
ATOM     16  C   UNL     1       2.032   5.543  17.869  0.00  0.00    +0.000 C 
BRANCH  16  17
ATOM     17  C   UNL     1       1.855   4.524  18.965  0.00  0.00    +0.000 A 
ATOM     18  C   UNL     1       2.119   4.858  20.300  0.00  0.00    +0.000 A 
ATOM     19  C   UNL     1       1.987   3.899  21.308  0.00  0.00    +0.000 A 
ATOM     20  C   UNL     1       1.593   2.601  20.989  0.00  0.00    +0.000 A 
ATOM     21  C   UNL     1       1.321   2.261  19.666  0.00  0.00    +0.000 A 
ATOM     22  C   UNL     1       1.452   3.218  18.657  0.00  0.00    +0.000 A 
ENDBRANCH  16  17
ENDBRANCH  15  16
ENDBRANCH  14  15
ENDBRANCH  13  14
ENDBRANCH  12  13
ENDBRANCH   2  12
TORSDOF 7
ENDMDL
MODEL 2
REMARK VINA RESULT:      -7.7      2.722      4.930
REMARK  Name = 
REMARK  7 active torsions:
REMARK  status: ('A' for Active; 'I' for Inactive)
REMARK    1  A    between atoms: C_2  and  C_3
REMARK    2  A    between atoms: C_2  and  C_14
REMARK    3  A    between atoms: C_3  and  C_4
REMARK    4  A    between atoms: C_4  and  C_5
REMARK    5  A    between atoms: C_5  and  C_6
REMARK    6  A    between atoms: C_6  and  C_7
REMARK    7  A    between atoms: C_7  and  C_8
REMARK                            x       y       z     vdW  Elec       q    Type
REMARK                         _______ _______ _______ _____ _____    ______ ____
ROOT
ATOM      1  O   UNL     1       3.742   1.036  18.502  0.00  0.00    +0.000 OA
ATOM      2  C   UNL     1       3.418   2.216  18.359  0.00  0.00    +0.000 C 
ENDROOT
BRANCH   2   3
ATOM      3  C   UNL     1       4.371   3.289  18.161  0.00  0.00    +0.000 A 
ATOM      4  N   UNL     1       4.570   3.960  17.037  0.00  0.00    +0.000 NA
ATOM      5  C   UNL     1       5.580   4.819  17.360  0.00  0.00    +0.000 A 
ATOM      6  N   UNL     1       6.157   5.726  16.539  0.00  0.00    +0.000 NA
ATOM      7  C   UNL     1       7.156   6.428  17.124  0.00  0.00    +0.000 A 
ATOM      8  C   UNL     1       7.601   6.279  18.441  0.00  0.00    +0.000 A 
ATOM      9  C   UNL     1       6.989   5.346  19.277  0.00  0.00    +0.000 A 
ATOM     10  C   UNL     1       5.967   4.634  18.676  0.00  0.00    +0.000 A 
ATOM     11  O   UNL     1       5.183   3.658  19.210  0.00  0.00    +0.000 OA
ENDBRANCH   2   3
BRANCH   2  12
ATOM     12  C   UNL     1       1.956   2.648  18.368  0.00  0.00    +0.000 C 
BRANCH  12  13
ATOM     13  C   UNL     1       1.461   2.960  19.779  0.00  0.00    +0.000 C 
BRANCH  13  14
ATOM     14  C   UNL     1       1.084   4.433  19.926  0.00  0.00    +0.000 C 
BRANCH  14  15
ATOM     15  C   UNL     1       2.210   5.229  20.586  0.00  0.00    +0.000 C 
BRANCH  15  16
ATOM     16  C   UNL     1       2.877   6.171  19.580  0.00  0.00    +0.000 C 
BRANCH  16  17
ATOM     17  C   UNL     1       2.143   7.482  19.460  0.00  0.00    +0.000 A 
ATOM     18  C   UNL     1       2.141   8.192  18.251  0.00  0.00    +0.000 A 
ATOM     19  C   UNL     1       1.489   9.423  18.156  0.00  0.00    +0.000 A 
ATOM     20  C   UNL     1       0.837   9.956  19.267  0.00  0.00    +0.000 A 
ATOM     21  C   UNL     1       0.826   9.254  20.470  0.00  0.00    +0.000 A 
ATOM     22  C   UNL     1       1.478   8.023  20.568  0.00  0.00    +0.000 A 
ENDBRANCH  16  17
ENDBRANCH  15  16
ENDBRANCH  14  15
ENDBRANCH  13  14
ENDBRANCH  12  13
ENDBRANCH   2  12
TORSDOF 7
ENDMDL
MODEL 3
REMARK VINA RESULT:      -7.5      5.139      8.196
REMARK  Name = 
REMARK  7 active torsions:
REMARK  status: ('A' for Active; 'I' for Inactive)
REMARK    1  A    between atoms: C_2  and  C_3
REMARK    2  A    between atoms: C_2  and  C_14
REMARK    3  A    between atoms: C_3  and  C_4
REMARK    4  A    between atoms: C_4  and  C_5
REMARK    5  A    between atoms: C_5  and  C_6
REMARK    6  A    between atoms: C_6  and  C_7
REMARK    7  A    between atoms: C_7  and  C_8
REMARK                            x       y       z     vdW  Elec       q    Type
REMARK                         _______ _______ _______ _____ _____    ______ ____
ROOT
ATOM      1  O   UNL     1       7.859   4.621  17.098  0.00  0.00    +0.000 OA
ATOM      2  C   UNL     1       7.132   5.367  17.756  0.00  0.00    +0.000 C 
ENDROOT
BRANCH   2   3
ATOM      3  C   UNL     1       5.748   5.068  18.064  0.00  0.00    +0.000 A 
ATOM      4  N   UNL     1       5.115   5.370  19.187  0.00  0.00    +0.000 NA
ATOM      5  C   UNL     1       3.870   4.848  18.993  0.00  0.00    +0.000 A 
ATOM      6  N   UNL     1       2.837   4.887  19.866  0.00  0.00    +0.000 NA
ATOM      7  C   UNL     1       1.722   4.264  19.416  0.00  0.00    +0.000 A 
ATOM      8  C   UNL     1       1.585   3.619  18.183  0.00  0.00    +0.000 A 
ATOM      9  C   UNL     1       2.656   3.595  17.291  0.00  0.00    +0.000 A 
ATOM     10  C   UNL     1       3.791   4.237  17.754  0.00  0.00    +0.000 A 
ATOM     11  O   UNL     1       4.994   4.385  17.137  0.00  0.00    +0.000 OA
ENDBRANCH   2   3
BRANCH   2  12
ATOM     12  C   UNL     1       7.647   6.685  18.322  0.00  0.00    +0.000 C 
BRANCH  12  13
ATOM     13  C   UNL     1       7.674   7.789  17.266  0.00  0.00    +0.000 C 
BRANCH  13  14
ATOM     14  C   UNL     1       7.906   9.161  17.897  0.00  0.00    +0.000 C 
BRANCH  14  15
ATOM     15  C   UNL     1       9.069   9.124  18.889  0.00  0.00    +0.000 C 
BRANCH  15  16
ATOM     16  C   UNL     1       9.189  10.452  19.641  0.00  0.00    +0.000 C 
BRANCH  16  17
ATOM     17  C   UNL     1       9.796  11.534  18.784  0.00  0.00    +0.000 A 
ATOM     18  C   UNL     1       9.051  12.666  18.429  0.00  0.00    +0.000 A 
ATOM     19  C   UNL     1       9.606  13.648  17.605  0.00  0.00    +0.000 A 
ATOM     20  C   UNL     1      10.908  13.505  17.129  0.00  0.00    +0.000 A 
ATOM     21  C   UNL     1      11.660  12.387  17.483  0.00  0.00    +0.000 A 
ATOM     22  C   UNL     1      11.106  11.404  18.305  0.00  0.00    +0.000 A 
ENDBRANCH  16  17
ENDBRANCH  15  16
ENDBRANCH  14  15
ENDBRANCH  13  14
ENDBRANCH  12  13
ENDBRANCH   2  12
TORSDOF 7
ENDMDL
MODEL 4
REMARK VINA RESULT:      -7.5      1.110      1.512
REMARK  Name = 
REMARK  7 active torsions:
REMARK  status: ('A' for Active; 'I' for Inactive)
REMARK    1  A    between atoms: C_2  and  C_3
REMARK    2  A    between atoms: C_2  and  C_14
REMARK    3  A    between atoms: C_3  and  C_4
REMARK    4  A    between atoms: C_4  and  C_5
REMARK    5  A    between atoms: C_5  and  C_6
REMARK    6  A    between atoms: C_6  and  C_7
REMARK    7  A    between atoms: C_7  and  C_8
REMARK                            x       y       z     vdW  Elec       q    Type
REMARK                         _______ _______ _______ _____ _____    ______ ____
ROOT
ATOM      1  O   UNL     1       7.657   4.610  18.340  0.00  0.00    +0.000 OA
ATOM      2  C   UNL     1       6.687   4.856  17.622  0.00  0.00    +0.000 C 
ENDROOT
BRANCH   2   3
ATOM      3  C   UNL     1       6.679   4.646  16.188  0.00  0.00    +0.000 A 
ATOM      4  N   UNL     1       5.965   3.743  15.535  0.00  0.00    +0.000 NA
ATOM      5  C   UNL     1       6.340   3.928  14.236  0.00  0.00    +0.000 A 
ATOM      6  N   UNL     1       5.891   3.236  13.164  0.00  0.00    +0.000 NA
ATOM      7  C   UNL     1       6.459   3.620  11.995  0.00  0.00    +0.000 A 
ATOM      8  C   UNL     1       7.421   4.622  11.841  0.00  0.00    +0.000 A 
ATOM      9  C   UNL     1       7.866   5.333  12.955  0.00  0.00    +0.000 A 
ATOM     10  C   UNL     1       7.281   4.940  14.146  0.00  0.00    +0.000 A 
ATOM     11  O   UNL     1       7.498   5.422  15.399  0.00  0.00    +0.000 OA
ENDBRANCH   2   3
BRANCH   2  12
ATOM     12  C   UNL     1       5.386   5.401  18.199  0.00  0.00    +0.000 C 
BRANCH  12  13
ATOM     13  C   UNL     1       4.695   6.367  17.239  0.00  0.00    +0.000 C 
BRANCH  13  14
ATOM     14  C   UNL     1       3.486   7.035  17.891  0.00  0.00    +0.000 C 
BRANCH  14  15
ATOM     15  C   UNL     1       3.370   6.651  19.367  0.00  0.00    +0.000 C 
BRANCH  15  16
ATOM     16  C   UNL     1       1.930   6.275  19.723  0.00  0.00    +0.000 C 
BRANCH  16  17
ATOM     17  C   UNL     1       1.707   4.784  19.679  0.00  0.00    +0.000 A 
ATOM     18  C   UNL     1       1.626   4.039  20.863  0.00  0.00    +0.000 A 
ATOM     19  C   UNL     1       1.456   2.654  20.816  0.00  0.00    +0.000 A 
ATOM     20  C   UNL     1       1.366   2.003  19.587  0.00  0.00    +0.000 A 
ATOM     21  C   UNL     1       1.437   2.736  18.405  0.00  0.00    +0.000 A 
ATOM     22  C   UNL     1       1.608   4.120  18.450  0.00  0.00    +0.000 A 
ENDBRANCH  16  17
ENDBRANCH  15  16
ENDBRANCH  14  15
ENDBRANCH  13  14
ENDBRANCH  12  13
ENDBRANCH   2  12
TORSDOF 7
ENDMDL
MODEL 5
REMARK VINA RESULT:      -7.5      4.990      8.182
REMARK  Name = 
REMARK  7 active torsions:
REMARK  status: ('A' for Active; 'I' for Inactive)
REMARK    1  A    between atoms: C_2  and  C_3
REMARK    2  A    between atoms: C_2  and  C_14
REMARK    3  A    between atoms: C_3  and  C_4
REMARK    4  A    between atoms: C_4  and  C_5
REMARK    5  A    between atoms: C_5  and  C_6
REMARK    6  A    between atoms: C_6  and  C_7
REMARK    7  A    between atoms: C_7  and  C_8
REMARK                            x       y       z     vdW  Elec       q    Type
REMARK                         _______ _______ _______ _____ _____    ______ ____
ROOT
ATOM      1  O   UNL     1       6.695   5.459  19.756  0.00  0.00    +0.000 OA
ATOM      2  C   UNL     1       5.931   5.312  18.801  0.00  0.00    +0.000 C 
ENDROOT
BRANCH   2   3
ATOM      3  C   UNL     1       4.594   4.767  18.921  0.00  0.00    +0.000 A 
ATOM      4  N   UNL     1       3.684   5.121  19.814  0.00  0.00    +0.000 NA
ATOM      5  C   UNL     1       2.632   4.299  19.530  0.00  0.00    +0.000 A 
ATOM      6  N   UNL     1       1.443   4.263  20.174  0.00  0.00    +0.000 NA
ATOM      7  C   UNL     1       0.593   3.326  19.692  0.00  0.00    +0.000 A 
ATOM      8  C   UNL     1       0.855   2.446  18.638  0.00  0.00    +0.000 A 
ATOM      9  C   UNL     1       2.082   2.502  17.978  0.00  0.00    +0.000 A 
ATOM     10  C   UNL     1       2.946   3.463  18.472  0.00  0.00    +0.000 A 
ATOM     11  O   UNL     1       4.206   3.766  18.059  0.00  0.00    +0.000 OA
ENDBRANCH   2   3
BRANCH   2  12
ATOM     12  C   UNL     1       6.337   5.714  17.387  0.00  0.00    +0.000 C 
BRANCH  12  13
ATOM     13  C   UNL     1       7.642   6.507  17.371  0.00  0.00    +0.000 C 
BRANCH  13  14
ATOM     14  C   UNL     1       7.383   8.012  17.383  0.00  0.00    +0.000 C 
BRANCH  14  15
ATOM     15  C   UNL     1       8.427   8.746  18.226  0.00  0.00    +0.000 C 
BRANCH  15  16
ATOM     16  C   UNL     1       8.703  10.142  17.661  0.00  0.00    +0.000 C 
BRANCH  16  17
ATOM     17  C   UNL     1       9.731  10.888  18.474  0.00  0.00    +0.000 A 
ATOM     18  C   UNL     1       9.634  10.943  19.871  0.00  0.00    +0.000 A 
ATOM     19  C   UNL     1      10.569  11.665  20.616  0.00  0.00    +0.000 A 
ATOM     20  C   UNL     1      11.606  12.338  19.972  0.00  0.00    +0.000 A 
ATOM     21  C   UNL     1      11.716  12.282  18.584  0.00  0.00    +0.000 A 
ATOM     22  C   UNL     1      10.782  11.561  17.838  0.00  0.00    +0.000 A 
ENDBRANCH  16  17
ENDBRANCH  15  16
ENDBRANCH  14  15
ENDBRANCH  13  14
ENDBRANCH  12  13
ENDBRANCH   2  12
TORSDOF 7
ENDMDL
MODEL 6
REMARK VINA RESULT:      -7.4      0.674      1.268
REMARK  Name = 
REMARK  7 active torsions:
REMARK  status: ('A' for Active; 'I' for Inactive)
REMARK    1  A    between atoms: C_2  and  C_3
REMARK    2  A    between atoms: C_2  and  C_14
REMARK    3  A    between atoms: C_3  and  C_4
REMARK    4  A    between atoms: C_4  and  C_5
REMARK    5  A    between atoms: C_5  and  C_6
REMARK    6  A    between atoms: C_6  and  C_7
REMARK    7  A    between atoms: C_7  and  C_8
REMARK                            x       y       z     vdW  Elec       q    Type
REMARK                         _______ _______ _______ _____ _____    ______ ____
ROOT
ATOM      1  O   UNL     1       7.745   4.611  18.568  0.00  0.00    +0.000 OA
ATOM      2  C   UNL     1       6.770   4.662  17.817  0.00  0.00    +0.000 C 
ENDROOT
BRANCH   2   3
ATOM      3  C   UNL     1       6.869   4.616  16.373  0.00  0.00    +0.000 A 
ATOM      4  N   UNL     1       7.579   5.433  15.611  0.00  0.00    +0.000 NA
ATOM      5  C   UNL     1       7.307   4.997  14.347  0.00  0.00    +0.000 A 
ATOM      6  N   UNL     1       7.794   5.516  13.197  0.00  0.00    +0.000 NA
ATOM      7  C   UNL     1       7.332   4.896  12.084  0.00  0.00    +0.000 A 
ATOM      8  C   UNL     1       6.437   3.822  12.056  0.00  0.00    +0.000 A 
ATOM      9  C   UNL     1       5.952   3.293  13.251  0.00  0.00    +0.000 A 
ATOM     10  C   UNL     1       6.430   3.927  14.385  0.00  0.00    +0.000 A 
ATOM     11  O   UNL     1       6.150   3.661  15.689  0.00  0.00    +0.000 OA
ENDBRANCH   2   3
BRANCH   2  12
ATOM     12  C   UNL     1       5.350   4.766  18.362  0.00  0.00    +0.000 C 
BRANCH  12  13
ATOM     13  C   UNL     1       4.576   5.917  17.722  0.00  0.00    +0.000 C 
BRANCH  13  14
ATOM     14  C   UNL     1       3.069   5.748  17.907  0.00  0.00    +0.000 C 
BRANCH  14  15
ATOM     15  C   UNL     1       2.459   6.961  18.611  0.00  0.00    +0.000 C 
BRANCH  15  16
ATOM     16  C   UNL     1       2.077   6.621  20.055  0.00  0.00    +0.000 C 
BRANCH  16  17
ATOM     17  C   UNL     1       1.904   5.137  20.258  0.00  0.00    +0.000 A 
ATOM     18  C   UNL     1       1.034   4.401  19.443  0.00  0.00    +0.000 A 
ATOM     19  C   UNL     1       0.851   3.033  19.659  0.00  0.00    +0.000 A 
ATOM     20  C   UNL     1       1.533   2.392  20.692  0.00  0.00    +0.000 A 
ATOM     21  C   UNL     1       2.406   3.113  21.503  0.00  0.00    +0.000 A 
ATOM     22  C   UNL     1       2.590   4.480  21.288  0.00  0.00    +0.000 A 
ENDBRANCH  16  17
ENDBRANCH  15  16
ENDBRANCH  14  15
ENDBRANCH  13  14
ENDBRANCH  12  13
ENDBRANCH   2  12
TORSDOF 7
ENDMDL
MODEL 7
REMARK VINA RESULT:      -7.4      0.926      1.385
REMARK  Name = 
REMARK  7 active torsions:
REMARK  status: ('A' for Active; 'I' for Inactive)
REMARK    1  A    between atoms: C_2  and  C_3
REMARK    2  A    between atoms: C_2  and  C_14
REMARK    3  A    between atoms: C_3  and  C_4
REMARK    4  A    between atoms: C_4  and  C_5
REMARK    5  A    between atoms: C_5  and  C_6
REMARK    6  A    between atoms: C_6  and  C_7
REMARK    7  A    between atoms: C_7  and  C_8
REMARK                            x       y       z     vdW  Elec       q    Type
REMARK                         _______ _______ _______ _____ _____    ______ ____
ROOT
ATOM      1  O   UNL     1       7.389   5.517  18.679  0.00  0.00    +0.000 OA
ATOM      2  C   UNL     1       6.487   5.215  17.897  0.00  0.00    +0.000 C 
ENDROOT
BRANCH   2   3
ATOM      3  C   UNL     1       6.692   5.014  16.477  0.00  0.00    +0.000 A 
ATOM      4  N   UNL     1       7.538   5.681  15.707  0.00  0.00    +0.000 NA
ATOM      5  C   UNL     1       7.324   5.146  14.470  0.00  0.00    +0.000 A 
ATOM      6  N   UNL     1       7.947   5.499  13.323  0.00  0.00    +0.000 NA
ATOM      7  C   UNL     1       7.514   4.814  12.238  0.00  0.00    +0.000 A 
ATOM      8  C   UNL     1       6.521   3.830  12.232  0.00  0.00    +0.000 A 
ATOM      9  C   UNL     1       5.894   3.472  13.424  0.00  0.00    +0.000 A 
ATOM     10  C   UNL     1       6.343   4.171  14.531  0.00  0.00    +0.000 A 
ATOM     11  O   UNL     1       5.937   4.065  15.825  0.00  0.00    +0.000 OA
ENDBRANCH   2   3
BRANCH   2  12
ATOM     12  C   UNL     1       5.053   5.012  18.374  0.00  0.00    +0.000 C 
BRANCH  12  13
ATOM     13  C   UNL     1       4.159   6.199  18.020  0.00  0.00    +0.000 C 
BRANCH  13  14
ATOM     14  C   UNL     1       2.697   5.779  17.892  0.00  0.00    +0.000 C 
BRANCH  14  15
ATOM     15  C   UNL     1       2.571   4.409  17.222  0.00  0.00    +0.000 C 
BRANCH  15  16
ATOM     16  C   UNL     1       1.474   3.574  17.886  0.00  0.00    +0.000 C 
BRANCH  16  17
ATOM     17  C   UNL     1       1.832   3.192  19.300  0.00  0.00    +0.000 A 
ATOM     18  C   UNL     1       3.084   2.635  19.594  0.00  0.00    +0.000 A 
ATOM     19  C   UNL     1       3.397   2.250  20.899  0.00  0.00    +0.000 A 
ATOM     20  C   UNL     1       2.463   2.416  21.920  0.00  0.00    +0.000 A 
ATOM     21  C   UNL     1       1.218   2.976  21.639  0.00  0.00    +0.000 A 
ATOM     22  C   UNL     1       0.903   3.361  20.335  0.00  0.00    +0.000 A 
ENDBRANCH  16  17
ENDBRANCH  15  16
ENDBRANCH  14  15
ENDBRANCH  13  14
ENDBRANCH  12  13
ENDBRANCH   2  12
TORSDOF 7
ENDMDL
MODEL 8
REMARK VINA RESULT:      -7.3      4.966      8.105
REMARK  Name = 
REMARK  7 active torsions:
REMARK  status: ('A' for Active; 'I' for Inactive)
REMARK    1  A    between atoms: C_2  and  C_3
REMARK    2  A    between atoms: C_2  and  C_14
REMARK    3  A    between atoms: C_3  and  C_4
REMARK    4  A    between atoms: C_4  and  C_5
REMARK    5  A    between atoms: C_5  and  C_6
REMARK    6  A    between atoms: C_6  and  C_7
REMARK    7  A    between atoms: C_7  and  C_8
REMARK                            x       y       z     vdW  Elec       q    Type
REMARK                         _______ _______ _______ _____ _____    ______ ____
ROOT
ATOM      1  O   UNL     1       7.804   4.144  16.709  0.00  0.00    +0.000 OA
ATOM      2  C   UNL     1       7.177   4.731  17.593  0.00  0.00    +0.000 C 
ENDROOT
BRANCH   2   3
ATOM      3  C   UNL     1       5.789   4.458  17.905  0.00  0.00    +0.000 A 
ATOM      4  N   UNL     1       4.739   4.835  17.192  0.00  0.00    +0.000 NA
ATOM      5  C   UNL     1       3.683   4.370  17.922  0.00  0.00    +0.000 A 
ATOM      6  N   UNL     1       2.373   4.507  17.615  0.00  0.00    +0.000 NA
ATOM      7  C   UNL     1       1.541   3.966  18.538  0.00  0.00    +0.000 A 
ATOM      8  C   UNL     1       1.931   3.320  19.714  0.00  0.00    +0.000 A 
ATOM      9  C   UNL     1       3.286   3.179  20.011  0.00  0.00    +0.000 A 
ATOM     10  C   UNL     1       4.132   3.730  19.064  0.00  0.00    +0.000 A 
ATOM     11  O   UNL     1       5.491   3.766  19.058  0.00  0.00    +0.000 OA
ENDBRANCH   2   3
BRANCH   2  12
ATOM     12  C   UNL     1       7.831   5.804  18.456  0.00  0.00    +0.000 C 
BRANCH  12  13
ATOM     13  C   UNL     1       7.411   7.211  18.034  0.00  0.00    +0.000 C 
BRANCH  13  14
ATOM     14  C   UNL     1       8.415   8.260  18.507  0.00  0.00    +0.000 C 
BRANCH  14  15
ATOM     15  C   UNL     1       8.520   9.414  17.510  0.00  0.00    +0.000 C 
BRANCH  15  16
ATOM     16  C   UNL     1       8.409  10.765  18.222  0.00  0.00    +0.000 C 
BRANCH  16  17
ATOM     17  C   UNL     1       9.753  11.278  18.675  0.00  0.00    +0.000 A 
ATOM     18  C   UNL     1      10.755  11.575  17.741  0.00  0.00    +0.000 A 
ATOM     19  C   UNL     1      12.009  12.016  18.168  0.00  0.00    +0.000 A 
ATOM     20  C   UNL     1      12.273  12.161  19.529  0.00  0.00    +0.000 A 
ATOM     21  C   UNL     1      11.281  11.875  20.464  0.00  0.00    +0.000 A 
ATOM     22  C   UNL     1      10.026  11.434  20.040  0.00  0.00    +0.000 A 
ENDBRANCH  16  17
ENDBRANCH  15  16
ENDBRANCH  14  15
ENDBRANCH  13  14
ENDBRANCH  12  13
ENDBRANCH   2  12
TORSDOF 7
ENDMDL
MODEL 9
REMARK VINA RESULT:      -7.3      0.967      1.247
REMARK  Name = 
REMARK  7 active torsions:
REMARK  status: ('A' for Active; 'I' for Inactive)
REMARK    1  A    between atoms: C_2  and  C_3
REMARK    2  A    between atoms: C_2  and  C_14
REMARK    3  A    between atoms: C_3  and  C_4
REMARK    4  A    between atoms: C_4  and  C_5
REMARK    5  A    between atoms: C_5  and  C_6
REMARK    6  A    between atoms: C_6  and  C_7
REMARK    7  A    between atoms: C_7  and  C_8
REMARK                            x       y       z     vdW  Elec       q    Type
REMARK                         _______ _______ _______ _____ _____    ______ ____
ROOT
ATOM      1  O   UNL     1       7.962   4.765  18.480  0.00  0.00    +0.000 OA
ATOM      2  C   UNL     1       6.946   4.647  17.794  0.00  0.00    +0.000 C 
ENDROOT
BRANCH   2   3
ATOM      3  C   UNL     1       6.959   4.576  16.347  0.00  0.00    +0.000 A 
ATOM      4  N   UNL     1       7.697   5.318  15.536  0.00  0.00    +0.000 NA
ATOM      5  C   UNL     1       7.318   4.895  14.295  0.00  0.00    +0.000 A 
ATOM      6  N   UNL     1       7.784   5.355  13.112  0.00  0.00    +0.000 NA
ATOM      7  C   UNL     1       7.207   4.767  12.036  0.00  0.00    +0.000 A 
ATOM      8  C   UNL     1       6.220   3.778  12.074  0.00  0.00    +0.000 A 
ATOM      9  C   UNL     1       5.757   3.308  13.302  0.00  0.00    +0.000 A 
ATOM     10  C   UNL     1       6.351   3.909  14.397  0.00  0.00    +0.000 A 
ATOM     11  O   UNL     1       6.121   3.683  15.719  0.00  0.00    +0.000 OA
ENDBRANCH   2   3
BRANCH   2  12
ATOM     12  C   UNL     1       5.563   4.551  18.430  0.00  0.00    +0.000 C 
BRANCH  12  13
ATOM     13  C   UNL     1       5.134   5.871  19.067  0.00  0.00    +0.000 C 
BRANCH  13  14
ATOM     14  C   UNL     1       3.765   5.751  19.735  0.00  0.00    +0.000 C 
BRANCH  14  15
ATOM     15  C   UNL     1       2.740   6.664  19.062  0.00  0.00    +0.000 C 
BRANCH  15  16
ATOM     16  C   UNL     1       1.959   5.909  17.983  0.00  0.00    +0.000 C 
BRANCH  16  17
ATOM     17  C   UNL     1       1.832   4.441  18.301  0.00  0.00    +0.000 A 
ATOM     18  C   UNL     1       1.173   4.017  19.462  0.00  0.00    +0.000 A 
ATOM     19  C   UNL     1       1.089   2.657  19.770  0.00  0.00    +0.000 A 
ATOM     20  C   UNL     1       1.663   1.712  18.922  0.00  0.00    +0.000 A 
ATOM     21  C   UNL     1       2.313   2.124  17.760  0.00  0.00    +0.000 A 
ATOM     22  C   UNL     1       2.398   3.482  17.451  0.00  0.00    +0.000 A 
ENDBRANCH  16  17
ENDBRANCH  15  16
ENDBRANCH  14  15
ENDBRANCH  13  14
ENDBRANCH  12  13
ENDBRANCH   2  12
TORSDOF 7
ENDMDL
