MODEL 1
REMARK VINA RESULT:      -7.0      0.000      0.000
REMARK  Name = 
REMARK  4 active torsions:
REMARK  status: ('A' for Active; 'I' for Inactive)
REMARK    1  A    between atoms: C_2  and  C_3
REMARK    2  A    between atoms: C_3  and  S_10
REMARK    3  A    between atoms: C_4  and  C_5
REMARK    4  A    between atoms: S_10  and  C_13
REMARK                            x       y       z     vdW  Elec       q    Type
REMARK                         _______ _______ _______ _____ _____    ______ ____
ROOT
ATOM      1  C   UNL     1       5.515   5.108  17.050  0.00  0.00    +0.000 C 
ATOM      2  C   UNL     1       5.032   3.914  17.453  0.00  0.00    +0.000 C 
ENDROOT
BRANCH   2   3
ATOM      3  C   UNL     1       3.698   3.774  17.945  0.00  0.00    +0.000 A 
ATOM      4  C   UNL     1       2.460   3.582  17.348  0.00  0.00    +0.000 A 
ATOM      5  C   UNL     1       1.467   3.617  18.353  0.00  0.00    +0.000 A 
ATOM      6  C   UNL     1       2.119   3.778  19.553  0.00  0.00    +0.000 A 
ATOM      7  N   UNL     1       3.469   3.839  19.303  0.00  0.00    +0.000 N 
ATOM      8  H   UNL     1       4.173   3.969  20.016  0.00  0.00    +0.000 HD
ENDBRANCH   2   3
BRANCH   1   9
ATOM      9  S   UNL     1       7.098   5.254  16.391  0.00  0.00    +0.000 S 
ATOM     10  O   UNL     1       7.507   6.649  16.428  0.00  0.00    +0.000 OA
ATOM     11  O   UNL     1       7.953   4.248  16.992  0.00  0.00    +0.000 OA
BRANCH   9  12
ATOM     12  C   UNL     1       6.931   4.835  14.661  0.00  0.00    +0.000 A 
ATOM     13  C   UNL     1       7.786   5.419  13.721  0.00  0.00    +0.000 A 
ATOM     14  C   UNL     1       7.706   5.028  12.383  0.00  0.00    +0.000 A 
ATOM     15  C   UNL     1       6.784   4.058  11.989  0.00  0.00    +0.000 A 
ATOM     16  C   UNL     1       5.943   3.467  12.931  0.00  0.00    +0.000 A 
ATOM     17  C   UNL     1       6.020   3.846  14.273  0.00  0.00    +0.000 A 
ENDBRANCH   9  12
ENDBRANCH   1   9
BRANCH   1  19
ATOM     18  N   UNL     1       3.947   7.387  17.334  0.00  0.00    +0.000 NA
ATOM     19  C   UNL     1       4.658   6.354  17.205  0.00  0.00    +0.000 C 
ENDBRANCH   1  19
TORSDOF 4
ENDMDL
MODEL 2
REMARK VINA RESULT:      -7.0      2.431      5.843
REMARK  Name = 
REMARK  4 active torsions:
REMARK  status: ('A' for Active; 'I' for Inactive)
REMARK    1  A    between atoms: C_2  and  C_3
REMARK    2  A    between atoms: C_3  and  S_10
REMARK    3  A    between atoms: C_4  and  C_5
REMARK    4  A    between atoms: S_10  and  C_13
REMARK                            x       y       z     vdW  Elec       q    Type
REMARK                         _______ _______ _______ _____ _____    ______ ____
ROOT
ATOM      1  C   UNL     1       5.560   5.103  17.056  0.00  0.00    +0.000 C 
ATOM      2  C   UNL     1       5.050   5.225  15.812  0.00  0.00    +0.000 C 
ENDROOT
BRANCH   2   3
ATOM      3  C   UNL     1       5.798   4.841  14.656  0.00  0.00    +0.000 A 
ATOM      4  C   UNL     1       5.630   3.880  13.670  0.00  0.00    +0.000 A 
ATOM      5  C   UNL     1       6.761   3.905  12.823  0.00  0.00    +0.000 A 
ATOM      6  C   UNL     1       7.576   4.915  13.275  0.00  0.00    +0.000 A 
ATOM      7  N   UNL     1       6.974   5.499  14.363  0.00  0.00    +0.000 N 
ATOM      8  H   UNL     1       7.373   6.261  14.892  0.00  0.00    +0.000 HD
ENDBRANCH   2   3
BRANCH   1   9
ATOM      9  S   UNL     1       4.627   5.500  18.445  0.00  0.00    +0.000 S 
ATOM     10  O   UNL     1       5.463   5.401  19.631  0.00  0.00    +0.000 OA
ATOM     11  O   UNL     1       3.902   6.731  18.191  0.00  0.00    +0.000 OA
BRANCH   9  12
ATOM     12  C   UNL     1       3.412   4.197  18.588  0.00  0.00    +0.000 A 
ATOM     13  C   UNL     1       2.050   4.508  18.513  0.00  0.00    +0.000 A 
ATOM     14  C   UNL     1       1.107   3.479  18.544  0.00  0.00    +0.000 A 
ATOM     15  C   UNL     1       1.521   2.150  18.641  0.00  0.00    +0.000 A 
ATOM     16  C   UNL     1       2.880   1.842  18.700  0.00  0.00    +0.000 A 
ATOM     17  C   UNL     1       3.831   2.864  18.663  0.00  0.00    +0.000 A 
ENDBRANCH   9  12
ENDBRANCH   1   9
BRANCH   1  19
ATOM     18  N   UNL     1       8.185   4.245  17.383  0.00  0.00    +0.000 NA
ATOM     19  C   UNL     1       6.995   4.634  17.235  0.00  0.00    +0.000 C 
ENDBRANCH   1  19
TORSDOF 4
ENDMDL
MODEL 3
REMARK VINA RESULT:      -7.0      2.430      5.889
REMARK  Name = 
REMARK  4 active torsions:
REMARK  status: ('A' for Active; 'I' for Inactive)
REMARK    1  A    between atoms: C_2  and  C_3
REMARK    2  A    between atoms: C_3  and  S_10
REMARK    3  A    between atoms: C_4  and  C_5
REMARK    4  A    between atoms: S_10  and  C_13
REMARK                            x       y       z     vdW  Elec       q    Type
REMARK                         _______ _______ _______ _____ _____    ______ ____
ROOT
ATOM      1  C   UNL     1       5.513   5.098  17.077  0.00  0.00    +0.000 C 
ATOM      2  C   UNL     1       5.012   5.219  15.829  0.00  0.00    +0.000 C 
ENDROOT
BRANCH   2   3
ATOM      3  C   UNL     1       5.770   4.841  14.678  0.00  0.00    +0.000 A 
ATOM      4  C   UNL     1       5.612   3.883  13.686  0.00  0.00    +0.000 A 
ATOM      5  C   UNL     1       6.750   3.914  12.849  0.00  0.00    +0.000 A 
ATOM      6  C   UNL     1       7.560   4.923  13.312  0.00  0.00    +0.000 A 
ATOM      7  N   UNL     1       6.947   5.501  14.398  0.00  0.00    +0.000 N 
ATOM      8  H   UNL     1       7.341   6.262  14.934  0.00  0.00    +0.000 HD
ENDBRANCH   2   3
BRANCH   1   9
ATOM      9  S   UNL     1       4.568   5.487  18.460  0.00  0.00    +0.000 S 
ATOM     10  O   UNL     1       5.391   5.373  19.653  0.00  0.00    +0.000 OA
ATOM     11  O   UNL     1       3.851   6.724  18.208  0.00  0.00    +0.000 OA
BRANCH   9  12
ATOM     12  C   UNL     1       3.345   4.189  18.578  0.00  0.00    +0.000 A 
ATOM     13  C   UNL     1       3.722   2.860  18.358  0.00  0.00    +0.000 A 
ATOM     14  C   UNL     1       2.783   1.841  18.530  0.00  0.00    +0.000 A 
ATOM     15  C   UNL     1       1.480   2.147  18.925  0.00  0.00    +0.000 A 
ATOM     16  C   UNL     1       1.111   3.471  19.158  0.00  0.00    +0.000 A 
ATOM     17  C   UNL     1       2.045   4.497  18.995  0.00  0.00    +0.000 A 
ENDBRANCH   9  12
ENDBRANCH   1   9
BRANCH   1  19
ATOM     18  N   UNL     1       8.140   4.253  17.421  0.00  0.00    +0.000 NA
ATOM     19  C   UNL     1       6.949   4.636  17.265  0.00  0.00    +0.000 C 
ENDBRANCH   1  19
TORSDOF 4
ENDMDL
MODEL 4
REMARK VINA RESULT:      -7.0      0.083      1.145
REMARK  Name = 
REMARK  4 active torsions:
REMARK  status: ('A' for Active; 'I' for Inactive)
REMARK    1  A    between atoms: C_2  and  C_3
REMARK    2  A    between atoms: C_3  and  S_10
REMARK    3  A    between atoms: C_4  and  C_5
REMARK    4  A    between atoms: S_10  and  C_13
REMARK                            x       y       z     vdW  Elec       q    Type
REMARK                         _______ _______ _______ _____ _____    ______ ____
ROOT
ATOM      1  C   UNL     1       5.503   5.124  17.079  0.00  0.00    +0.000 C 
ATOM      2  C   UNL     1       5.022   3.932  17.492  0.00  0.00    +0.000 C 
ENDROOT
BRANCH   2   3
ATOM      3  C   UNL     1       3.682   3.789  17.966  0.00  0.00    +0.000 A 
ATOM      4  C   UNL     1       2.460   3.548  17.355  0.00  0.00    +0.000 A 
ATOM      5  C   UNL     1       1.447   3.609  18.340  0.00  0.00    +0.000 A 
ATOM      6  C   UNL     1       2.073   3.836  19.542  0.00  0.00    +0.000 A 
ATOM      7  N   UNL     1       3.426   3.911  19.315  0.00  0.00    +0.000 N 
ATOM      8  H   UNL     1       4.114   4.086  20.034  0.00  0.00    +0.000 HD
ENDBRANCH   2   3
BRANCH   1   9
ATOM      9  S   UNL     1       7.095   5.271  16.443  0.00  0.00    +0.000 S 
ATOM     10  O   UNL     1       7.470   6.676  16.406  0.00  0.00    +0.000 OA
ATOM     11  O   UNL     1       7.962   4.323  17.117  0.00  0.00    +0.000 OA
BRANCH   9  12
ATOM     12  C   UNL     1       6.973   4.749  14.738  0.00  0.00    +0.000 A 
ATOM     13  C   UNL     1       5.987   3.830  14.363  0.00  0.00    +0.000 A 
ATOM     14  C   UNL     1       5.843   3.486  13.018  0.00  0.00    +0.000 A 
ATOM     15  C   UNL     1       6.672   4.060  12.053  0.00  0.00    +0.000 A 
ATOM     16  C   UNL     1       7.644   4.987  12.428  0.00  0.00    +0.000 A 
ATOM     17  C   UNL     1       7.792   5.343  13.770  0.00  0.00    +0.000 A 
ENDBRANCH   9  12
ENDBRANCH   1   9
BRANCH   1  19
ATOM     18  N   UNL     1       3.916   7.395  17.307  0.00  0.00    +0.000 NA
ATOM     19  C   UNL     1       4.636   6.365  17.204  0.00  0.00    +0.000 C 
ENDBRANCH   1  19
TORSDOF 4
ENDMDL
MODEL 5
REMARK VINA RESULT:      -6.8      2.025      5.753
REMARK  Name = 
REMARK  4 active torsions:
REMARK  status: ('A' for Active; 'I' for Inactive)
REMARK    1  A    between atoms: C_2  and  C_3
REMARK    2  A    between atoms: C_3  and  S_10
REMARK    3  A    between atoms: C_4  and  C_5
REMARK    4  A    between atoms: S_10  and  C_13
REMARK                            x       y       z     vdW  Elec       q    Type
REMARK                         _______ _______ _______ _____ _____    ______ ____
ROOT
ATOM      1  C   UNL     1       5.581   5.022  16.601  0.00  0.00    +0.000 C 
ATOM      2  C   UNL     1       6.231   4.070  15.899  0.00  0.00    +0.000 C 
ENDROOT
BRANCH   2   3
ATOM      3  C   UNL     1       6.580   4.260  14.526  0.00  0.00    +0.000 A 
ATOM      4  C   UNL     1       6.139   3.713  13.330  0.00  0.00    +0.000 A 
ATOM      5  C   UNL     1       6.936   4.226  12.282  0.00  0.00    +0.000 A 
ATOM      6  C   UNL     1       7.817   5.116  12.849  0.00  0.00    +0.000 A 
ATOM      7  N   UNL     1       7.575   5.157  14.201  0.00  0.00    +0.000 N 
ATOM      8  H   UNL     1       8.096   5.726  14.854  0.00  0.00    +0.000 HD
ENDBRANCH   2   3
BRANCH   1   9
ATOM      9  S   UNL     1       5.228   4.813  18.272  0.00  0.00    +0.000 S 
ATOM     10  O   UNL     1       6.230   3.948  18.871  0.00  0.00    +0.000 OA
ATOM     11  O   UNL     1       4.966   6.112  18.865  0.00  0.00    +0.000 OA
BRANCH   9  12
ATOM     12  C   UNL     1       3.693   3.898  18.320  0.00  0.00    +0.000 A 
ATOM     13  C   UNL     1       3.667   2.618  18.883  0.00  0.00    +0.000 A 
ATOM     14  C   UNL     1       2.453   1.938  18.992  0.00  0.00    +0.000 A 
ATOM     15  C   UNL     1       1.272   2.536  18.549  0.00  0.00    +0.000 A 
ATOM     16  C   UNL     1       1.299   3.818  18.002  0.00  0.00    +0.000 A 
ATOM     17  C   UNL     1       2.508   4.508  17.894  0.00  0.00    +0.000 A 
ENDBRANCH   9  12
ENDBRANCH   1   9
BRANCH   1  19
ATOM     18  N   UNL     1       4.750   7.345  15.318  0.00  0.00    +0.000 NA
ATOM     19  C   UNL     1       5.127   6.292  15.900  0.00  0.00    +0.000 C 
ENDBRANCH   1  19
TORSDOF 4
ENDMDL
MODEL 6
REMARK VINA RESULT:      -6.8      2.018      5.667
REMARK  Name = 
REMARK  4 active torsions:
REMARK  status: ('A' for Active; 'I' for Inactive)
REMARK    1  A    between atoms: C_2  and  C_3
REMARK    2  A    between atoms: C_3  and  S_10
REMARK    3  A    between atoms: C_4  and  C_5
REMARK    4  A    between atoms: S_10  and  C_13
REMARK                            x       y       z     vdW  Elec       q    Type
REMARK                         _______ _______ _______ _____ _____    ______ ____
ROOT
ATOM      1  C   UNL     1       5.659   5.075  16.589  0.00  0.00    +0.000 C 
ATOM      2  C   UNL     1       6.313   4.120  15.896  0.00  0.00    +0.000 C 
ENDROOT
BRANCH   2   3
ATOM      3  C   UNL     1       6.627   4.281  14.511  0.00  0.00    +0.000 A 
ATOM      4  C   UNL     1       6.155   3.707  13.339  0.00  0.00    +0.000 A 
ATOM      5  C   UNL     1       6.924   4.199  12.259  0.00  0.00    +0.000 A 
ATOM      6  C   UNL     1       7.816   5.103  12.784  0.00  0.00    +0.000 A 
ATOM      7  N   UNL     1       7.610   5.173  14.140  0.00  0.00    +0.000 N 
ATOM      8  H   UNL     1       8.147   5.756  14.767  0.00  0.00    +0.000 HD
ENDBRANCH   2   3
BRANCH   1   9
ATOM      9  S   UNL     1       5.349   4.903  18.272  0.00  0.00    +0.000 S 
ATOM     10  O   UNL     1       6.371   4.056  18.865  0.00  0.00    +0.000 OA
ATOM     11  O   UNL     1       5.097   6.214  18.842  0.00  0.00    +0.000 OA
BRANCH   9  12
ATOM     12  C   UNL     1       3.821   3.983  18.381  0.00  0.00    +0.000 A 
ATOM     13  C   UNL     1       2.619   4.589  18.003  0.00  0.00    +0.000 A 
ATOM     14  C   UNL     1       1.439   3.842  18.013  0.00  0.00    +0.000 A 
ATOM     15  C   UNL     1       1.462   2.498  18.390  0.00  0.00    +0.000 A 
ATOM     16  C   UNL     1       2.665   1.893  18.752  0.00  0.00    +0.000 A 
ATOM     17  C   UNL     1       3.851   2.630  18.739  0.00  0.00    +0.000 A 
ENDBRANCH   9  12
ENDBRANCH   1   9
BRANCH   1  19
ATOM     18  N   UNL     1       4.745   7.344  15.265  0.00  0.00    +0.000 NA
ATOM     19  C   UNL     1       5.159   6.315  15.865  0.00  0.00    +0.000 C 
ENDBRANCH   1  19
TORSDOF 4
ENDMDL
MODEL 7
REMARK VINA RESULT:      -6.8      3.332      6.443
REMARK  Name = 
REMARK  4 active torsions:
REMARK  status: ('A' for Active; 'I' for Inactive)
REMARK    1  A    between atoms: C_2  and  C_3
REMARK    2  A    between atoms: C_3  and  S_10
REMARK    3  A    between atoms: C_4  and  C_5
REMARK    4  A    between atoms: S_10  and  C_13
REMARK                            x       y       z     vdW  Elec       q    Type
REMARK                         _______ _______ _______ _____ _____    ______ ____
ROOT
ATOM      1  C   UNL     1       4.629   3.962  17.359  0.00  0.00    +0.000 C 
ATOM      2  C   UNL     1       4.906   4.878  18.310  0.00  0.00    +0.000 C 
ENDROOT
BRANCH   2   3
ATOM      3  C   UNL     1       5.960   5.829  18.148  0.00  0.00    +0.000 A 
ATOM      4  C   UNL     1       6.168   6.909  17.302  0.00  0.00    +0.000 A 
ATOM      5  C   UNL     1       7.461   7.426  17.545  0.00  0.00    +0.000 A 
ATOM      6  C   UNL     1       8.001   6.686  18.570  0.00  0.00    +0.000 A 
ATOM      7  N   UNL     1       7.077   5.744  18.953  0.00  0.00    +0.000 N 
ATOM      8  H   UNL     1       7.230   5.061  19.681  0.00  0.00    +0.000 HD
ENDBRANCH   2   3
BRANCH   1   9
ATOM      9  S   UNL     1       3.313   2.867  17.531  0.00  0.00    +0.000 S 
ATOM     10  O   UNL     1       2.250   3.245  16.614  0.00  0.00    +0.000 OA
ATOM     11  O   UNL     1       3.822   1.509  17.504  0.00  0.00    +0.000 OA
BRANCH   9  12
ATOM     12  C   UNL     1       2.671   3.153  19.174  0.00  0.00    +0.000 A 
ATOM     13  C   UNL     1       1.550   3.971  19.348  0.00  0.00    +0.000 A 
ATOM     14  C   UNL     1       1.004   4.127  20.624  0.00  0.00    +0.000 A 
ATOM     15  C   UNL     1       1.569   3.466  21.715  0.00  0.00    +0.000 A 
ATOM     16  C   UNL     1       2.678   2.640  21.536  0.00  0.00    +0.000 A 
ATOM     17  C   UNL     1       3.228   2.473  20.264  0.00  0.00    +0.000 A 
ENDBRANCH   9  12
ENDBRANCH   1   9
BRANCH   1  19
ATOM     18  N   UNL     1       6.243   3.800  15.100  0.00  0.00    +0.000 NA
ATOM     19  C   UNL     1       5.511   3.873  16.124  0.00  0.00    +0.000 C 
ENDBRANCH   1  19
TORSDOF 4
ENDMDL
MODEL 8
REMARK VINA RESULT:      -6.7      2.595      5.565
REMARK  Name = 
REMARK  4 active torsions:
REMARK  status: ('A' for Active; 'I' for Inactive)
REMARK    1  A    between atoms: C_2  and  C_3
REMARK    2  A    between atoms: C_3  and  S_10
REMARK    3  A    between atoms: C_4  and  C_5
REMARK    4  A    between atoms: S_10  and  C_13
REMARK                            x       y       z     vdW  Elec       q    Type
REMARK                         _______ _______ _______ _____ _____    ______ ____
ROOT
ATOM      1  C   UNL     1       6.769   4.823  14.758  0.00  0.00    +0.000 C 
ATOM      2  C   UNL     1       5.745   3.982  14.502  0.00  0.00    +0.000 C 
ENDROOT
BRANCH   2   3
ATOM      3  C   UNL     1       5.478   3.509  13.180  0.00  0.00    +0.000 A 
ATOM      4  C   UNL     1       4.495   3.775  12.237  0.00  0.00    +0.000 A 
ATOM      5  C   UNL     1       4.695   2.921  11.129  0.00  0.00    +0.000 A 
ATOM      6  C   UNL     1       5.826   2.185  11.391  0.00  0.00    +0.000 A 
ATOM      7  N   UNL     1       6.313   2.568  12.617  0.00  0.00    +0.000 N 
ATOM      8  H   UNL     1       7.133   2.169  13.052  0.00  0.00    +0.000 HD
ENDBRANCH   2   3
BRANCH   1   9
ATOM      9  S   UNL     1       7.127   5.330  16.363  0.00  0.00    +0.000 S 
ATOM     10  O   UNL     1       7.919   4.306  17.025  0.00  0.00    +0.000 OA
ATOM     11  O   UNL     1       7.618   6.695  16.328  0.00  0.00    +0.000 OA
BRANCH   9  12
ATOM     12  C   UNL     1       5.554   5.362  17.211  0.00  0.00    +0.000 A 
ATOM     13  C   UNL     1       5.195   4.299  18.046  0.00  0.00    +0.000 A 
ATOM     14  C   UNL     1       4.002   4.364  18.769  0.00  0.00    +0.000 A 
ATOM     15  C   UNL     1       3.178   5.485  18.664  0.00  0.00    +0.000 A 
ATOM     16  C   UNL     1       3.546   6.550  17.842  0.00  0.00    +0.000 A 
ATOM     17  C   UNL     1       4.739   6.497  17.120  0.00  0.00    +0.000 A 
ENDBRANCH   9  12
ENDBRANCH   1   9
BRANCH   1  19
ATOM     18  N   UNL     1       8.300   5.800  12.653  0.00  0.00    +0.000 NA
ATOM     19  C   UNL     1       7.606   5.357  13.607  0.00  0.00    +0.000 C 
ENDBRANCH   1  19
TORSDOF 4
ENDMDL
MODEL 9
REMARK VINA RESULT:      -6.7      2.560      5.458
REMARK  Name = 
REMARK  4 active torsions:
REMARK  status: ('A' for Active; 'I' for Inactive)
REMARK    1  A    between atoms: C_2  and  C_3
REMARK    2  A    between atoms: C_3  and  S_10
REMARK    3  A    between atoms: C_4  and  C_5
REMARK    4  A    between atoms: S_10  and  C_13
REMARK                            x       y       z     vdW  Elec       q    Type
REMARK                         _______ _______ _______ _____ _____    ______ ____
ROOT
ATOM      1  C   UNL     1       6.789   4.812  14.775  0.00  0.00    +0.000 C 
ATOM      2  C   UNL     1       5.766   3.969  14.520  0.00  0.00    +0.000 C 
ENDROOT
BRANCH   2   3
ATOM      3  C   UNL     1       5.484   3.514  13.195  0.00  0.00    +0.000 A 
ATOM      4  C   UNL     1       4.488   3.789  12.269  0.00  0.00    +0.000 A 
ATOM      5  C   UNL     1       4.677   2.950  11.146  0.00  0.00    +0.000 A 
ATOM      6  C   UNL     1       5.813   2.215  11.384  0.00  0.00    +0.000 A 
ATOM      7  N   UNL     1       6.315   2.583  12.609  0.00  0.00    +0.000 N 
ATOM      8  H   UNL     1       7.142   2.181  13.029  0.00  0.00    +0.000 HD
ENDBRANCH   2   3
BRANCH   1   9
ATOM      9  S   UNL     1       7.166   5.297  16.382  0.00  0.00    +0.000 S 
ATOM     10  O   UNL     1       7.957   4.261  17.025  0.00  0.00    +0.000 OA
ATOM     11  O   UNL     1       7.667   6.659  16.357  0.00  0.00    +0.000 OA
BRANCH   9  12
ATOM     12  C   UNL     1       5.601   5.331  17.245  0.00  0.00    +0.000 A 
ATOM     13  C   UNL     1       4.785   6.464  17.156  0.00  0.00    +0.000 A 
ATOM     14  C   UNL     1       3.528   6.456  17.765  0.00  0.00    +0.000 A 
ATOM     15  C   UNL     1       3.088   5.323  18.451  0.00  0.00    +0.000 A 
ATOM     16  C   UNL     1       3.898   4.191  18.525  0.00  0.00    +0.000 A 
ATOM     17  C   UNL     1       5.153   4.187  17.914  0.00  0.00    +0.000 A 
ENDBRANCH   9  12
ENDBRANCH   1   9
BRANCH   1  19
ATOM     18  N   UNL     1       8.289   5.825  12.663  0.00  0.00    +0.000 NA
ATOM     19  C   UNL     1       7.609   5.365  13.621  0.00  0.00    +0.000 C 
ENDBRANCH   1  19
TORSDOF 4
ENDMDL
