MODEL 1
REMARK VINA RESULT:      -7.2      0.000      0.000
REMARK  Name = 
REMARK  5 active torsions:
REMARK  status: ('A' for Active; 'I' for Inactive)
REMARK    1  A    between atoms: C_1  and  S_2
REMARK    2  A    between atoms: S_2  and  C_3
REMARK    3  A    between atoms: C_3  and  C_4
REMARK    4  A    between atoms: N_13  and  C_14
REMARK    5  A    between atoms: C_14  and  C_15
REMARK                            x       y       z     vdW  Elec       q    Type
REMARK                         _______ _______ _______ _____ _____    ______ ____
ROOT
ATOM      1  C   UNL     1       5.184   4.513  17.016  0.00  0.00    +0.000 C 
ATOM      2  O   UNL     1       4.984   5.258  16.052  0.00  0.00    +0.000 OA
ATOM      3  N   UNL     1       4.149   3.818  17.614  0.00  0.00    +0.000 N 
ATOM      4  C   UNL     1       2.821   3.938  17.001  0.00  0.00    +0.000 C 
ATOM      5  C   UNL     1       1.704   3.511  17.956  0.00  0.00    +0.000 C 
ATOM      6  C   UNL     1       1.923   2.046  18.386  0.00  0.00    +0.000 C 
ATOM      7  C   UNL     1       3.401   1.717  18.610  0.00  0.00    +0.000 C 
ATOM      8  C   UNL     1       4.218   2.994  18.840  0.00  0.00    +0.000 C 
ATOM      9  C   UNL     1       3.686   3.729  20.111  0.00  0.00    +0.000 C 
ATOM     10  N   UNL     1       2.751   4.851  19.954  0.00  0.00    +0.000 NA
ATOM     11  C   UNL     1       1.560   4.489  19.156  0.00  0.00    +0.000 C 
ENDROOT
BRANCH   1  12
ATOM     12  C   UNL     1       6.608   4.348  17.529  0.00  0.00    +0.000 C 
BRANCH  12  14
ATOM     13  C   UNL     1       7.553   6.961  17.676  0.00  0.00    +0.000 C 
ATOM     14  S   UNL     1       6.994   5.623  18.774  0.00  0.00    +0.000 S 
ENDBRANCH  12  14
ENDBRANCH   1  12
BRANCH  10  15
ATOM     15  C   UNL     1       3.338   6.126  19.492  0.00  0.00    +0.000 C 
BRANCH  15  16
ATOM     16  C   UNL     1       2.421   7.322  19.305  0.00  0.00    +0.000 A 
ATOM     17  C   UNL     1       1.739   7.835  20.426  0.00  0.00    +0.000 A 
ATOM     18  C   UNL     1       0.923   8.964  20.325  0.00  0.00    +0.000 A 
ATOM     19  C   UNL     1       0.782   9.609  19.099  0.00  0.00    +0.000 A 
ATOM     20  C   UNL     1       1.471   9.130  17.984  0.00  0.00    +0.000 A 
ATOM     21  C   UNL     1       2.298   8.010  18.089  0.00  0.00    +0.000 A 
ENDBRANCH  15  16
ENDBRANCH  10  15
TORSDOF 4
ENDMDL
MODEL 2
REMARK VINA RESULT:      -7.2      0.233      1.076
REMARK  Name = 
REMARK  5 active torsions:
REMARK  status: ('A' for Active; 'I' for Inactive)
REMARK    1  A    between atoms: C_1  and  S_2
REMARK    2  A    between atoms: S_2  and  C_3
REMARK    3  A    between atoms: C_3  and  C_4
REMARK    4  A    between atoms: N_13  and  C_14
REMARK    5  A    between atoms: C_14  and  C_15
REMARK                            x       y       z     vdW  Elec       q    Type
REMARK                         _______ _______ _______ _____ _____    ______ ____
ROOT
ATOM      1  C   UNL     1       5.267   4.418  16.933  0.00  0.00    +0.000 C 
ATOM      2  O   UNL     1       5.061   5.014  15.872  0.00  0.00    +0.000 OA
ATOM      3  N   UNL     1       4.252   3.748  17.591  0.00  0.00    +0.000 N 
ATOM      4  C   UNL     1       2.943   3.704  16.930  0.00  0.00    +0.000 C 
ATOM      5  C   UNL     1       1.817   3.342  17.901  0.00  0.00    +0.000 C 
ATOM      6  C   UNL     1       2.103   1.965  18.533  0.00  0.00    +0.000 C 
ATOM      7  C   UNL     1       3.587   1.760  18.842  0.00  0.00    +0.000 C 
ATOM      8  C   UNL     1       4.323   3.103  18.920  0.00  0.00    +0.000 C 
ATOM      9  C   UNL     1       3.704   3.968  20.063  0.00  0.00    +0.000 C 
ATOM     10  N   UNL     1       2.713   5.000  19.728  0.00  0.00    +0.000 NA
ATOM     11  C   UNL     1       1.575   4.463  18.952  0.00  0.00    +0.000 C 
ENDROOT
BRANCH   1  12
ATOM     12  C   UNL     1       6.679   4.411  17.505  0.00  0.00    +0.000 C 
BRANCH  12  14
ATOM     13  C   UNL     1       7.424   7.091  17.497  0.00  0.00    +0.000 C 
ATOM     14  S   UNL     1       6.909   5.797  18.667  0.00  0.00    +0.000 S 
ENDBRANCH  12  14
ENDBRANCH   1  12
BRANCH  10  15
ATOM     15  C   UNL     1       3.244   6.235  19.113  0.00  0.00    +0.000 C 
BRANCH  15  16
ATOM     16  C   UNL     1       2.399   7.495  19.169  0.00  0.00    +0.000 A 
ATOM     17  C   UNL     1       2.177   8.217  17.980  0.00  0.00    +0.000 A 
ATOM     18  C   UNL     1       1.365   9.352  17.961  0.00  0.00    +0.000 A 
ATOM     19  C   UNL     1       0.751   9.784  19.133  0.00  0.00    +0.000 A 
ATOM     20  C   UNL     1       0.937   9.066  20.315  0.00  0.00    +0.000 A 
ATOM     21  C   UNL     1       1.738   7.922  20.330  0.00  0.00    +0.000 A 
ENDBRANCH  15  16
ENDBRANCH  10  15
TORSDOF 4
ENDMDL
MODEL 3
REMARK VINA RESULT:      -6.9      2.852      4.963
REMARK  Name = 
REMARK  5 active torsions:
REMARK  status: ('A' for Active; 'I' for Inactive)
REMARK    1  A    between atoms: C_1  and  S_2
REMARK    2  A    between atoms: S_2  and  C_3
REMARK    3  A    between atoms: C_3  and  C_4
REMARK    4  A    between atoms: N_13  and  C_14
REMARK    5  A    between atoms: C_14  and  C_15
REMARK                            x       y       z     vdW  Elec       q    Type
REMARK                         _______ _______ _______ _____ _____    ______ ____
ROOT
ATOM      1  C   UNL     1       6.098   4.174  15.343  0.00  0.00    +0.000 C 
ATOM      2  O   UNL     1       6.144   2.946  15.459  0.00  0.00    +0.000 OA
ATOM      3  N   UNL     1       6.415   5.008  16.399  0.00  0.00    +0.000 N 
ATOM      4  C   UNL     1       6.890   4.373  17.634  0.00  0.00    +0.000 C 
ATOM      5  C   UNL     1       6.792   5.309  18.840  0.00  0.00    +0.000 C 
ATOM      6  C   UNL     1       7.629   6.578  18.579  0.00  0.00    +0.000 C 
ATOM      7  C   UNL     1       7.534   7.053  17.128  0.00  0.00    +0.000 C 
ATOM      8  C   UNL     1       6.287   6.481  16.443  0.00  0.00    +0.000 C 
ATOM      9  C   UNL     1       5.010   6.970  17.199  0.00  0.00    +0.000 C 
ATOM     10  N   UNL     1       4.372   6.082  18.180  0.00  0.00    +0.000 NA
ATOM     11  C   UNL     1       5.314   5.615  19.219  0.00  0.00    +0.000 C 
ENDROOT
BRANCH   1  12
ATOM     12  C   UNL     1       5.706   4.767  13.996  0.00  0.00    +0.000 C 
BRANCH  12  14
ATOM     13  C   UNL     1       4.688   3.339  11.836  0.00  0.00    +0.000 C 
ATOM     14  S   UNL     1       6.282   3.703  12.633  0.00  0.00    +0.000 S 
ENDBRANCH  12  14
ENDBRANCH   1  12
BRANCH  10  15
ATOM     15  C   UNL     1       3.585   4.960  17.626  0.00  0.00    +0.000 C 
BRANCH  15  16
ATOM     16  C   UNL     1       2.507   4.333  18.492  0.00  0.00    +0.000 A 
ATOM     17  C   UNL     1       1.979   3.082  18.117  0.00  0.00    +0.000 A 
ATOM     18  C   UNL     1       1.023   2.433  18.902  0.00  0.00    +0.000 A 
ATOM     19  C   UNL     1       0.583   3.021  20.085  0.00  0.00    +0.000 A 
ATOM     20  C   UNL     1       1.115   4.248  20.486  0.00  0.00    +0.000 A 
ATOM     21  C   UNL     1       2.081   4.889  19.707  0.00  0.00    +0.000 A 
ENDBRANCH  15  16
ENDBRANCH  10  15
TORSDOF 4
ENDMDL
MODEL 4
REMARK VINA RESULT:      -6.8      2.840      4.907
REMARK  Name = 
REMARK  5 active torsions:
REMARK  status: ('A' for Active; 'I' for Inactive)
REMARK    1  A    between atoms: C_1  and  S_2
REMARK    2  A    between atoms: S_2  and  C_3
REMARK    3  A    between atoms: C_3  and  C_4
REMARK    4  A    between atoms: N_13  and  C_14
REMARK    5  A    between atoms: C_14  and  C_15
REMARK                            x       y       z     vdW  Elec       q    Type
REMARK                         _______ _______ _______ _____ _____    ______ ____
ROOT
ATOM      1  C   UNL     1       6.127   4.196  15.323  0.00  0.00    +0.000 C 
ATOM      2  O   UNL     1       6.177   2.967  15.425  0.00  0.00    +0.000 OA
ATOM      3  N   UNL     1       6.433   5.019  16.391  0.00  0.00    +0.000 N 
ATOM      4  C   UNL     1       6.901   4.372  17.621  0.00  0.00    +0.000 C 
ATOM      5  C   UNL     1       6.791   5.294  18.837  0.00  0.00    +0.000 C 
ATOM      6  C   UNL     1       7.624   6.569  18.597  0.00  0.00    +0.000 C 
ATOM      7  C   UNL     1       7.538   7.060  17.151  0.00  0.00    +0.000 C 
ATOM      8  C   UNL     1       6.298   6.491  16.451  0.00  0.00    +0.000 C 
ATOM      9  C   UNL     1       5.014   6.965  17.203  0.00  0.00    +0.000 C 
ATOM     10  N   UNL     1       4.372   6.064  18.170  0.00  0.00    +0.000 NA
ATOM     11  C   UNL     1       5.309   5.588  19.209  0.00  0.00    +0.000 C 
ENDROOT
BRANCH   1  12
ATOM     12  C   UNL     1       5.741   4.804  13.980  0.00  0.00    +0.000 C 
BRANCH  12  14
ATOM     13  C   UNL     1       4.700   3.326  11.865  0.00  0.00    +0.000 C 
ATOM     14  S   UNL     1       6.307   3.743  12.609  0.00  0.00    +0.000 S 
ENDBRANCH  12  14
ENDBRANCH   1  12
BRANCH  10  15
ATOM     15  C   UNL     1       3.595   4.945  17.597  0.00  0.00    +0.000 C 
BRANCH  15  16
ATOM     16  C   UNL     1       2.589   4.232  18.484  0.00  0.00    +0.000 A 
ATOM     17  C   UNL     1       2.092   4.901  19.619  0.00  0.00    +0.000 A 
ATOM     18  C   UNL     1       1.127   4.317  20.441  0.00  0.00    +0.000 A 
ATOM     19  C   UNL     1       0.632   3.052  20.138  0.00  0.00    +0.000 A 
ATOM     20  C   UNL     1       1.094   2.384  19.002  0.00  0.00    +0.000 A 
ATOM     21  C   UNL     1       2.049   2.976  18.172  0.00  0.00    +0.000 A 
ENDBRANCH  15  16
ENDBRANCH  10  15
TORSDOF 4
ENDMDL
MODEL 5
REMARK VINA RESULT:      -6.7      2.185      4.871
REMARK  Name = 
REMARK  5 active torsions:
REMARK  status: ('A' for Active; 'I' for Inactive)
REMARK    1  A    between atoms: C_1  and  S_2
REMARK    2  A    between atoms: S_2  and  C_3
REMARK    3  A    between atoms: C_3  and  C_4
REMARK    4  A    between atoms: N_13  and  C_14
REMARK    5  A    between atoms: C_14  and  C_15
REMARK                            x       y       z     vdW  Elec       q    Type
REMARK                         _______ _______ _______ _____ _____    ______ ____
ROOT
ATOM      1  C   UNL     1       2.316   6.354  19.314  0.00  0.00    +0.000 C 
ATOM      2  O   UNL     1       2.871   7.118  20.110  0.00  0.00    +0.000 OA
ATOM      3  N   UNL     1       2.095   5.026  19.627  0.00  0.00    +0.000 N 
ATOM      4  C   UNL     1       2.471   4.585  20.975  0.00  0.00    +0.000 C 
ATOM      5  C   UNL     1       2.598   3.064  21.071  0.00  0.00    +0.000 C 
ATOM      6  C   UNL     1       1.256   2.407  20.689  0.00  0.00    +0.000 C 
ATOM      7  C   UNL     1       0.562   3.128  19.531  0.00  0.00    +0.000 C 
ATOM      8  C   UNL     1       1.560   3.975  18.734  0.00  0.00    +0.000 C 
ATOM      9  C   UNL     1       2.665   3.049  18.135  0.00  0.00    +0.000 C 
ATOM     10  N   UNL     1       3.955   2.927  18.828  0.00  0.00    +0.000 NA
ATOM     11  C   UNL     1       3.802   2.529  20.244  0.00  0.00    +0.000 C 
ENDROOT
BRANCH   1  12
ATOM     12  C   UNL     1       1.850   6.908  17.974  0.00  0.00    +0.000 C 
BRANCH  12  14
ATOM     13  C   UNL     1       0.902   9.518  18.158  0.00  0.00    +0.000 C 
ATOM     14  S   UNL     1       2.431   8.622  17.750  0.00  0.00    +0.000 S 
ENDBRANCH  12  14
ENDBRANCH   1  12
BRANCH  10  15
ATOM     15  C   UNL     1       4.877   4.074  18.691  0.00  0.00    +0.000 C 
BRANCH  15  16
ATOM     16  C   UNL     1       5.238   4.552  17.296  0.00  0.00    +0.000 A 
ATOM     17  C   UNL     1       5.721   3.614  16.363  0.00  0.00    +0.000 A 
ATOM     18  C   UNL     1       6.019   3.984  15.050  0.00  0.00    +0.000 A 
ATOM     19  C   UNL     1       5.832   5.301  14.642  0.00  0.00    +0.000 A 
ATOM     20  C   UNL     1       5.329   6.239  15.546  0.00  0.00    +0.000 A 
ATOM     21  C   UNL     1       5.017   5.864  16.855  0.00  0.00    +0.000 A 
ENDBRANCH  15  16
ENDBRANCH  10  15
TORSDOF 4
ENDMDL
MODEL 6
REMARK VINA RESULT:      -6.6      2.114      3.906
REMARK  Name = 
REMARK  5 active torsions:
REMARK  status: ('A' for Active; 'I' for Inactive)
REMARK    1  A    between atoms: C_1  and  S_2
REMARK    2  A    between atoms: S_2  and  C_3
REMARK    3  A    between atoms: C_3  and  C_4
REMARK    4  A    between atoms: N_13  and  C_14
REMARK    5  A    between atoms: C_14  and  C_15
REMARK                            x       y       z     vdW  Elec       q    Type
REMARK                         _______ _______ _______ _____ _____    ______ ____
ROOT
ATOM      1  C   UNL     1       4.540   3.089  18.901  0.00  0.00    +0.000 C 
ATOM      2  O   UNL     1       4.703   3.105  20.124  0.00  0.00    +0.000 OA
ATOM      3  N   UNL     1       5.294   3.891  18.065  0.00  0.00    +0.000 N 
ATOM      4  C   UNL     1       6.352   4.696  18.686  0.00  0.00    +0.000 C 
ATOM      5  C   UNL     1       6.815   5.838  17.780  0.00  0.00    +0.000 C 
ATOM      6  C   UNL     1       7.343   5.263  16.450  0.00  0.00    +0.000 C 
ATOM      7  C   UNL     1       6.515   4.074  15.958  0.00  0.00    +0.000 C 
ATOM      8  C   UNL     1       5.126   4.067  16.606  0.00  0.00    +0.000 C 
ATOM      9  C   UNL     1       4.368   5.378  16.223  0.00  0.00    +0.000 C 
ATOM     10  N   UNL     1       4.350   6.501  17.171  0.00  0.00    +0.000 NA
ATOM     11  C   UNL     1       5.707   6.913  17.588  0.00  0.00    +0.000 C 
ENDROOT
BRANCH   1  12
ATOM     12  C   UNL     1       3.500   2.143  18.314  0.00  0.00    +0.000 C 
BRANCH  12  14
ATOM     13  C   UNL     1       1.321   2.659  19.966  0.00  0.00    +0.000 C 
ATOM     14  S   UNL     1       1.864   2.946  18.254  0.00  0.00    +0.000 S 
ENDBRANCH  12  14
ENDBRANCH   1  12
BRANCH  10  15
ATOM     15  C   UNL     1       3.454   6.351  18.337  0.00  0.00    +0.000 C 
BRANCH  15  16
ATOM     16  C   UNL     1       2.511   7.492  18.678  0.00  0.00    +0.000 A 
ATOM     17  C   UNL     1       2.031   7.603  19.997  0.00  0.00    +0.000 A 
ATOM     18  C   UNL     1       1.204   8.661  20.382  0.00  0.00    +0.000 A 
ATOM     19  C   UNL     1       0.848   9.635  19.454  0.00  0.00    +0.000 A 
ATOM     20  C   UNL     1       1.336   9.555  18.148  0.00  0.00    +0.000 A 
ATOM     21  C   UNL     1       2.175   8.505  17.768  0.00  0.00    +0.000 A 
ENDBRANCH  15  16
ENDBRANCH  10  15
TORSDOF 4
ENDMDL
MODEL 7
REMARK VINA RESULT:      -6.5      2.102      4.037
REMARK  Name = 
REMARK  5 active torsions:
REMARK  status: ('A' for Active; 'I' for Inactive)
REMARK    1  A    between atoms: C_1  and  S_2
REMARK    2  A    between atoms: S_2  and  C_3
REMARK    3  A    between atoms: C_3  and  C_4
REMARK    4  A    between atoms: N_13  and  C_14
REMARK    5  A    between atoms: C_14  and  C_15
REMARK                            x       y       z     vdW  Elec       q    Type
REMARK                         _______ _______ _______ _____ _____    ______ ____
ROOT
ATOM      1  C   UNL     1       4.566   3.116  18.891  0.00  0.00    +0.000 C 
ATOM      2  O   UNL     1       4.724   3.128  20.115  0.00  0.00    +0.000 OA
ATOM      3  N   UNL     1       5.309   3.935  18.061  0.00  0.00    +0.000 N 
ATOM      4  C   UNL     1       6.350   4.755  18.690  0.00  0.00    +0.000 C 
ATOM      5  C   UNL     1       6.796   5.911  17.792  0.00  0.00    +0.000 C 
ATOM      6  C   UNL     1       7.339   5.352  16.461  0.00  0.00    +0.000 C 
ATOM      7  C   UNL     1       6.533   4.151  15.960  0.00  0.00    +0.000 C 
ATOM      8  C   UNL     1       5.142   4.116  16.603  0.00  0.00    +0.000 C 
ATOM      9  C   UNL     1       4.363   5.416  16.225  0.00  0.00    +0.000 C 
ATOM     10  N   UNL     1       4.322   6.533  17.178  0.00  0.00    +0.000 NA
ATOM     11  C   UNL     1       5.670   6.967  17.602  0.00  0.00    +0.000 C 
ENDROOT
BRANCH   1  12
ATOM     12  C   UNL     1       3.544   2.155  18.295  0.00  0.00    +0.000 C 
BRANCH  12  14
ATOM     13  C   UNL     1       1.304   2.651  19.870  0.00  0.00    +0.000 C 
ATOM     14  S   UNL     1       1.907   2.950  18.180  0.00  0.00    +0.000 S 
ENDBRANCH  12  14
ENDBRANCH   1  12
BRANCH  10  15
ATOM     15  C   UNL     1       3.425   6.362  18.340  0.00  0.00    +0.000 C 
BRANCH  15  16
ATOM     16  C   UNL     1       2.544   7.528  18.755  0.00  0.00    +0.000 A 
ATOM     17  C   UNL     1       2.177   8.478  17.782  0.00  0.00    +0.000 A 
ATOM     18  C   UNL     1       1.326   9.542  18.092  0.00  0.00    +0.000 A 
ATOM     19  C   UNL     1       0.818   9.669  19.382  0.00  0.00    +0.000 A 
ATOM     20  C   UNL     1       1.150   8.721  20.352  0.00  0.00    +0.000 A 
ATOM     21  C   UNL     1       1.989   7.650  20.037  0.00  0.00    +0.000 A 
ENDBRANCH  15  16
ENDBRANCH  10  15
TORSDOF 4
ENDMDL
MODEL 8
REMARK VINA RESULT:      -6.4      2.310      4.681
REMARK  Name = 
REMARK  5 active torsions:
REMARK  status: ('A' for Active; 'I' for Inactive)
REMARK    1  A    between atoms: C_1  and  S_2
REMARK    2  A    between atoms: S_2  and  C_3
REMARK    3  A    between atoms: C_3  and  C_4
REMARK    4  A    between atoms: N_13  and  C_14
REMARK    5  A    between atoms: C_14  and  C_15
REMARK                            x       y       z     vdW  Elec       q    Type
REMARK                         _______ _______ _______ _____ _____    ______ ____
ROOT
ATOM      1  C   UNL     1       2.130   6.400  19.781  0.00  0.00    +0.000 C 
ATOM      2  O   UNL     1       2.132   6.747  20.965  0.00  0.00    +0.000 OA
ATOM      3  N   UNL     1       2.030   5.069  19.422  0.00  0.00    +0.000 N 
ATOM      4  C   UNL     1       1.841   4.097  20.505  0.00  0.00    +0.000 C 
ATOM      5  C   UNL     1       2.176   2.671  20.066  0.00  0.00    +0.000 C 
ATOM      6  C   UNL     1       1.281   2.271  18.876  0.00  0.00    +0.000 C 
ATOM      7  C   UNL     1       1.056   3.427  17.899  0.00  0.00    +0.000 C 
ATOM      8  C   UNL     1       2.139   4.501  18.061  0.00  0.00    +0.000 C 
ATOM      9  C   UNL     1       3.538   3.876  17.760  0.00  0.00    +0.000 C 
ATOM     10  N   UNL     1       4.387   3.440  18.878  0.00  0.00    +0.000 NA
ATOM     11  C   UNL     1       3.695   2.494  19.779  0.00  0.00    +0.000 C 
ENDROOT
BRANCH   1  12
ATOM     12  C   UNL     1       2.216   7.474  18.704  0.00  0.00    +0.000 C 
BRANCH  12  14
ATOM     13  C   UNL     1       1.945  10.135  17.936  0.00  0.00    +0.000 C 
ATOM     14  S   UNL     1       1.416   9.013  19.266  0.00  0.00    +0.000 S 
ENDBRANCH  12  14
ENDBRANCH   1  12
BRANCH  10  15
ATOM     15  C   UNL     1       5.057   4.514  19.642  0.00  0.00    +0.000 C 
BRANCH  15  16
ATOM     16  C   UNL     1       5.992   5.455  18.902  0.00  0.00    +0.000 A 
ATOM     17  C   UNL     1       5.493   6.180  17.803  0.00  0.00    +0.000 A 
ATOM     18  C   UNL     1       6.291   7.099  17.117  0.00  0.00    +0.000 A 
ATOM     19  C   UNL     1       7.604   7.316  17.526  0.00  0.00    +0.000 A 
ATOM     20  C   UNL     1       8.107   6.626  18.630  0.00  0.00    +0.000 A 
ATOM     21  C   UNL     1       7.304   5.718  19.324  0.00  0.00    +0.000 A 
ENDBRANCH  15  16
ENDBRANCH  10  15
TORSDOF 4
ENDMDL
MODEL 9
REMARK VINA RESULT:      -6.4      1.075      1.163
REMARK  Name = 
REMARK  5 active torsions:
REMARK  status: ('A' for Active; 'I' for Inactive)
REMARK    1  A    between atoms: C_1  and  S_2
REMARK    2  A    between atoms: S_2  and  C_3
REMARK    3  A    between atoms: C_3  and  C_4
REMARK    4  A    between atoms: N_13  and  C_14
REMARK    5  A    between atoms: C_14  and  C_15
REMARK                            x       y       z     vdW  Elec       q    Type
REMARK                         _______ _______ _______ _____ _____    ______ ____
ROOT
ATOM      1  C   UNL     1       5.682   5.006  18.092  0.00  0.00    +0.000 C 
ATOM      2  O   UNL     1       6.041   5.404  16.980  0.00  0.00    +0.000 OA
ATOM      3  N   UNL     1       4.593   4.167  18.238  0.00  0.00    +0.000 N 
ATOM      4  C   UNL     1       3.937   3.704  17.010  0.00  0.00    +0.000 C 
ATOM      5  C   UNL     1       2.529   3.166  17.275  0.00  0.00    +0.000 C 
ATOM      6  C   UNL     1       2.603   1.993  18.273  0.00  0.00    +0.000 C 
ATOM      7  C   UNL     1       3.642   2.225  19.372  0.00  0.00    +0.000 C 
ATOM      8  C   UNL     1       3.977   3.715  19.505  0.00  0.00    +0.000 C 
ATOM      9  C   UNL     1       2.685   4.506  19.883  0.00  0.00    +0.000 C 
ATOM     10  N   UNL     1       1.928   5.194  18.828  0.00  0.00    +0.000 NA
ATOM     11  C   UNL     1       1.552   4.291  17.720  0.00  0.00    +0.000 C 
ENDROOT
BRANCH   1  12
ATOM     12  C   UNL     1       6.480   5.437  19.316  0.00  0.00    +0.000 C 
BRANCH  12  14
ATOM     13  C   UNL     1       8.135   7.495  18.439  0.00  0.00    +0.000 C 
ATOM     14  S   UNL     1       8.224   5.731  18.875  0.00  0.00    +0.000 S 
ENDBRANCH  12  14
ENDBRANCH   1  12
BRANCH  10  15
ATOM     15  C   UNL     1       2.518   6.450  18.319  0.00  0.00    +0.000 C 
BRANCH  15  16
ATOM     16  C   UNL     1       1.913   7.769  18.764  0.00  0.00    +0.000 A 
ATOM     17  C   UNL     1       1.626   7.956  20.130  0.00  0.00    +0.000 A 
ATOM     18  C   UNL     1       1.118   9.167  20.606  0.00  0.00    +0.000 A 
ATOM     19  C   UNL     1       0.894  10.219  19.722  0.00  0.00    +0.000 A 
ATOM     20  C   UNL     1       1.198  10.060  18.369  0.00  0.00    +0.000 A 
ATOM     21  C   UNL     1       1.720   8.854  17.897  0.00  0.00    +0.000 A 
ENDBRANCH  15  16
ENDBRANCH  10  15
TORSDOF 4
ENDMDL
