MODEL 1
REMARK VINA RESULT:      -8.0      0.000      0.000
REMARK  Name = 
REMARK  2 active torsions:
REMARK  status: ('A' for Active; 'I' for Inactive)
REMARK    1  A    between atoms: C_2  and  O_3
REMARK    2  A    between atoms: C_2  and  C_4
REMARK                            x       y       z     vdW  Elec       q    Type
REMARK                         _______ _______ _______ _____ _____    ______ ____
ROOT
ATOM      1  C   UNL     1       2.084   4.435  20.276  0.00  0.00    +0.000 A 
ATOM      2  C   UNL     1       2.192   4.228  18.890  0.00  0.00    +0.000 A 
ATOM      3  C   UNL     1       2.326   5.303  17.978  0.00  0.00    +0.000 A 
ATOM      4  C   UNL     1       2.247   6.617  18.506  0.00  0.00    +0.000 A 
ATOM      5  N   UNL     1       2.205   7.899  17.889  0.00  0.00    +0.000 N 
ATOM      6  C   UNL     1       1.890   8.851  18.867  0.00  0.00    +0.000 A 
ATOM      7  C   UNL     1       1.672   8.127  20.017  0.00  0.00    +0.000 A 
ATOM      8  C   UNL     1       2.106   6.804  19.874  0.00  0.00    +0.000 A 
ATOM      9  C   UNL     1       2.085   5.731  20.768  0.00  0.00    +0.000 A 
ATOM     10  C   UNL     1       0.760   8.640  21.048  0.00  0.00    +0.000 C 
ATOM     11  C   UNL     1      -0.259   9.662  20.429  0.00  0.00    +0.000 C 
ATOM     12  N   UNL     1      -0.064  10.095  18.953  0.00  0.00    +0.000 N 
ATOM     13  C   UNL     1      -0.680  11.279  18.418  0.00  0.00    +0.000 C 
ATOM     14  O   UNL     1      -1.685  11.266  17.721  0.00  0.00    +0.000 OA
ATOM     15  C   UNL     1       0.110  12.576  18.693  0.00  0.00    +0.000 A 
ATOM     16  C   UNL     1      -0.499  13.837  18.632  0.00  0.00    +0.000 A 
ATOM     17  C   UNL     1      -0.778  14.519  19.818  0.00  0.00    +0.000 A 
ATOM     18  C   UNL     1      -0.541  13.853  21.008  0.00  0.00    +0.000 A 
ATOM     19  C   UNL     1       0.359  12.774  20.997  0.00  0.00    +0.000 A 
ATOM     20  C   UNL     1       0.891  12.291  19.783  0.00  0.00    +0.000 A 
ATOM     21  O   UNL     1       1.784  11.201  19.694  0.00  0.00    +0.000 OA
ATOM     22  C   UNL     1       1.337  10.240  18.667  0.00  0.00    +0.000 C 
ATOM     23  H   UNL     1       2.235   8.038  16.899  0.00  0.00    +0.000 HD
ENDROOT
BRANCH   1  25
ATOM     24  O   UNL     1       2.594   2.997  22.139  0.00  0.00    +0.000 OA
ATOM     25  C   UNL     1       1.792   3.340  21.292  0.00  0.00    +0.000 C 
BRANCH  25  26
ATOM     26  O   UNL     1       0.617   2.765  21.093  0.00  0.00    +0.000 OA
ATOM     27  H   UNL     1       0.079   3.139  20.372  0.00  0.00    +0.000 HD
ENDBRANCH  25  26
ENDBRANCH   1  25
TORSDOF 2
ENDMDL
MODEL 2
REMARK VINA RESULT:      -7.6      0.854      1.088
REMARK  Name = 
REMARK  2 active torsions:
REMARK  status: ('A' for Active; 'I' for Inactive)
REMARK    1  A    between atoms: C_2  and  O_3
REMARK    2  A    between atoms: C_2  and  C_4
REMARK                            x       y       z     vdW  Elec       q    Type
REMARK                         _______ _______ _______ _____ _____    ______ ____
ROOT
ATOM      1  C   UNL     1       2.208   4.471  20.112  0.00  0.00    +0.000 A 
ATOM      2  C   UNL     1       2.411   4.526  18.722  0.00  0.00    +0.000 A 
ATOM      3  C   UNL     1       2.483   5.753  18.021  0.00  0.00    +0.000 A 
ATOM      4  C   UNL     1       2.240   6.939  18.760  0.00  0.00    +0.000 A 
ATOM      5  N   UNL     1       2.099   8.301  18.371  0.00  0.00    +0.000 N 
ATOM      6  C   UNL     1       1.634   9.030  19.474  0.00  0.00    +0.000 A 
ATOM      7  C   UNL     1       1.429   8.096  20.463  0.00  0.00    +0.000 A 
ATOM      8  C   UNL     1       2.005   6.865  20.126  0.00  0.00    +0.000 A 
ATOM      9  C   UNL     1       2.047   5.653  20.818  0.00  0.00    +0.000 A 
ATOM     10  C   UNL     1       0.414   8.331  21.499  0.00  0.00    +0.000 C 
ATOM     11  C   UNL     1      -0.670   9.348  20.992  0.00  0.00    +0.000 C 
ATOM     12  N   UNL     1      -0.440  10.053  19.632  0.00  0.00    +0.000 N 
ATOM     13  C   UNL     1      -1.146  11.252  19.265  0.00  0.00    +0.000 C 
ATOM     14  O   UNL     1      -2.105  11.270  18.505  0.00  0.00    +0.000 OA
ATOM     15  C   UNL     1      -0.511  12.546  19.815  0.00  0.00    +0.000 A 
ATOM     16  C   UNL     1      -1.243  13.736  19.929  0.00  0.00    +0.000 A 
ATOM     17  C   UNL     1      -1.655  14.167  21.190  0.00  0.00    +0.000 A 
ATOM     18  C   UNL     1      -1.416  13.324  22.262  0.00  0.00    +0.000 A 
ATOM     19  C   UNL     1      -0.410  12.352  22.130  0.00  0.00    +0.000 A 
ATOM     20  C   UNL     1       0.235  12.145  20.893  0.00  0.00    +0.000 A 
ATOM     21  O   UNL     1       1.239  11.175  20.683  0.00  0.00    +0.000 OA
ATOM     22  C   UNL     1       0.952  10.376  19.476  0.00  0.00    +0.000 C 
ATOM     23  H   UNL     1       2.168   8.617  17.425  0.00  0.00    +0.000 HD
ENDROOT
BRANCH   1  25
ATOM     24  O   UNL     1       1.501   2.188  20.402  0.00  0.00    +0.000 OA
ATOM     25  C   UNL     1       1.975   3.190  20.900  0.00  0.00    +0.000 C 
BRANCH  25  26
ATOM     26  O   UNL     1       2.272   3.324  22.183  0.00  0.00    +0.000 OA
ATOM     27  H   UNL     1       1.616   3.801  22.722  0.00  0.00    +0.000 HD
ENDBRANCH  25  26
ENDBRANCH   1  25
TORSDOF 2
ENDMDL
MODEL 3
REMARK VINA RESULT:      -7.2      2.508      7.494
REMARK  Name = 
REMARK  2 active torsions:
REMARK  status: ('A' for Active; 'I' for Inactive)
REMARK    1  A    between atoms: C_2  and  O_3
REMARK    2  A    between atoms: C_2  and  C_4
REMARK                            x       y       z     vdW  Elec       q    Type
REMARK                         _______ _______ _______ _____ _____    ______ ____
ROOT
ATOM      1  C   UNL     1      -0.478  11.016  20.894  0.00  0.00    +0.000 A 
ATOM      2  C   UNL     1      -1.003  10.141  21.861  0.00  0.00    +0.000 A 
ATOM      3  C   UNL     1      -0.404   8.891  22.147  0.00  0.00    +0.000 A 
ATOM      4  C   UNL     1       0.700   8.500  21.346  0.00  0.00    +0.000 A 
ATOM      5  N   UNL     1       1.444   7.290  21.260  0.00  0.00    +0.000 N 
ATOM      6  C   UNL     1       2.279   7.363  20.137  0.00  0.00    +0.000 A 
ATOM      7  C   UNL     1       1.967   8.559  19.534  0.00  0.00    +0.000 A 
ATOM      8  C   UNL     1       1.185   9.362  20.372  0.00  0.00    +0.000 A 
ATOM      9  C   UNL     1       0.647  10.637  20.179  0.00  0.00    +0.000 A 
ATOM     10  C   UNL     1       2.142   8.720  18.083  0.00  0.00    +0.000 C 
ATOM     11  C   UNL     1       2.120   7.325  17.365  0.00  0.00    +0.000 C 
ATOM     12  N   UNL     1       2.098   6.045  18.239  0.00  0.00    +0.000 N 
ATOM     13  C   UNL     1       2.458   4.756  17.712  0.00  0.00    +0.000 C 
ATOM     14  O   UNL     1       1.644   3.903  17.389  0.00  0.00    +0.000 OA
ATOM     15  C   UNL     1       3.977   4.483  17.707  0.00  0.00    +0.000 A 
ATOM     16  C   UNL     1       4.549   3.506  16.882  0.00  0.00    +0.000 A 
ATOM     17  C   UNL     1       5.267   3.900  15.752  0.00  0.00    +0.000 A 
ATOM     18  C   UNL     1       5.277   5.249  15.441  0.00  0.00    +0.000 A 
ATOM     19  C   UNL     1       4.990   6.168  16.464  0.00  0.00    +0.000 A 
ATOM     20  C   UNL     1       4.560   5.725  17.732  0.00  0.00    +0.000 A 
ATOM     21  O   UNL     1       4.236   6.590  18.800  0.00  0.00    +0.000 OA
ATOM     22  C   UNL     1       2.935   6.227  19.393  0.00  0.00    +0.000 C 
ATOM     23  H   UNL     1       1.256   6.484  21.821  0.00  0.00    +0.000 HD
ENDROOT
BRANCH   1  25
ATOM     24  O   UNL     1      -0.600  13.117  19.724  0.00  0.00    +0.000 OA
ATOM     25  C   UNL     1      -1.152  12.302  20.437  0.00  0.00    +0.000 C 
BRANCH  25  26
ATOM     26  O   UNL     1      -2.356  12.458  20.964  0.00  0.00    +0.000 OA
ATOM     27  H   UNL     1      -2.437  12.234  21.908  0.00  0.00    +0.000 HD
ENDBRANCH  25  26
ENDBRANCH   1  25
TORSDOF 2
ENDMDL
MODEL 4
REMARK VINA RESULT:      -7.1      8.720     10.407
REMARK  Name = 
REMARK  2 active torsions:
REMARK  status: ('A' for Active; 'I' for Inactive)
REMARK    1  A    between atoms: C_2  and  O_3
REMARK    2  A    between atoms: C_2  and  C_4
REMARK                            x       y       z     vdW  Elec       q    Type
REMARK                         _______ _______ _______ _____ _____    ______ ____
ROOT
ATOM      1  C   UNL     1      10.771  12.659  19.227  0.00  0.00    +0.000 A 
ATOM      2  C   UNL     1      10.851  14.060  19.157  0.00  0.00    +0.000 A 
ATOM      3  C   UNL     1      10.537  14.886  20.263  0.00  0.00    +0.000 A 
ATOM      4  C   UNL     1      10.037  14.250  21.428  0.00  0.00    +0.000 A 
ATOM      5  N   UNL     1       9.506  14.759  22.646  0.00  0.00    +0.000 N 
ATOM      6  C   UNL     1       8.942  13.693  23.362  0.00  0.00    +0.000 A 
ATOM      7  C   UNL     1       9.070  12.599  22.538  0.00  0.00    +0.000 A 
ATOM      8  C   UNL     1       9.931  12.867  21.468  0.00  0.00    +0.000 A 
ATOM      9  C   UNL     1      10.349  12.063  20.405  0.00  0.00    +0.000 A 
ATOM     10  C   UNL     1       8.107  11.492  22.629  0.00  0.00    +0.000 C 
ATOM     11  C   UNL     1       6.755  11.985  23.258  0.00  0.00    +0.000 C 
ATOM     12  N   UNL     1       6.686  13.426  23.822  0.00  0.00    +0.000 N 
ATOM     13  C   UNL     1       5.657  13.838  24.740  0.00  0.00    +0.000 C 
ATOM     14  O   UNL     1       4.677  14.492  24.413  0.00  0.00    +0.000 OA
ATOM     15  C   UNL     1       5.957  13.491  26.213  0.00  0.00    +0.000 A 
ATOM     16  C   UNL     1       4.942  13.424  27.177  0.00  0.00    +0.000 A 
ATOM     17  C   UNL     1       4.521  12.176  27.641  0.00  0.00    +0.000 A 
ATOM     18  C   UNL     1       5.056  11.055  27.030  0.00  0.00    +0.000 A 
ATOM     19  C   UNL     1       6.276  11.191  26.345  0.00  0.00    +0.000 A 
ATOM     20  C   UNL     1       6.861  12.460  26.159  0.00  0.00    +0.000 A 
ATOM     21  O   UNL     1       8.072  12.675  25.465  0.00  0.00    +0.000 OA
ATOM     22  C   UNL     1       7.924  13.757  24.473  0.00  0.00    +0.000 C 
ATOM     23  H   UNL     1       9.418  15.734  22.848  0.00  0.00    +0.000 HD
ENDROOT
BRANCH   1  25
ATOM     24  O   UNL     1      10.104  10.922  17.697  0.00  0.00    +0.000 OA
ATOM     25  C   UNL     1      10.952  11.724  18.038  0.00  0.00    +0.000 C 
BRANCH  25  26
ATOM     26  O   UNL     1      12.149  11.834  17.485  0.00  0.00    +0.000 OA
ATOM     27  H   UNL     1      12.747  11.077  17.615  0.00  0.00    +0.000 HD
ENDBRANCH  25  26
ENDBRANCH   1  25
TORSDOF 2
ENDMDL
MODEL 5
REMARK VINA RESULT:      -7.1      3.623      6.002
REMARK  Name = 
REMARK  2 active torsions:
REMARK  status: ('A' for Active; 'I' for Inactive)
REMARK    1  A    between atoms: C_2  and  O_3
REMARK    2  A    between atoms: C_2  and  C_4
REMARK                            x       y       z     vdW  Elec       q    Type
REMARK                         _______ _______ _______ _____ _____    ______ ____
ROOT
ATOM      1  C   UNL     1       1.147   9.251  19.437  0.00  0.00    +0.000 A 
ATOM      2  C   UNL     1       1.625   8.618  20.598  0.00  0.00    +0.000 A 
ATOM      3  C   UNL     1       1.029   8.823  21.865  0.00  0.00    +0.000 A 
ATOM      4  C   UNL     1      -0.017   9.778  21.945  0.00  0.00    +0.000 A 
ATOM      5  N   UNL     1      -0.735  10.325  23.045  0.00  0.00    +0.000 N 
ATOM      6  C   UNL     1      -1.500  11.404  22.580  0.00  0.00    +0.000 A 
ATOM      7  C   UNL     1      -1.171  11.533  21.251  0.00  0.00    +0.000 A 
ATOM      8  C   UNL     1      -0.454  10.420  20.795  0.00  0.00    +0.000 A 
ATOM      9  C   UNL     1       0.074  10.124  19.537  0.00  0.00    +0.000 A 
ATOM     10  C   UNL     1      -1.258  12.845  20.594  0.00  0.00    +0.000 C 
ATOM     11  C   UNL     1      -1.170  14.001  21.653  0.00  0.00    +0.000 C 
ATOM     12  N   UNL     1      -1.182  13.626  23.157  0.00  0.00    +0.000 N 
ATOM     13  C   UNL     1      -1.489  14.589  24.180  0.00  0.00    +0.000 C 
ATOM     14  O   UNL     1      -0.643  15.137  24.873  0.00  0.00    +0.000 OA
ATOM     15  C   UNL     1      -3.000  14.785  24.424  0.00  0.00    +0.000 A 
ATOM     16  C   UNL     1      -3.504  15.933  25.049  0.00  0.00    +0.000 A 
ATOM     17  C   UNL     1      -4.157  16.899  24.282  0.00  0.00    +0.000 A 
ATOM     18  C   UNL     1      -4.169  16.722  22.909  0.00  0.00    +0.000 A 
ATOM     19  C   UNL     1      -3.960  15.427  22.405  0.00  0.00    +0.000 A 
ATOM     20  C   UNL     1      -3.603  14.368  23.264  0.00  0.00    +0.000 A 
ATOM     21  O   UNL     1      -3.359  13.048  22.827  0.00  0.00    +0.000 OA
ATOM     22  C   UNL     1      -2.092  12.537  23.382  0.00  0.00    +0.000 C 
ATOM     23  H   UNL     1      -0.571  10.069  23.997  0.00  0.00    +0.000 HD
ENDROOT
BRANCH   1  25
ATOM     24  O   UNL     1       2.356   8.180  17.651  0.00  0.00    +0.000 OA
ATOM     25  C   UNL     1       1.828   9.189  18.077  0.00  0.00    +0.000 C 
BRANCH  25  26
ATOM     26  O   UNL     1       1.844  10.362  17.465  0.00  0.00    +0.000 OA
ATOM     27  H   UNL     1       1.008  10.861  17.483  0.00  0.00    +0.000 HD
ENDBRANCH  25  26
ENDBRANCH   1  25
TORSDOF 2
ENDMDL
MODEL 6
REMARK VINA RESULT:      -7.1      1.976      8.010
REMARK  Name = 
REMARK  2 active torsions:
REMARK  status: ('A' for Active; 'I' for Inactive)
REMARK    1  A    between atoms: C_2  and  O_3
REMARK    2  A    between atoms: C_2  and  C_4
REMARK                            x       y       z     vdW  Elec       q    Type
REMARK                         _______ _______ _______ _____ _____    ______ ____
ROOT
ATOM      1  C   UNL     1       0.157  11.137  19.452  0.00  0.00    +0.000 A 
ATOM      2  C   UNL     1      -0.481  10.902  20.682  0.00  0.00    +0.000 A 
ATOM      3  C   UNL     1      -0.137   9.805  21.508  0.00  0.00    +0.000 A 
ATOM      4  C   UNL     1       0.815   8.883  21.002  0.00  0.00    +0.000 A 
ATOM      5  N   UNL     1       1.286   7.629  21.484  0.00  0.00    +0.000 N 
ATOM      6  C   UNL     1       2.052   7.029  20.475  0.00  0.00    +0.000 A 
ATOM      7  C   UNL     1       1.960   7.879  19.398  0.00  0.00    +0.000 A 
ATOM      8  C   UNL     1       1.410   9.112  19.770  0.00  0.00    +0.000 A 
ATOM      9  C   UNL     1       1.137  10.257  19.019  0.00  0.00    +0.000 A 
ATOM     10  C   UNL     1       2.081   7.353  18.031  0.00  0.00    +0.000 C 
ATOM     11  C   UNL     1       1.729   5.823  17.994  0.00  0.00    +0.000 C 
ATOM     12  N   UNL     1       1.494   5.088  19.338  0.00  0.00    +0.000 N 
ATOM     13  C   UNL     1       1.550   3.654  19.443  0.00  0.00    +0.000 C 
ATOM     14  O   UNL     1       0.560   2.938  19.493  0.00  0.00    +0.000 OA
ATOM     15  C   UNL     1       2.977   3.093  19.617  0.00  0.00    +0.000 A 
ATOM     16  C   UNL     1       3.286   1.758  19.324  0.00  0.00    +0.000 A 
ATOM     17  C   UNL     1       4.004   1.460  18.165  0.00  0.00    +0.000 A 
ATOM     18  C   UNL     1       4.274   2.504  17.297  0.00  0.00    +0.000 A 
ATOM     19  C   UNL     1       4.243   3.814  17.803  0.00  0.00    +0.000 A 
ATOM     20  C   UNL     1       3.804   4.068  19.119  0.00  0.00    +0.000 A 
ATOM     21  O   UNL     1       3.728   5.358  19.688  0.00  0.00    +0.000 OA
ATOM     22  C   UNL     1       2.416   5.572  20.329  0.00  0.00    +0.000 C 
ATOM     23  H   UNL     1       0.970   7.207  22.333  0.00  0.00    +0.000 HD
ENDROOT
BRANCH   1  25
ATOM     24  O   UNL     1      -1.417  12.363  18.103  0.00  0.00    +0.000 OA
ATOM     25  C   UNL     1      -0.263  12.206  18.452  0.00  0.00    +0.000 C 
BRANCH  25  26
ATOM     26  O   UNL     1       0.768  12.875  17.962  0.00  0.00    +0.000 OA
ATOM     27  H   UNL     1       0.718  13.844  18.037  0.00  0.00    +0.000 HD
ENDBRANCH  25  26
ENDBRANCH   1  25
TORSDOF 2
ENDMDL
MODEL 7
REMARK VINA RESULT:      -7.0      2.370      7.581
REMARK  Name = 
REMARK  2 active torsions:
REMARK  status: ('A' for Active; 'I' for Inactive)
REMARK    1  A    between atoms: C_2  and  O_3
REMARK    2  A    between atoms: C_2  and  C_4
REMARK                            x       y       z     vdW  Elec       q    Type
REMARK                         _______ _______ _______ _____ _____    ______ ____
ROOT
ATOM      1  C   UNL     1       0.292  11.654  20.850  0.00  0.00    +0.000 A 
ATOM      2  C   UNL     1       1.161  12.362  20.003  0.00  0.00    +0.000 A 
ATOM      3  C   UNL     1       1.810  11.745  18.907  0.00  0.00    +0.000 A 
ATOM      4  C   UNL     1       1.630  10.347  18.749  0.00  0.00    +0.000 A 
ATOM      5  N   UNL     1       2.219   9.397  17.868  0.00  0.00    +0.000 N 
ATOM      6  C   UNL     1       1.856   8.113  18.296  0.00  0.00    +0.000 A 
ATOM      7  C   UNL     1       1.137   8.308  19.452  0.00  0.00    +0.000 A 
ATOM      8  C   UNL     1       0.795   9.656  19.615  0.00  0.00    +0.000 A 
ATOM      9  C   UNL     1       0.079  10.304  20.624  0.00  0.00    +0.000 A 
ATOM     10  C   UNL     1       1.116   7.270  20.491  0.00  0.00    +0.000 C 
ATOM     11  C   UNL     1       2.374   6.338  20.368  0.00  0.00    +0.000 C 
ATOM     12  N   UNL     1       3.308   6.517  19.144  0.00  0.00    +0.000 N 
ATOM     13  C   UNL     1       4.238   5.498  18.738  0.00  0.00    +0.000 C 
ATOM     14  O   UNL     1       5.435   5.535  18.983  0.00  0.00    +0.000 OA
ATOM     15  C   UNL     1       3.616   4.401  17.849  0.00  0.00    +0.000 A 
ATOM     16  C   UNL     1       4.217   3.143  17.701  0.00  0.00    +0.000 A 
ATOM     17  C   UNL     1       3.657   2.038  18.344  0.00  0.00    +0.000 A 
ATOM     18  C   UNL     1       2.592   2.268  19.198  0.00  0.00    +0.000 A 
ATOM     19  C   UNL     1       1.853   3.452  19.032  0.00  0.00    +0.000 A 
ATOM     20  C   UNL     1       2.272   4.443  18.121  0.00  0.00    +0.000 A 
ATOM     21  O   UNL     1       1.591   5.663  17.916  0.00  0.00    +0.000 OA
ATOM     22  C   UNL     1       2.528   6.802  17.971  0.00  0.00    +0.000 C 
ATOM     23  H   UNL     1       2.902   9.632  17.176  0.00  0.00    +0.000 HD
ENDROOT
BRANCH   1  25
ATOM     24  O   UNL     1      -0.622  13.390  22.249  0.00  0.00    +0.000 OA
ATOM     25  C   UNL     1      -0.320  12.218  22.126  0.00  0.00    +0.000 C 
BRANCH  25  26
ATOM     26  O   UNL     1      -0.405  11.315  23.089  0.00  0.00    +0.000 OA
ATOM     27  H   UNL     1      -0.161  10.406  22.840  0.00  0.00    +0.000 HD
ENDBRANCH  25  26
ENDBRANCH   1  25
TORSDOF 2
ENDMDL
MODEL 8
REMARK VINA RESULT:      -6.9      3.051      3.947
REMARK  Name = 
REMARK  2 active torsions:
REMARK  status: ('A' for Active; 'I' for Inactive)
REMARK    1  A    between atoms: C_2  and  O_3
REMARK    2  A    between atoms: C_2  and  C_4
REMARK                            x       y       z     vdW  Elec       q    Type
REMARK                         _______ _______ _______ _____ _____    ______ ____
ROOT
ATOM      1  C   UNL     1       5.230   5.928  17.241  0.00  0.00    +0.000 A 
ATOM      2  C   UNL     1       5.463   5.414  18.528  0.00  0.00    +0.000 A 
ATOM      3  C   UNL     1       4.537   5.589  19.585  0.00  0.00    +0.000 A 
ATOM      4  C   UNL     1       3.400   6.396  19.326  0.00  0.00    +0.000 A 
ATOM      5  N   UNL     1       2.361   6.887  20.165  0.00  0.00    +0.000 N 
ATOM      6  C   UNL     1       1.619   7.833  19.444  0.00  0.00    +0.000 A 
ATOM      7  C   UNL     1       2.265   7.950  18.234  0.00  0.00    +0.000 A 
ATOM      8  C   UNL     1       3.204   6.926  18.059  0.00  0.00    +0.000 A 
ATOM      9  C   UNL     1       4.072   6.651  17.000  0.00  0.00    +0.000 A 
ATOM     10  C   UNL     1       2.195   9.209  17.481  0.00  0.00    +0.000 C 
ATOM     11  C   UNL     1       1.867  10.409  18.438  0.00  0.00    +0.000 C 
ATOM     12  N   UNL     1       1.509  10.100  19.914  0.00  0.00    +0.000 N 
ATOM     13  C   UNL     1       0.833  11.054  20.752  0.00  0.00    +0.000 C 
ATOM     14  O   UNL     1       1.398  11.739  21.593  0.00  0.00    +0.000 OA
ATOM     15  C   UNL     1      -0.701  11.054  20.591  0.00  0.00    +0.000 A 
ATOM     16  C   UNL     1      -1.484  12.149  20.981  0.00  0.00    +0.000 A 
ATOM     17  C   UNL     1      -2.026  12.985  20.004  0.00  0.00    +0.000 A 
ATOM     18  C   UNL     1      -1.660  12.751  18.689  0.00  0.00    +0.000 A 
ATOM     19  C   UNL     1      -1.174  11.477  18.353  0.00  0.00    +0.000 A 
ATOM     20  C   UNL     1      -0.928  10.512  19.351  0.00  0.00    +0.000 A 
ATOM     21  O   UNL     1      -0.422   9.219  19.089  0.00  0.00    +0.000 OA
ATOM     22  C   UNL     1       0.709   8.907  19.983  0.00  0.00    +0.000 C 
ATOM     23  H   UNL     1       2.302   6.695  21.145  0.00  0.00    +0.000 HD
ENDROOT
BRANCH   1  25
ATOM     24  O   UNL     1       7.438   6.045  16.286  0.00  0.00    +0.000 OA
ATOM     25  C   UNL     1       6.244   5.902  16.105  0.00  0.00    +0.000 C 
BRANCH  25  26
ATOM     26  O   UNL     1       5.672   5.789  14.917  0.00  0.00    +0.000 OA
ATOM     27  H   UNL     1       6.240   5.446  14.205  0.00  0.00    +0.000 HD
ENDBRANCH  25  26
ENDBRANCH   1  25
TORSDOF 2
ENDMDL
MODEL 9
REMARK VINA RESULT:      -6.8      2.338      3.819
REMARK  Name = 
REMARK  2 active torsions:
REMARK  status: ('A' for Active; 'I' for Inactive)
REMARK    1  A    between atoms: C_2  and  O_3
REMARK    2  A    between atoms: C_2  and  C_4
REMARK                            x       y       z     vdW  Elec       q    Type
REMARK                         _______ _______ _______ _____ _____    ______ ____
ROOT
ATOM      1  C   UNL     1       2.812   7.017  18.470  0.00  0.00    +0.000 A 
ATOM      2  C   UNL     1       2.594   6.570  19.785  0.00  0.00    +0.000 A 
ATOM      3  C   UNL     1       1.765   7.275  20.690  0.00  0.00    +0.000 A 
ATOM      4  C   UNL     1       1.234   8.517  20.254  0.00  0.00    +0.000 A 
ATOM      5  N   UNL     1       0.494   9.532  20.922  0.00  0.00    +0.000 N 
ATOM      6  C   UNL     1       0.427  10.654  20.084  0.00  0.00    +0.000 A 
ATOM      7  C   UNL     1       1.184  10.326  18.983  0.00  0.00    +0.000 A 
ATOM      8  C   UNL     1       1.488   8.960  18.964  0.00  0.00    +0.000 A 
ATOM      9  C   UNL     1       2.219   8.197  18.050  0.00  0.00    +0.000 A 
ATOM     10  C   UNL     1       1.853  11.381  18.210  0.00  0.00    +0.000 C 
ATOM     11  C   UNL     1       2.065  12.664  19.090  0.00  0.00    +0.000 C 
ATOM     12  N   UNL     1       1.424  12.705  20.501  0.00  0.00    +0.000 N 
ATOM     13  C   UNL     1       1.229  13.938  21.215  0.00  0.00    +0.000 C 
ATOM     14  O   UNL     1       1.956  14.320  22.120  0.00  0.00    +0.000 OA
ATOM     15  C   UNL     1      -0.062  14.690  20.827  0.00  0.00    +0.000 A 
ATOM     16  C   UNL     1      -0.223  16.058  21.081  0.00  0.00    +0.000 A 
ATOM     17  C   UNL     1      -0.144  16.964  20.022  0.00  0.00    +0.000 A 
ATOM     18  C   UNL     1       0.209  16.465  18.780  0.00  0.00    +0.000 A 
ATOM     19  C   UNL     1       0.020  15.093  18.538  0.00  0.00    +0.000 A 
ATOM     20  C   UNL     1      -0.380  14.226  19.576  0.00  0.00    +0.000 A 
ATOM     21  O   UNL     1      -0.571  12.837  19.411  0.00  0.00    +0.000 OA
ATOM     22  C   UNL     1       0.129  12.082  20.467  0.00  0.00    +0.000 C 
ATOM     23  H   UNL     1       0.228   9.481  21.884  0.00  0.00    +0.000 HD
ENDROOT
BRANCH   1  25
ATOM     24  O   UNL     1       4.596   7.046  16.853  0.00  0.00    +0.000 OA
ATOM     25  C   UNL     1       3.802   6.390  17.499  0.00  0.00    +0.000 C 
BRANCH  25  26
ATOM     26  O   UNL     1       3.642   5.081  17.387  0.00  0.00    +0.000 OA
ATOM     27  H   UNL     1       3.196   4.643  18.134  0.00  0.00    +0.000 HD
ENDBRANCH  25  26
ENDBRANCH   1  25
TORSDOF 2
ENDMDL
