MODEL 1
REMARK VINA RESULT:      -8.9      0.000      0.000
REMARK  Name = 
REMARK  12 active torsions:
REMARK  status: ('A' for Active; 'I' for Inactive)
REMARK    1  A    between atoms: C_1  and  C_2
REMARK    2  A    between atoms: C_2  and  C_3
REMARK    3  A    between atoms: C_2  and  C_4
REMARK    4  A    between atoms: C_2  and  C_5
REMARK    5  A    between atoms: C_7  and  C_8
REMARK    6  A    between atoms: C_13  and  C_14
REMARK    7  A    between atoms: C_14  and  O_16
REMARK    8  A    between atoms: C_22  and  C_23
REMARK    9  A    between atoms: C_23  and  C_24
REMARK   10  A    between atoms: C_23  and  C_25
REMARK   11  A    between atoms: C_23  and  C_26
REMARK   12  A    between atoms: C_27  and  O_28
REMARK                            x       y       z     vdW  Elec       q    Type
REMARK                         _______ _______ _______ _____ _____    ______ ____
ROOT
ATOM      1  C   UNL     1       4.305   5.562  17.654  0.00  0.00    +0.000 A 
ATOM      2  C   UNL     1       3.559   6.655  18.148  0.00  0.00    +0.000 A 
ATOM      3  C   UNL     1       2.651   6.535  19.213  0.00  0.00    +0.000 A 
ATOM      4  C   UNL     1       2.526   5.278  19.822  0.00  0.00    +0.000 A 
ATOM      5  C   UNL     1       3.236   4.134  19.398  0.00  0.00    +0.000 A 
ATOM      6  C   UNL     1       4.095   4.311  18.287  0.00  0.00    +0.000 A 
ENDROOT
BRANCH   3   7
ATOM      7  C   UNL     1       1.853   7.694  19.702  0.00  0.00    +0.000 C 
ATOM      8  C   UNL     1       1.267   7.711  20.914  0.00  0.00    +0.000 C 
ATOM      9  C   UNL     1       0.556   8.927  21.313  0.00  0.00    +0.000 A 
ATOM     10  C   UNL     1       0.223   9.179  22.645  0.00  0.00    +0.000 A 
ATOM     11  C   UNL     1      -0.474  10.343  22.982  0.00  0.00    +0.000 A 
ATOM     12  C   UNL     1      -0.881  11.243  21.986  0.00  0.00    +0.000 A 
ATOM     13  C   UNL     1      -0.552  10.994  20.649  0.00  0.00    +0.000 A 
ATOM     14  C   UNL     1       0.189   9.856  20.330  0.00  0.00    +0.000 A 
ATOM     15  O   UNL     1       0.533   9.679  19.014  0.00  0.00    +0.000 OA
ATOM     16  C   UNL     1       1.767   8.948  18.853  0.00  0.00    +0.000 C 
BRANCH  12  17
ATOM     17  C   UNL     1      -1.588  12.472  22.406  0.00  0.00    +0.000 C 
ATOM     18  O   UNL     1      -2.604  12.872  21.861  0.00  0.00    +0.000 OA
BRANCH  17  19
ATOM     19  O   UNL     1      -0.982  13.135  23.418  0.00  0.00    +0.000 OA
ATOM     20  H   UNL     1      -1.428  13.059  24.282  0.00  0.00    +0.000 HD
ENDBRANCH  17  19
ENDBRANCH  12  17
ENDBRANCH   3   7
BRANCH   1  22
ATOM     21  C   UNL     1       5.332   4.565  15.488  0.00  0.00    +0.000 C 
ATOM     22  C   UNL     1       5.325   5.744  16.497  0.00  0.00    +0.000 C 
ATOM     23  C   UNL     1       6.772   5.861  17.026  0.00  0.00    +0.000 C 
ATOM     24  C   UNL     1       4.981   7.005  15.668  0.00  0.00    +0.000 C 
ENDBRANCH   1  22
BRANCH   5  25
ATOM     25  C   UNL     1       3.028   2.773  20.115  0.00  0.00    +0.000 C 
ATOM     26  C   UNL     1       2.324   2.908  21.495  0.00  0.00    +0.000 C 
ATOM     27  C   UNL     1       2.138   1.838  19.268  0.00  0.00    +0.000 C 
ATOM     28  C   UNL     1       4.371   2.069  20.419  0.00  0.00    +0.000 C 
ENDBRANCH   5  25
BRANCH   6  29
ATOM     29  O   UNL     1       4.733   3.222  17.761  0.00  0.00    +0.000 OA
ATOM     30  H   UNL     1       5.353   3.558  17.096  0.00  0.00    +0.000 HD
ENDBRANCH   6  29
TORSDOF 6
ENDMDL
MODEL 2
REMARK VINA RESULT:      -8.9      1.480      3.712
REMARK  Name = 
REMARK  12 active torsions:
REMARK  status: ('A' for Active; 'I' for Inactive)
REMARK    1  A    between atoms: C_1  and  C_2
REMARK    2  A    between atoms: C_2  and  C_3
REMARK    3  A    between atoms: C_2  and  C_4
REMARK    4  A    between atoms: C_2  and  C_5
REMARK    5  A    between atoms: C_7  and  C_8
REMARK    6  A    between atoms: C_13  and  C_14
REMARK    7  A    between atoms: C_14  and  O_16
REMARK    8  A    between atoms: C_22  and  C_23
REMARK    9  A    between atoms: C_23  and  C_24
REMARK   10  A    between atoms: C_23  and  C_25
REMARK   11  A    between atoms: C_23  and  C_26
REMARK   12  A    between atoms: C_27  and  O_28
REMARK                            x       y       z     vdW  Elec       q    Type
REMARK                         _______ _______ _______ _____ _____    ______ ____
ROOT
ATOM      1  C   UNL     1       3.326   4.160  19.314  0.00  0.00    +0.000 A 
ATOM      2  C   UNL     1       2.534   5.329  19.320  0.00  0.00    +0.000 A 
ATOM      3  C   UNL     1       3.040   6.591  18.965  0.00  0.00    +0.000 A 
ATOM      4  C   UNL     1       4.378   6.662  18.552  0.00  0.00    +0.000 A 
ATOM      5  C   UNL     1       5.240   5.544  18.511  0.00  0.00    +0.000 A 
ATOM      6  C   UNL     1       4.682   4.313  18.931  0.00  0.00    +0.000 A 
ENDROOT
BRANCH   3   7
ATOM      7  C   UNL     1       2.195   7.818  19.002  0.00  0.00    +0.000 C 
ATOM      8  C   UNL     1       1.576   8.239  20.121  0.00  0.00    +0.000 C 
ATOM      9  C   UNL     1       0.819   9.490  20.054  0.00  0.00    +0.000 A 
ATOM     10  C   UNL     1       0.443  10.183  21.206  0.00  0.00    +0.000 A 
ATOM     11  C   UNL     1      -0.296  11.364  21.100  0.00  0.00    +0.000 A 
ATOM     12  C   UNL     1      -0.701  11.841  19.844  0.00  0.00    +0.000 A 
ATOM     13  C   UNL     1      -0.328  11.150  18.686  0.00  0.00    +0.000 A 
ATOM     14  C   UNL     1       0.454  10.000  18.800  0.00  0.00    +0.000 A 
ATOM     15  O   UNL     1       0.839   9.385  17.637  0.00  0.00    +0.000 OA
ATOM     16  C   UNL     1       2.098   8.689  17.764  0.00  0.00    +0.000 C 
BRANCH  12  17
ATOM     17  C   UNL     1      -1.454  13.113  19.793  0.00  0.00    +0.000 C 
ATOM     18  O   UNL     1      -2.395  13.355  20.532  0.00  0.00    +0.000 OA
BRANCH  17  19
ATOM     19  O   UNL     1      -1.036  13.961  18.826  0.00  0.00    +0.000 OA
ATOM     20  H   UNL     1      -0.562  14.749  19.149  0.00  0.00    +0.000 HD
ENDBRANCH  17  19
ENDBRANCH  12  17
ENDBRANCH   3   7
BRANCH   1  22
ATOM     21  C   UNL     1       3.124   2.279  21.092  0.00  0.00    +0.000 C 
ATOM     22  C   UNL     1       2.719   2.779  19.680  0.00  0.00    +0.000 C 
ATOM     23  C   UNL     1       3.170   1.678  18.694  0.00  0.00    +0.000 C 
ATOM     24  C   UNL     1       1.172   2.853  19.689  0.00  0.00    +0.000 C 
ENDBRANCH   1  22
BRANCH   5  25
ATOM     25  C   UNL     1       6.716   5.710  18.059  0.00  0.00    +0.000 C 
ATOM     26  C   UNL     1       6.991   7.066  17.352  0.00  0.00    +0.000 C 
ATOM     27  C   UNL     1       7.669   5.655  19.272  0.00  0.00    +0.000 C 
ATOM     28  C   UNL     1       7.129   4.631  17.031  0.00  0.00    +0.000 C 
ENDBRANCH   5  25
BRANCH   6  29
ATOM     29  O   UNL     1       5.489   3.212  19.014  0.00  0.00    +0.000 OA
ATOM     30  H   UNL     1       4.932   2.481  19.320  0.00  0.00    +0.000 HD
ENDBRANCH   6  29
TORSDOF 6
ENDMDL
MODEL 3
REMARK VINA RESULT:      -8.9      0.184      3.524
REMARK  Name = 
REMARK  12 active torsions:
REMARK  status: ('A' for Active; 'I' for Inactive)
REMARK    1  A    between atoms: C_1  and  C_2
REMARK    2  A    between atoms: C_2  and  C_3
REMARK    3  A    between atoms: C_2  and  C_4
REMARK    4  A    between atoms: C_2  and  C_5
REMARK    5  A    between atoms: C_7  and  C_8
REMARK    6  A    between atoms: C_13  and  C_14
REMARK    7  A    between atoms: C_14  and  O_16
REMARK    8  A    between atoms: C_22  and  C_23
REMARK    9  A    between atoms: C_23  and  C_24
REMARK   10  A    between atoms: C_23  and  C_25
REMARK   11  A    between atoms: C_23  and  C_26
REMARK   12  A    between atoms: C_27  and  O_28
REMARK                            x       y       z     vdW  Elec       q    Type
REMARK                         _______ _______ _______ _____ _____    ______ ____
ROOT
ATOM      1  C   UNL     1       3.230   4.161  19.506  0.00  0.00    +0.000 A 
ATOM      2  C   UNL     1       2.465   5.271  19.930  0.00  0.00    +0.000 A 
ATOM      3  C   UNL     1       2.590   6.545  19.351  0.00  0.00    +0.000 A 
ATOM      4  C   UNL     1       3.488   6.689  18.283  0.00  0.00    +0.000 A 
ATOM      5  C   UNL     1       4.287   5.634  17.792  0.00  0.00    +0.000 A 
ATOM      6  C   UNL     1       4.151   4.390  18.453  0.00  0.00    +0.000 A 
ENDROOT
BRANCH   3   7
ATOM      7  C   UNL     1       1.794   7.710  19.830  0.00  0.00    +0.000 C 
ATOM      8  C   UNL     1       1.195   7.732  21.035  0.00  0.00    +0.000 C 
ATOM      9  C   UNL     1       0.486   8.954  21.423  0.00  0.00    +0.000 A 
ATOM     10  C   UNL     1       0.140   9.211  22.750  0.00  0.00    +0.000 A 
ATOM     11  C   UNL     1      -0.554  10.379  23.077  0.00  0.00    +0.000 A 
ATOM     12  C   UNL     1      -0.943  11.281  22.075  0.00  0.00    +0.000 A 
ATOM     13  C   UNL     1      -0.600  11.027  20.742  0.00  0.00    +0.000 A 
ATOM     14  C   UNL     1       0.137   9.884  20.434  0.00  0.00    +0.000 A 
ATOM     15  O   UNL     1       0.496   9.703  19.122  0.00  0.00    +0.000 OA
ATOM     16  C   UNL     1       1.727   8.963  18.977  0.00  0.00    +0.000 C 
BRANCH  12  17
ATOM     17  C   UNL     1      -1.647  12.515  22.485  0.00  0.00    +0.000 C 
ATOM     18  O   UNL     1      -1.178  13.311  23.282  0.00  0.00    +0.000 OA
BRANCH  17  19
ATOM     19  O   UNL     1      -2.874  12.656  21.934  0.00  0.00    +0.000 OA
ATOM     20  H   UNL     1      -3.511  13.158  22.476  0.00  0.00    +0.000 HD
ENDBRANCH  17  19
ENDBRANCH  12  17
ENDBRANCH   3   7
BRANCH   1  22
ATOM     21  C   UNL     1       4.370   2.069  20.537  0.00  0.00    +0.000 C 
ATOM     22  C   UNL     1       3.036   2.762  20.148  0.00  0.00    +0.000 C 
ATOM     23  C   UNL     1       2.315   1.788  19.189  0.00  0.00    +0.000 C 
ATOM     24  C   UNL     1       2.225   2.877  21.462  0.00  0.00    +0.000 C 
ENDBRANCH   1  22
BRANCH   5  25
ATOM     25  C   UNL     1       5.271   5.880  16.616  0.00  0.00    +0.000 C 
ATOM     26  C   UNL     1       5.347   4.688  15.621  0.00  0.00    +0.000 C 
ATOM     27  C   UNL     1       4.836   7.107  15.787  0.00  0.00    +0.000 C 
ATOM     28  C   UNL     1       6.723   6.081  17.110  0.00  0.00    +0.000 C 
ENDBRANCH   5  25
BRANCH   6  29
ATOM     29  O   UNL     1       4.969   3.355  18.095  0.00  0.00    +0.000 OA
ATOM     30  H   UNL     1       4.459   2.540  18.218  0.00  0.00    +0.000 HD
ENDBRANCH   6  29
TORSDOF 6
ENDMDL
MODEL 4
REMARK VINA RESULT:      -8.9      0.119      1.023
REMARK  Name = 
REMARK  12 active torsions:
REMARK  status: ('A' for Active; 'I' for Inactive)
REMARK    1  A    between atoms: C_1  and  C_2
REMARK    2  A    between atoms: C_2  and  C_3
REMARK    3  A    between atoms: C_2  and  C_4
REMARK    4  A    between atoms: C_2  and  C_5
REMARK    5  A    between atoms: C_7  and  C_8
REMARK    6  A    between atoms: C_13  and  C_14
REMARK    7  A    between atoms: C_14  and  O_16
REMARK    8  A    between atoms: C_22  and  C_23
REMARK    9  A    between atoms: C_23  and  C_24
REMARK   10  A    between atoms: C_23  and  C_25
REMARK   11  A    between atoms: C_23  and  C_26
REMARK   12  A    between atoms: C_27  and  O_28
REMARK                            x       y       z     vdW  Elec       q    Type
REMARK                         _______ _______ _______ _____ _____    ______ ____
ROOT
ATOM      1  C   UNL     1       4.253   5.590  17.708  0.00  0.00    +0.000 A 
ATOM      2  C   UNL     1       3.511   6.685  18.204  0.00  0.00    +0.000 A 
ATOM      3  C   UNL     1       2.599   6.567  19.266  0.00  0.00    +0.000 A 
ATOM      4  C   UNL     1       2.466   5.308  19.871  0.00  0.00    +0.000 A 
ATOM      5  C   UNL     1       3.170   4.161  19.443  0.00  0.00    +0.000 A 
ATOM      6  C   UNL     1       4.033   4.338  18.336  0.00  0.00    +0.000 A 
ENDROOT
BRANCH   3   7
ATOM      7  C   UNL     1       1.807   7.728  19.758  0.00  0.00    +0.000 C 
ATOM      8  C   UNL     1       1.209   7.739  20.964  0.00  0.00    +0.000 C 
ATOM      9  C   UNL     1       0.504   8.958  21.366  0.00  0.00    +0.000 A 
ATOM     10  C   UNL     1       0.160   9.201  22.697  0.00  0.00    +0.000 A 
ATOM     11  C   UNL     1      -0.530  10.368  23.037  0.00  0.00    +0.000 A 
ATOM     12  C   UNL     1      -0.919  11.281  22.046  0.00  0.00    +0.000 A 
ATOM     13  C   UNL     1      -0.578  11.042  20.710  0.00  0.00    +0.000 A 
ATOM     14  C   UNL     1       0.156   9.899  20.388  0.00  0.00    +0.000 A 
ATOM     15  O   UNL     1       0.513   9.732  19.074  0.00  0.00    +0.000 OA
ATOM     16  C   UNL     1       1.742   8.991  18.920  0.00  0.00    +0.000 C 
BRANCH  12  17
ATOM     17  C   UNL     1      -1.619  12.513  22.470  0.00  0.00    +0.000 C 
ATOM     18  O   UNL     1      -1.136  13.311  23.257  0.00  0.00    +0.000 OA
BRANCH  17  19
ATOM     19  O   UNL     1      -2.858  12.649  21.944  0.00  0.00    +0.000 OA
ATOM     20  H   UNL     1      -3.527  12.043  22.311  0.00  0.00    +0.000 HD
ENDBRANCH  17  19
ENDBRANCH  12  17
ENDBRANCH   3   7
BRANCH   1  22
ATOM     21  C   UNL     1       5.282   4.595  15.542  0.00  0.00    +0.000 C 
ATOM     22  C   UNL     1       5.277   5.771  16.555  0.00  0.00    +0.000 C 
ATOM     23  C   UNL     1       6.723   5.880  17.088  0.00  0.00    +0.000 C 
ATOM     24  C   UNL     1       4.941   7.036  15.728  0.00  0.00    +0.000 C 
ENDBRANCH   1  22
BRANCH   5  25
ATOM     25  C   UNL     1       2.952   2.799  20.155  0.00  0.00    +0.000 C 
ATOM     26  C   UNL     1       2.118   1.794  19.313  0.00  0.00    +0.000 C 
ATOM     27  C   UNL     1       4.303   2.107  20.438  0.00  0.00    +0.000 C 
ATOM     28  C   UNL     1       2.168   2.958  21.479  0.00  0.00    +0.000 C 
ENDBRANCH   5  25
BRANCH   6  29
ATOM     29  O   UNL     1       4.667   3.247  17.807  0.00  0.00    +0.000 OA
ATOM     30  H   UNL     1       4.664   2.564  18.494  0.00  0.00    +0.000 HD
ENDBRANCH   6  29
TORSDOF 6
ENDMDL
MODEL 5
REMARK VINA RESULT:      -8.8      1.476      3.671
REMARK  Name = 
REMARK  12 active torsions:
REMARK  status: ('A' for Active; 'I' for Inactive)
REMARK    1  A    between atoms: C_1  and  C_2
REMARK    2  A    between atoms: C_2  and  C_3
REMARK    3  A    between atoms: C_2  and  C_4
REMARK    4  A    between atoms: C_2  and  C_5
REMARK    5  A    between atoms: C_7  and  C_8
REMARK    6  A    between atoms: C_13  and  C_14
REMARK    7  A    between atoms: C_14  and  O_16
REMARK    8  A    between atoms: C_22  and  C_23
REMARK    9  A    between atoms: C_23  and  C_24
REMARK   10  A    between atoms: C_23  and  C_25
REMARK   11  A    between atoms: C_23  and  C_26
REMARK   12  A    between atoms: C_27  and  O_28
REMARK                            x       y       z     vdW  Elec       q    Type
REMARK                         _______ _______ _______ _____ _____    ______ ____
ROOT
ATOM      1  C   UNL     1       3.376   4.152  19.321  0.00  0.00    +0.000 A 
ATOM      2  C   UNL     1       2.575   5.316  19.328  0.00  0.00    +0.000 A 
ATOM      3  C   UNL     1       3.069   6.580  18.966  0.00  0.00    +0.000 A 
ATOM      4  C   UNL     1       4.404   6.660  18.544  0.00  0.00    +0.000 A 
ATOM      5  C   UNL     1       5.274   5.549  18.501  0.00  0.00    +0.000 A 
ATOM      6  C   UNL     1       4.728   4.315  18.929  0.00  0.00    +0.000 A 
ENDROOT
BRANCH   3   7
ATOM      7  C   UNL     1       2.216   7.801  19.005  0.00  0.00    +0.000 C 
ATOM      8  C   UNL     1       1.592   8.214  20.124  0.00  0.00    +0.000 C 
ATOM      9  C   UNL     1       0.826   9.460  20.058  0.00  0.00    +0.000 A 
ATOM     10  C   UNL     1       0.442  10.147  21.212  0.00  0.00    +0.000 A 
ATOM     11  C   UNL     1      -0.305  11.323  21.108  0.00  0.00    +0.000 A 
ATOM     12  C   UNL     1      -0.712  11.801  19.853  0.00  0.00    +0.000 A 
ATOM     13  C   UNL     1      -0.332  11.116  18.693  0.00  0.00    +0.000 A 
ATOM     14  C   UNL     1       0.459   9.971  18.806  0.00  0.00    +0.000 A 
ATOM     15  O   UNL     1       0.851   9.362  17.641  0.00  0.00    +0.000 OA
ATOM     16  C   UNL     1       2.114   8.675  17.769  0.00  0.00    +0.000 C 
BRANCH  12  17
ATOM     17  C   UNL     1      -1.474  13.067  19.804  0.00  0.00    +0.000 C 
ATOM     18  O   UNL     1      -2.396  13.315  20.564  0.00  0.00    +0.000 OA
BRANCH  17  19
ATOM     19  O   UNL     1      -1.087  13.903  18.814  0.00  0.00    +0.000 OA
ATOM     20  H   UNL     1      -0.718  14.754  19.116  0.00  0.00    +0.000 HD
ENDBRANCH  17  19
ENDBRANCH  12  17
ENDBRANCH   3   7
BRANCH   1  22
ATOM     21  C   UNL     1       1.235   2.776  19.834  0.00  0.00    +0.000 C 
ATOM     22  C   UNL     1       2.781   2.768  19.695  0.00  0.00    +0.000 C 
ATOM     23  C   UNL     1       3.328   2.259  21.048  0.00  0.00    +0.000 C 
ATOM     24  C   UNL     1       3.098   1.727  18.593  0.00  0.00    +0.000 C 
ENDBRANCH   1  22
BRANCH   5  25
ATOM     25  C   UNL     1       6.745   5.724  18.039  0.00  0.00    +0.000 C 
ATOM     26  C   UNL     1       7.767   5.661  19.209  0.00  0.00    +0.000 C 
ATOM     27  C   UNL     1       7.147   4.605  17.055  0.00  0.00    +0.000 C 
ATOM     28  C   UNL     1       6.982   7.102  17.376  0.00  0.00    +0.000 C 
ENDBRANCH   5  25
BRANCH   6  29
ATOM     29  O   UNL     1       5.544   3.220  19.010  0.00  0.00    +0.000 OA
ATOM     30  H   UNL     1       6.347   3.435  18.511  0.00  0.00    +0.000 HD
ENDBRANCH   6  29
TORSDOF 6
ENDMDL
MODEL 6
REMARK VINA RESULT:      -8.8      0.179      3.472
REMARK  Name = 
REMARK  12 active torsions:
REMARK  status: ('A' for Active; 'I' for Inactive)
REMARK    1  A    between atoms: C_1  and  C_2
REMARK    2  A    between atoms: C_2  and  C_3
REMARK    3  A    between atoms: C_2  and  C_4
REMARK    4  A    between atoms: C_2  and  C_5
REMARK    5  A    between atoms: C_7  and  C_8
REMARK    6  A    between atoms: C_13  and  C_14
REMARK    7  A    between atoms: C_14  and  O_16
REMARK    8  A    between atoms: C_22  and  C_23
REMARK    9  A    between atoms: C_23  and  C_24
REMARK   10  A    between atoms: C_23  and  C_25
REMARK   11  A    between atoms: C_23  and  C_26
REMARK   12  A    between atoms: C_27  and  O_28
REMARK                            x       y       z     vdW  Elec       q    Type
REMARK                         _______ _______ _______ _____ _____    ______ ____
ROOT
ATOM      1  C   UNL     1       3.188   4.143  19.452  0.00  0.00    +0.000 A 
ATOM      2  C   UNL     1       2.445   5.262  19.891  0.00  0.00    +0.000 A 
ATOM      3  C   UNL     1       2.598   6.542  19.333  0.00  0.00    +0.000 A 
ATOM      4  C   UNL     1       3.503   6.684  18.271  0.00  0.00    +0.000 A 
ATOM      5  C   UNL     1       4.283   5.621  17.766  0.00  0.00    +0.000 A 
ATOM      6  C   UNL     1       4.118   4.370  18.406  0.00  0.00    +0.000 A 
ENDROOT
BRANCH   3   7
ATOM      7  C   UNL     1       1.824   7.715  19.827  0.00  0.00    +0.000 C 
ATOM      8  C   UNL     1       1.218   7.730  21.029  0.00  0.00    +0.000 C 
ATOM      9  C   UNL     1       0.534   8.960  21.434  0.00  0.00    +0.000 A 
ATOM     10  C   UNL     1       0.185   9.201  22.764  0.00  0.00    +0.000 A 
ATOM     11  C   UNL     1      -0.485  10.379  23.106  0.00  0.00    +0.000 A 
ATOM     12  C   UNL     1      -0.850  11.305  22.118  0.00  0.00    +0.000 A 
ATOM     13  C   UNL     1      -0.504  11.067  20.783  0.00  0.00    +0.000 A 
ATOM     14  C   UNL     1       0.210   9.913  20.459  0.00  0.00    +0.000 A 
ATOM     15  O   UNL     1       0.573   9.747  19.146  0.00  0.00    +0.000 OA
ATOM     16  C   UNL     1       1.789   8.984  18.996  0.00  0.00    +0.000 C 
BRANCH  12  17
ATOM     17  C   UNL     1      -1.530  12.547  22.545  0.00  0.00    +0.000 C 
ATOM     18  O   UNL     1      -2.622  12.884  22.119  0.00  0.00    +0.000 OA
BRANCH  17  19
ATOM     19  O   UNL     1      -0.811  13.295  23.414  0.00  0.00    +0.000 OA
ATOM     20  H   UNL     1      -0.358  12.789  24.112  0.00  0.00    +0.000 HD
ENDBRANCH  17  19
ENDBRANCH  12  17
ENDBRANCH   3   7
BRANCH   1  22
ATOM     21  C   UNL     1       2.066   2.757  21.338  0.00  0.00    +0.000 C 
ATOM     22  C   UNL     1       2.963   2.738  20.071  0.00  0.00    +0.000 C 
ATOM     23  C   UNL     1       4.295   2.084  20.502  0.00  0.00    +0.000 C 
ATOM     24  C   UNL     1       2.243   1.811  19.062  0.00  0.00    +0.000 C 
ENDBRANCH   1  22
BRANCH   5  25
ATOM     25  C   UNL     1       5.276   5.865  16.598  0.00  0.00    +0.000 C 
ATOM     26  C   UNL     1       4.913   7.104  15.733  0.00  0.00    +0.000 C 
ATOM     27  C   UNL     1       6.701   6.116  17.135  0.00  0.00    +0.000 C 
ATOM     28  C   UNL     1       5.302   4.679  15.605  0.00  0.00    +0.000 C 
ENDBRANCH   5  25
BRANCH   6  29
ATOM     29  O   UNL     1       4.916   3.323  18.035  0.00  0.00    +0.000 OA
ATOM     30  H   UNL     1       5.737   3.405  18.545  0.00  0.00    +0.000 HD
ENDBRANCH   6  29
TORSDOF 6
ENDMDL
MODEL 7
REMARK VINA RESULT:      -8.7      0.249      1.175
REMARK  Name = 
REMARK  12 active torsions:
REMARK  status: ('A' for Active; 'I' for Inactive)
REMARK    1  A    between atoms: C_1  and  C_2
REMARK    2  A    between atoms: C_2  and  C_3
REMARK    3  A    between atoms: C_2  and  C_4
REMARK    4  A    between atoms: C_2  and  C_5
REMARK    5  A    between atoms: C_7  and  C_8
REMARK    6  A    between atoms: C_13  and  C_14
REMARK    7  A    between atoms: C_14  and  O_16
REMARK    8  A    between atoms: C_22  and  C_23
REMARK    9  A    between atoms: C_23  and  C_24
REMARK   10  A    between atoms: C_23  and  C_25
REMARK   11  A    between atoms: C_23  and  C_26
REMARK   12  A    between atoms: C_27  and  O_28
REMARK                            x       y       z     vdW  Elec       q    Type
REMARK                         _______ _______ _______ _____ _____    ______ ____
ROOT
ATOM      1  C   UNL     1       4.352   5.464  17.496  0.00  0.00    +0.000 A 
ATOM      2  C   UNL     1       3.622   6.574  17.975  0.00  0.00    +0.000 A 
ATOM      3  C   UNL     1       2.731   6.487  19.058  0.00  0.00    +0.000 A 
ATOM      4  C   UNL     1       2.607   5.246  19.700  0.00  0.00    +0.000 A 
ATOM      5  C   UNL     1       3.302   4.087  19.292  0.00  0.00    +0.000 A 
ATOM      6  C   UNL     1       4.143   4.231  18.163  0.00  0.00    +0.000 A 
ENDROOT
BRANCH   3   7
ATOM      7  C   UNL     1       1.949   7.663  19.533  0.00  0.00    +0.000 C 
ATOM      8  C   UNL     1       1.376   7.710  20.749  0.00  0.00    +0.000 C 
ATOM      9  C   UNL     1       0.680   8.941  21.131  0.00  0.00    +0.000 A 
ATOM     10  C   UNL     1       0.363   9.222  22.461  0.00  0.00    +0.000 A 
ATOM     11  C   UNL     1      -0.319  10.399  22.782  0.00  0.00    +0.000 A 
ATOM     12  C   UNL     1      -0.726  11.285  21.772  0.00  0.00    +0.000 A 
ATOM     13  C   UNL     1      -0.413  11.007  20.437  0.00  0.00    +0.000 A 
ATOM     14  C   UNL     1       0.314   9.855  20.133  0.00  0.00    +0.000 A 
ATOM     15  O   UNL     1       0.644   9.649  18.818  0.00  0.00    +0.000 OA
ATOM     16  C   UNL     1       1.869   8.902  18.660  0.00  0.00    +0.000 C 
BRANCH  12  17
ATOM     17  C   UNL     1      -1.417  12.529  22.175  0.00  0.00    +0.000 C 
ATOM     18  O   UNL     1      -2.118  13.174  21.413  0.00  0.00    +0.000 OA
BRANCH  17  19
ATOM     19  O   UNL     1      -1.163  12.909  23.449  0.00  0.00    +0.000 OA
ATOM     20  H   UNL     1      -0.289  13.317  23.588  0.00  0.00    +0.000 HD
ENDBRANCH  17  19
ENDBRANCH  12  17
ENDBRANCH   3   7
BRANCH   1  22
ATOM     21  C   UNL     1       5.113   6.880  15.458  0.00  0.00    +0.000 C 
ATOM     22  C   UNL     1       5.353   5.611  16.319  0.00  0.00    +0.000 C 
ATOM     23  C   UNL     1       5.268   4.414  15.345  0.00  0.00    +0.000 C 
ATOM     24  C   UNL     1       6.801   5.733  16.852  0.00  0.00    +0.000 C 
ENDBRANCH   1  22
BRANCH   5  25
ATOM     25  C   UNL     1       3.097   2.746  20.046  0.00  0.00    +0.000 C 
ATOM     26  C   UNL     1       4.430   2.023  20.387  0.00  0.00    +0.000 C 
ATOM     27  C   UNL     1       2.377   2.979  21.391  0.00  0.00    +0.000 C 
ATOM     28  C   UNL     1       2.294   1.727  19.203  0.00  0.00    +0.000 C 
ENDBRANCH   5  25
BRANCH   6  29
ATOM     29  O   UNL     1       4.765   3.125  17.653  0.00  0.00    +0.000 OA
ATOM     30  H   UNL     1       5.689   3.168  17.941  0.00  0.00    +0.000 HD
ENDBRANCH   6  29
TORSDOF 6
ENDMDL
MODEL 8
REMARK VINA RESULT:      -8.7      0.604      1.091
REMARK  Name = 
REMARK  12 active torsions:
REMARK  status: ('A' for Active; 'I' for Inactive)
REMARK    1  A    between atoms: C_1  and  C_2
REMARK    2  A    between atoms: C_2  and  C_3
REMARK    3  A    between atoms: C_2  and  C_4
REMARK    4  A    between atoms: C_2  and  C_5
REMARK    5  A    between atoms: C_7  and  C_8
REMARK    6  A    between atoms: C_13  and  C_14
REMARK    7  A    between atoms: C_14  and  O_16
REMARK    8  A    between atoms: C_22  and  C_23
REMARK    9  A    between atoms: C_23  and  C_24
REMARK   10  A    between atoms: C_23  and  C_25
REMARK   11  A    between atoms: C_23  and  C_26
REMARK   12  A    between atoms: C_27  and  O_28
REMARK                            x       y       z     vdW  Elec       q    Type
REMARK                         _______ _______ _______ _____ _____    ______ ____
ROOT
ATOM      1  C   UNL     1       4.619   5.710  17.988  0.00  0.00    +0.000 A 
ATOM      2  C   UNL     1       3.811   6.779  18.435  0.00  0.00    +0.000 A 
ATOM      3  C   UNL     1       2.763   6.605  19.354  0.00  0.00    +0.000 A 
ATOM      4  C   UNL     1       2.553   5.316  19.865  0.00  0.00    +0.000 A 
ATOM      5  C   UNL     1       3.315   4.192  19.478  0.00  0.00    +0.000 A 
ATOM      6  C   UNL     1       4.321   4.427  18.510  0.00  0.00    +0.000 A 
ENDROOT
BRANCH   3   7
ATOM      7  C   UNL     1       1.905   7.740  19.795  0.00  0.00    +0.000 C 
ATOM      8  C   UNL     1       1.314   7.776  21.004  0.00  0.00    +0.000 C 
ATOM      9  C   UNL     1       0.539   8.969  21.351  0.00  0.00    +0.000 A 
ATOM     10  C   UNL     1       0.188   9.258  22.671  0.00  0.00    +0.000 A 
ATOM     11  C   UNL     1      -0.569  10.397  22.959  0.00  0.00    +0.000 A 
ATOM     12  C   UNL     1      -1.017  11.235  21.926  0.00  0.00    +0.000 A 
ATOM     13  C   UNL     1      -0.670  10.949  20.601  0.00  0.00    +0.000 A 
ATOM     14  C   UNL     1       0.130   9.838  20.330  0.00  0.00    +0.000 A 
ATOM     15  O   UNL     1       0.489   9.627  19.023  0.00  0.00    +0.000 OA
ATOM     16  C   UNL     1       1.759   8.954  18.895  0.00  0.00    +0.000 C 
BRANCH  12  17
ATOM     17  C   UNL     1      -1.787  12.442  22.295  0.00  0.00    +0.000 C 
ATOM     18  O   UNL     1      -1.661  13.510  21.718  0.00  0.00    +0.000 OA
BRANCH  17  19
ATOM     19  O   UNL     1      -2.608  12.266  23.356  0.00  0.00    +0.000 OA
ATOM     20  H   UNL     1      -2.575  11.379  23.757  0.00  0.00    +0.000 HD
ENDBRANCH  17  19
ENDBRANCH  12  17
ENDBRANCH   3   7
BRANCH   1  22
ATOM     21  C   UNL     1       6.957   4.939  17.161  0.00  0.00    +0.000 C 
ATOM     22  C   UNL     1       5.791   5.951  16.998  0.00  0.00    +0.000 C 
ATOM     23  C   UNL     1       6.414   7.352  17.182  0.00  0.00    +0.000 C 
ATOM     24  C   UNL     1       5.304   5.798  15.536  0.00  0.00    +0.000 C 
ENDBRANCH   1  22
BRANCH   5  25
ATOM     25  C   UNL     1       3.008   2.794  20.078  0.00  0.00    +0.000 C 
ATOM     26  C   UNL     1       4.286   1.996  20.458  0.00  0.00    +0.000 C 
ATOM     27  C   UNL     1       2.180   2.925  21.374  0.00  0.00    +0.000 C 
ATOM     28  C   UNL     1       2.255   1.888  19.075  0.00  0.00    +0.000 C 
ENDBRANCH   5  25
BRANCH   6  29
ATOM     29  O   UNL     1       5.027   3.365  18.015  0.00  0.00    +0.000 OA
ATOM     30  H   UNL     1       4.847   2.614  18.602  0.00  0.00    +0.000 HD
ENDBRANCH   6  29
TORSDOF 6
ENDMDL
MODEL 9
REMARK VINA RESULT:      -8.7      1.194      1.519
REMARK  Name = 
REMARK  12 active torsions:
REMARK  status: ('A' for Active; 'I' for Inactive)
REMARK    1  A    between atoms: C_1  and  C_2
REMARK    2  A    between atoms: C_2  and  C_3
REMARK    3  A    between atoms: C_2  and  C_4
REMARK    4  A    between atoms: C_2  and  C_5
REMARK    5  A    between atoms: C_7  and  C_8
REMARK    6  A    between atoms: C_13  and  C_14
REMARK    7  A    between atoms: C_14  and  O_16
REMARK    8  A    between atoms: C_22  and  C_23
REMARK    9  A    between atoms: C_23  and  C_24
REMARK   10  A    between atoms: C_23  and  C_25
REMARK   11  A    between atoms: C_23  and  C_26
REMARK   12  A    between atoms: C_27  and  O_28
REMARK                            x       y       z     vdW  Elec       q    Type
REMARK                         _______ _______ _______ _____ _____    ______ ____
ROOT
ATOM      1  C   UNL     1       4.826   5.620  17.789  0.00  0.00    +0.000 A 
ATOM      2  C   UNL     1       4.066   6.786  18.031  0.00  0.00    +0.000 A 
ATOM      3  C   UNL     1       2.841   6.765  18.719  0.00  0.00    +0.000 A 
ATOM      4  C   UNL     1       2.394   5.531  19.212  0.00  0.00    +0.000 A 
ATOM      5  C   UNL     1       3.091   4.318  19.022  0.00  0.00    +0.000 A 
ATOM      6  C   UNL     1       4.291   4.401  18.276  0.00  0.00    +0.000 A 
ENDROOT
BRANCH   3   7
ATOM      7  C   UNL     1       2.041   8.002  18.941  0.00  0.00    +0.000 C 
ATOM      8  C   UNL     1       1.541   8.336  20.145  0.00  0.00    +0.000 C 
ATOM      9  C   UNL     1       0.818   9.604  20.257  0.00  0.00    +0.000 A 
ATOM     10  C   UNL     1       0.571  10.200  21.495  0.00  0.00    +0.000 A 
ATOM     11  C   UNL     1      -0.140  11.402  21.561  0.00  0.00    +0.000 A 
ATOM     12  C   UNL     1      -0.645  11.997  20.395  0.00  0.00    +0.000 A 
ATOM     13  C   UNL     1      -0.401  11.403  19.152  0.00  0.00    +0.000 A 
ATOM     14  C   UNL     1       0.354  10.231  19.093  0.00  0.00    +0.000 A 
ATOM     15  O   UNL     1       0.612   9.712  17.849  0.00  0.00    +0.000 OA
ATOM     16  C   UNL     1       1.855   8.982  17.797  0.00  0.00    +0.000 C 
BRANCH  12  17
ATOM     17  C   UNL     1      -1.362  13.284  20.525  0.00  0.00    +0.000 C 
ATOM     18  O   UNL     1      -1.068  14.124  21.361  0.00  0.00    +0.000 OA
BRANCH  17  19
ATOM     19  O   UNL     1      -2.398  13.425  19.667  0.00  0.00    +0.000 OA
ATOM     20  H   UNL     1      -3.055  12.706  19.698  0.00  0.00    +0.000 HD
ENDBRANCH  17  19
ENDBRANCH  12  17
ENDBRANCH   3   7
BRANCH   1  22
ATOM     21  C   UNL     1       7.244   4.692  17.608  0.00  0.00    +0.000 C 
ATOM     22  C   UNL     1       6.192   5.691  17.055  0.00  0.00    +0.000 C 
ATOM     23  C   UNL     1       6.832   7.092  17.176  0.00  0.00    +0.000 C 
ATOM     24  C   UNL     1       6.021   5.336  15.558  0.00  0.00    +0.000 C 
ENDBRANCH   1  22
BRANCH   5  25
ATOM     25  C   UNL     1       2.518   2.990  19.585  0.00  0.00    +0.000 C 
ATOM     26  C   UNL     1       1.201   3.182  20.387  0.00  0.00    +0.000 C 
ATOM     27  C   UNL     1       2.188   2.008  18.441  0.00  0.00    +0.000 C 
ATOM     28  C   UNL     1       3.495   2.315  20.578  0.00  0.00    +0.000 C 
ENDBRANCH   5  25
BRANCH   6  29
ATOM     29  O   UNL     1       4.961   3.250  17.967  0.00  0.00    +0.000 OA
ATOM     30  H   UNL     1       4.627   2.956  17.106  0.00  0.00    +0.000 HD
ENDBRANCH   6  29
TORSDOF 6
ENDMDL
