MODEL 1
REMARK VINA RESULT:      -9.2      0.000      0.000
REMARK  Name = 
REMARK  5 active torsions:
REMARK  status: ('A' for Active; 'I' for Inactive)
REMARK    1  A    between atoms: C_1  and  N_2
REMARK    2  A    between atoms: C_6  and  C_7
REMARK    3  A    between atoms: C_6  and  C_8
REMARK    4  A    between atoms: C_10  and  C_11
REMARK    5  A    between atoms: C_15  and  C_16
REMARK                            x       y       z     vdW  Elec       q    Type
REMARK                         _______ _______ _______ _____ _____    ______ ____
ROOT
ATOM      1  C   UNL     1       2.030   4.788  18.177  0.00  0.00    +0.000 C 
ATOM      2  C   UNL     1       3.419   5.201  17.774  0.00  0.00    +0.000 C 
ATOM      3  C   UNL     1       2.755   5.891  18.946  0.00  0.00    +0.000 C 
ENDROOT
BRANCH   1   9
ATOM      4  C   UNL     1       4.993   1.485  20.776  0.00  0.00    +0.000 C 
ATOM      5  N   UNL     1       3.798   2.087  20.194  0.00  0.00    +0.000 N 
ATOM      6  C   UNL     1       2.860   2.703  20.980  0.00  0.00    +0.000 C 
ATOM      7  O   UNL     1       2.825   2.574  22.211  0.00  0.00    +0.000 OA
ATOM      8  C   UNL     1       1.868   3.618  20.350  0.00  0.00    +0.000 C 
ATOM      9  C   UNL     1       1.714   3.454  18.848  0.00  0.00    +0.000 C 
ATOM     10  C   UNL     1       0.266   3.018  18.569  0.00  0.00    +0.000 C 
ATOM     11  N   UNL     1       2.544   2.410  18.256  0.00  0.00    +0.000 NA
ATOM     12  C   UNL     1       3.508   1.853  18.879  0.00  0.00    +0.000 C 
ATOM     13  N   UNL     1       4.273   0.966  18.190  0.00  0.00    +0.000 N 
ATOM     14  H   UNL     1       3.848   0.731  17.303  0.00  0.00    +0.000 HD
ATOM     15  H   UNL     1       4.587   0.152  18.697  0.00  0.00    +0.000 HD
ENDBRANCH   1   9
BRANCH   3  16
ATOM     16  C   UNL     1       2.311   7.332  18.858  0.00  0.00    +0.000 A 
ATOM     17  C   UNL     1       2.583   8.123  17.735  0.00  0.00    +0.000 A 
ATOM     18  C   UNL     1       2.125   9.438  17.654  0.00  0.00    +0.000 A 
ATOM     19  C   UNL     1       1.392   9.993  18.704  0.00  0.00    +0.000 A 
ATOM     20  C   UNL     1       1.080   9.246  19.851  0.00  0.00    +0.000 A 
ATOM     21  C   UNL     1       1.533   7.910  19.881  0.00  0.00    +0.000 A 
BRANCH  20  22
ATOM     22  C   UNL     1       0.348   9.844  20.998  0.00  0.00    +0.000 A 
ATOM     23  C   UNL     1       0.315   9.235  22.267  0.00  0.00    +0.000 A 
ATOM     24  C   UNL     1      -0.444   9.769  23.317  0.00  0.00    +0.000 A 
ATOM     25  C   UNL     1      -1.170  10.940  23.130  0.00  0.00    +0.000 A 
ATOM     26  C   UNL     1      -1.132  11.581  21.898  0.00  0.00    +0.000 A 
ATOM     27  C   UNL     1      -0.388  11.036  20.848  0.00  0.00    +0.000 A 
ENDBRANCH  20  22
ENDBRANCH   3  16
TORSDOF 3
ENDMDL
MODEL 2
REMARK VINA RESULT:      -8.7      1.279      1.820
REMARK  Name = 
REMARK  5 active torsions:
REMARK  status: ('A' for Active; 'I' for Inactive)
REMARK    1  A    between atoms: C_1  and  N_2
REMARK    2  A    between atoms: C_6  and  C_7
REMARK    3  A    between atoms: C_6  and  C_8
REMARK    4  A    between atoms: C_10  and  C_11
REMARK    5  A    between atoms: C_15  and  C_16
REMARK                            x       y       z     vdW  Elec       q    Type
REMARK                         _______ _______ _______ _____ _____    ______ ____
ROOT
ATOM      1  C   UNL     1       3.554   5.411  17.799  0.00  0.00    +0.000 C 
ATOM      2  C   UNL     1       4.639   6.048  18.623  0.00  0.00    +0.000 C 
ATOM      3  C   UNL     1       3.194   6.242  19.029  0.00  0.00    +0.000 C 
ENDROOT
BRANCH   1   9
ATOM      4  C   UNL     1       1.818   2.189  21.411  0.00  0.00    +0.000 C 
ATOM      5  N   UNL     1       2.271   2.673  20.112  0.00  0.00    +0.000 N 
ATOM      6  C   UNL     1       1.394   2.841  19.072  0.00  0.00    +0.000 C 
ATOM      7  O   UNL     1       0.250   2.368  19.076  0.00  0.00    +0.000 OA
ATOM      8  C   UNL     1       1.798   3.673  17.905  0.00  0.00    +0.000 C 
ATOM      9  C   UNL     1       3.292   3.907  17.776  0.00  0.00    +0.000 C 
ATOM     10  C   UNL     1       3.753   3.281  16.448  0.00  0.00    +0.000 C 
ATOM     11  N   UNL     1       4.106   3.262  18.800  0.00  0.00    +0.000 NA
ATOM     12  C   UNL     1       3.613   2.762  19.866  0.00  0.00    +0.000 C 
ATOM     13  N   UNL     1       4.480   2.278  20.793  0.00  0.00    +0.000 N 
ATOM     14  H   UNL     1       5.418   2.218  20.419  0.00  0.00    +0.000 HD
ATOM     15  H   UNL     1       4.201   1.436  21.276  0.00  0.00    +0.000 HD
ENDBRANCH   1   9
BRANCH   3  16
ATOM     16  C   UNL     1       2.518   7.586  18.897  0.00  0.00    +0.000 A 
ATOM     17  C   UNL     1       2.591   8.340  17.719  0.00  0.00    +0.000 A 
ATOM     18  C   UNL     1       1.922   9.559  17.602  0.00  0.00    +0.000 A 
ATOM     19  C   UNL     1       1.172  10.054  18.670  0.00  0.00    +0.000 A 
ATOM     20  C   UNL     1       1.052   9.338  19.872  0.00  0.00    +0.000 A 
ATOM     21  C   UNL     1       1.717   8.095  19.940  0.00  0.00    +0.000 A 
BRANCH  20  22
ATOM     22  C   UNL     1       0.302   9.882  21.034  0.00  0.00    +0.000 A 
ATOM     23  C   UNL     1       0.261   9.222  22.277  0.00  0.00    +0.000 A 
ATOM     24  C   UNL     1      -0.514   9.706  23.339  0.00  0.00    +0.000 A 
ATOM     25  C   UNL     1      -1.251  10.875  23.191  0.00  0.00    +0.000 A 
ATOM     26  C   UNL     1      -1.208  11.566  21.985  0.00  0.00    +0.000 A 
ATOM     27  C   UNL     1      -0.445  11.072  20.923  0.00  0.00    +0.000 A 
ENDBRANCH  20  22
ENDBRANCH   3  16
TORSDOF 3
ENDMDL
MODEL 3
REMARK VINA RESULT:      -8.4      2.478      3.200
REMARK  Name = 
REMARK  5 active torsions:
REMARK  status: ('A' for Active; 'I' for Inactive)
REMARK    1  A    between atoms: C_1  and  N_2
REMARK    2  A    between atoms: C_6  and  C_7
REMARK    3  A    between atoms: C_6  and  C_8
REMARK    4  A    between atoms: C_10  and  C_11
REMARK    5  A    between atoms: C_15  and  C_16
REMARK                            x       y       z     vdW  Elec       q    Type
REMARK                         _______ _______ _______ _____ _____    ______ ____
ROOT
ATOM      1  C   UNL     1       3.938   5.319  19.611  0.00  0.00    +0.000 C 
ATOM      2  C   UNL     1       2.685   5.089  20.411  0.00  0.00    +0.000 C 
ATOM      3  C   UNL     1       2.584   5.753  19.054  0.00  0.00    +0.000 C 
ENDROOT
BRANCH   1   9
ATOM      4  C   UNL     1       7.113   5.295  15.566  0.00  0.00    +0.000 C 
ATOM      5  N   UNL     1       6.375   4.817  16.730  0.00  0.00    +0.000 N 
ATOM      6  C   UNL     1       7.011   4.560  17.916  0.00  0.00    +0.000 C 
ATOM      7  O   UNL     1       8.242   4.467  18.012  0.00  0.00    +0.000 OA
ATOM      8  C   UNL     1       6.206   4.442  19.164  0.00  0.00    +0.000 C 
ATOM      9  C   UNL     1       4.725   4.192  18.945  0.00  0.00    +0.000 C 
ATOM     10  C   UNL     1       4.382   2.828  19.568  0.00  0.00    +0.000 C 
ATOM     11  N   UNL     1       4.320   4.082  17.548  0.00  0.00    +0.000 NA
ATOM     12  C   UNL     1       5.075   4.423  16.578  0.00  0.00    +0.000 C 
ATOM     13  N   UNL     1       4.551   4.371  15.325  0.00  0.00    +0.000 N 
ATOM     14  H   UNL     1       3.665   3.884  15.321  0.00  0.00    +0.000 HD
ATOM     15  H   UNL     1       5.169   4.058  14.590  0.00  0.00    +0.000 HD
ENDBRANCH   1   9
BRANCH   3  16
ATOM     16  C   UNL     1       2.221   7.213  18.921  0.00  0.00    +0.000 A 
ATOM     17  C   UNL     1       2.549   7.956  17.781  0.00  0.00    +0.000 A 
ATOM     18  C   UNL     1       2.166   9.292  17.657  0.00  0.00    +0.000 A 
ATOM     19  C   UNL     1       1.453   9.916  18.683  0.00  0.00    +0.000 A 
ATOM     20  C   UNL     1       1.087   9.219  19.846  0.00  0.00    +0.000 A 
ATOM     21  C   UNL     1       1.465   7.861  19.918  0.00  0.00    +0.000 A 
BRANCH  20  22
ATOM     22  C   UNL     1       0.377   9.889  20.967  0.00  0.00    +0.000 A 
ATOM     23  C   UNL     1       0.144   9.247  22.198  0.00  0.00    +0.000 A 
ATOM     24  C   UNL     1      -0.596   9.861  23.217  0.00  0.00    +0.000 A 
ATOM     25  C   UNL     1      -1.101  11.144  23.038  0.00  0.00    +0.000 A 
ATOM     26  C   UNL     1      -0.861  11.816  21.845  0.00  0.00    +0.000 A 
ATOM     27  C   UNL     1      -0.137  11.193  20.825  0.00  0.00    +0.000 A 
ENDBRANCH  20  22
ENDBRANCH   3  16
TORSDOF 3
ENDMDL
MODEL 4
REMARK VINA RESULT:      -8.3      4.899      8.461
REMARK  Name = 
REMARK  5 active torsions:
REMARK  status: ('A' for Active; 'I' for Inactive)
REMARK    1  A    between atoms: C_1  and  N_2
REMARK    2  A    between atoms: C_6  and  C_7
REMARK    3  A    between atoms: C_6  and  C_8
REMARK    4  A    between atoms: C_10  and  C_11
REMARK    5  A    between atoms: C_15  and  C_16
REMARK                            x       y       z     vdW  Elec       q    Type
REMARK                         _______ _______ _______ _____ _____    ______ ____
ROOT
ATOM      1  C   UNL     1      -0.528  10.091  19.266  0.00  0.00    +0.000 C 
ATOM      2  C   UNL     1      -0.077   9.722  20.653  0.00  0.00    +0.000 C 
ATOM      3  C   UNL     1       0.956   9.885  19.559  0.00  0.00    +0.000 C 
ENDROOT
BRANCH   1   9
ATOM      4  C   UNL     1      -5.256  11.720  18.066  0.00  0.00    +0.000 C 
ATOM      5  N   UNL     1      -3.830  11.761  18.374  0.00  0.00    +0.000 N 
ATOM      6  C   UNL     1      -3.377  12.255  19.569  0.00  0.00    +0.000 C 
ATOM      7  O   UNL     1      -4.091  12.913  20.337  0.00  0.00    +0.000 OA
ATOM      8  C   UNL     1      -1.987  11.945  20.006  0.00  0.00    +0.000 C 
ATOM      9  C   UNL     1      -1.062  11.474  18.899  0.00  0.00    +0.000 C 
ATOM     10  C   UNL     1       0.079  12.497  18.773  0.00  0.00    +0.000 C 
ATOM     11  N   UNL     1      -1.668  11.418  17.573  0.00  0.00    +0.000 NA
ATOM     12  C   UNL     1      -2.927  11.500  17.382  0.00  0.00    +0.000 C 
ATOM     13  N   UNL     1      -3.382  11.334  16.112  0.00  0.00    +0.000 N 
ATOM     14  H   UNL     1      -2.620  11.346  15.447  0.00  0.00    +0.000 HD
ATOM     15  H   UNL     1      -4.153  11.921  15.828  0.00  0.00    +0.000 HD
ENDBRANCH   1   9
BRANCH   3  16
ATOM     16  C   UNL     1       1.708   8.696  19.008  0.00  0.00    +0.000 A 
ATOM     17  C   UNL     1       2.601   8.817  17.937  0.00  0.00    +0.000 A 
ATOM     18  C   UNL     1       3.320   7.715  17.471  0.00  0.00    +0.000 A 
ATOM     19  C   UNL     1       3.149   6.464  18.065  0.00  0.00    +0.000 A 
ATOM     20  C   UNL     1       2.276   6.283  19.149  0.00  0.00    +0.000 A 
ATOM     21  C   UNL     1       1.592   7.428  19.611  0.00  0.00    +0.000 A 
BRANCH  20  22
ATOM     22  C   UNL     1       2.045   4.944  19.752  0.00  0.00    +0.000 A 
ATOM     23  C   UNL     1       1.449   3.890  19.034  0.00  0.00    +0.000 A 
ATOM     24  C   UNL     1       1.166   2.659  19.639  0.00  0.00    +0.000 A 
ATOM     25  C   UNL     1       1.494   2.443  20.973  0.00  0.00    +0.000 A 
ATOM     26  C   UNL     1       2.111   3.454  21.700  0.00  0.00    +0.000 A 
ATOM     27  C   UNL     1       2.377   4.687  21.097  0.00  0.00    +0.000 A 
ENDBRANCH  20  22
ENDBRANCH   3  16
TORSDOF 3
ENDMDL
MODEL 5
REMARK VINA RESULT:      -8.3      4.562      8.541
REMARK  Name = 
REMARK  5 active torsions:
REMARK  status: ('A' for Active; 'I' for Inactive)
REMARK    1  A    between atoms: C_1  and  N_2
REMARK    2  A    between atoms: C_6  and  C_7
REMARK    3  A    between atoms: C_6  and  C_8
REMARK    4  A    between atoms: C_10  and  C_11
REMARK    5  A    between atoms: C_15  and  C_16
REMARK                            x       y       z     vdW  Elec       q    Type
REMARK                         _______ _______ _______ _____ _____    ______ ____
ROOT
ATOM      1  C   UNL     1      -0.044   9.363  20.148  0.00  0.00    +0.000 C 
ATOM      2  C   UNL     1       0.285   9.125  21.596  0.00  0.00    +0.000 C 
ATOM      3  C   UNL     1       1.338   8.847  20.545  0.00  0.00    +0.000 C 
ENDROOT
BRANCH   1   9
ATOM      4  C   UNL     1      -4.110  11.727  18.069  0.00  0.00    +0.000 C 
ATOM      5  N   UNL     1      -2.759  11.521  18.581  0.00  0.00    +0.000 N 
ATOM      6  C   UNL     1      -2.356  12.083  19.764  0.00  0.00    +0.000 C 
ATOM      7  O   UNL     1      -2.993  12.979  20.333  0.00  0.00    +0.000 OA
ATOM      8  C   UNL     1      -1.133  11.564  20.437  0.00  0.00    +0.000 C 
ATOM      9  C   UNL     1      -0.208  10.756  19.545  0.00  0.00    +0.000 C 
ATOM     10  C   UNL     1       1.138  11.495  19.471  0.00  0.00    +0.000 C 
ATOM     11  N   UNL     1      -0.647  10.630  18.159  0.00  0.00    +0.000 NA
ATOM     12  C   UNL     1      -1.824  10.938  17.773  0.00  0.00    +0.000 C 
ATOM     13  N   UNL     1      -2.147  10.683  16.478  0.00  0.00    +0.000 N 
ATOM     14  H   UNL     1      -1.327  10.441  15.938  0.00  0.00    +0.000 HD
ATOM     15  H   UNL     1      -2.728  11.367  16.014  0.00  0.00    +0.000 HD
ENDBRANCH   1   9
BRANCH   3  16
ATOM     16  C   UNL     1       1.771   7.436  20.223  0.00  0.00    +0.000 A 
ATOM     17  C   UNL     1       1.381   6.345  21.009  0.00  0.00    +0.000 A 
ATOM     18  C   UNL     1       1.755   5.044  20.669  0.00  0.00    +0.000 A 
ATOM     19  C   UNL     1       2.538   4.811  19.538  0.00  0.00    +0.000 A 
ATOM     20  C   UNL     1       2.951   5.864  18.705  0.00  0.00    +0.000 A 
ATOM     21  C   UNL     1       2.525   7.161  19.065  0.00  0.00    +0.000 A 
BRANCH  20  22
ATOM     22  C   UNL     1       3.831   5.632  17.530  0.00  0.00    +0.000 A 
ATOM     23  C   UNL     1       4.141   4.339  17.068  0.00  0.00    +0.000 A 
ATOM     24  C   UNL     1       5.034   4.133  16.009  0.00  0.00    +0.000 A 
ATOM     25  C   UNL     1       5.622   5.219  15.370  0.00  0.00    +0.000 A 
ATOM     26  C   UNL     1       5.313   6.509  15.784  0.00  0.00    +0.000 A 
ATOM     27  C   UNL     1       4.434   6.710  16.852  0.00  0.00    +0.000 A 
ENDBRANCH  20  22
ENDBRANCH   3  16
TORSDOF 3
ENDMDL
MODEL 6
REMARK VINA RESULT:      -8.2      4.600      8.677
REMARK  Name = 
REMARK  5 active torsions:
REMARK  status: ('A' for Active; 'I' for Inactive)
REMARK    1  A    between atoms: C_1  and  N_2
REMARK    2  A    between atoms: C_6  and  C_7
REMARK    3  A    between atoms: C_6  and  C_8
REMARK    4  A    between atoms: C_10  and  C_11
REMARK    5  A    between atoms: C_15  and  C_16
REMARK                            x       y       z     vdW  Elec       q    Type
REMARK                         _______ _______ _______ _____ _____    ______ ____
ROOT
ATOM      1  C   UNL     1       0.284   9.262  20.092  0.00  0.00    +0.000 C 
ATOM      2  C   UNL     1       0.224   8.764  21.510  0.00  0.00    +0.000 C 
ATOM      3  C   UNL     1       1.474   8.517  20.693  0.00  0.00    +0.000 C 
ENDROOT
BRANCH   1   9
ATOM      4  C   UNL     1      -2.490  13.353  21.509  0.00  0.00    +0.000 C 
ATOM      5  N   UNL     1      -1.432  12.565  20.885  0.00  0.00    +0.000 N 
ATOM      6  C   UNL     1      -0.151  12.588  21.371  0.00  0.00    +0.000 C 
ATOM      7  O   UNL     1       0.246  13.439  22.177  0.00  0.00    +0.000 OA
ATOM      8  C   UNL     1       0.801  11.515  20.968  0.00  0.00    +0.000 C 
ATOM      9  C   UNL     1       0.398  10.740  19.727  0.00  0.00    +0.000 C 
ATOM     10  C   UNL     1       1.480  10.969  18.658  0.00  0.00    +0.000 C 
ATOM     11  N   UNL     1      -0.847  11.178  19.105  0.00  0.00    +0.000 NA
ATOM     12  C   UNL     1      -1.672  11.963  19.682  0.00  0.00    +0.000 C 
ATOM     13  N   UNL     1      -2.844  12.220  19.045  0.00  0.00    +0.000 N 
ATOM     14  H   UNL     1      -2.822  11.884  18.092  0.00  0.00    +0.000 HD
ATOM     15  H   UNL     1      -3.199  13.163  19.116  0.00  0.00    +0.000 HD
ENDBRANCH   1   9
BRANCH   3  16
ATOM     16  C   UNL     1       1.847   7.129  20.231  0.00  0.00    +0.000 A 
ATOM     17  C   UNL     1       1.351   5.980  20.861  0.00  0.00    +0.000 A 
ATOM     18  C   UNL     1       1.671   4.706  20.390  0.00  0.00    +0.000 A 
ATOM     19  C   UNL     1       2.506   4.556  19.282  0.00  0.00    +0.000 A 
ATOM     20  C   UNL     1       3.026   5.670  18.603  0.00  0.00    +0.000 A 
ATOM     21  C   UNL     1       2.653   6.941  19.090  0.00  0.00    +0.000 A 
BRANCH  20  22
ATOM     22  C   UNL     1       3.960   5.520  17.457  0.00  0.00    +0.000 A 
ATOM     23  C   UNL     1       4.502   6.630  16.780  0.00  0.00    +0.000 A 
ATOM     24  C   UNL     1       5.318   6.474  15.653  0.00  0.00    +0.000 A 
ATOM     25  C   UNL     1       5.632   5.202  15.187  0.00  0.00    +0.000 A 
ATOM     26  C   UNL     1       5.137   4.087  15.851  0.00  0.00    +0.000 A 
ATOM     27  C   UNL     1       4.309   4.246  16.967  0.00  0.00    +0.000 A 
ENDBRANCH  20  22
ENDBRANCH   3  16
TORSDOF 3
ENDMDL
MODEL 7
REMARK VINA RESULT:      -8.2      2.979      4.081
REMARK  Name = 
REMARK  5 active torsions:
REMARK  status: ('A' for Active; 'I' for Inactive)
REMARK    1  A    between atoms: C_1  and  N_2
REMARK    2  A    between atoms: C_6  and  C_7
REMARK    3  A    between atoms: C_6  and  C_8
REMARK    4  A    between atoms: C_10  and  C_11
REMARK    5  A    between atoms: C_15  and  C_16
REMARK                            x       y       z     vdW  Elec       q    Type
REMARK                         _______ _______ _______ _____ _____    ______ ____
ROOT
ATOM      1  C   UNL     1       2.980   5.143  18.672  0.00  0.00    +0.000 C 
ATOM      2  C   UNL     1       1.789   5.313  17.769  0.00  0.00    +0.000 C 
ATOM      3  C   UNL     1       2.560   6.537  18.214  0.00  0.00    +0.000 C 
ENDROOT
BRANCH   1   9
ATOM      4  C   UNL     1       7.499   7.307  17.512  0.00  0.00    +0.000 C 
ATOM      5  N   UNL     1       6.499   6.273  17.762  0.00  0.00    +0.000 N 
ATOM      6  C   UNL     1       6.546   5.501  18.893  0.00  0.00    +0.000 C 
ATOM      7  O   UNL     1       7.541   5.446  19.628  0.00  0.00    +0.000 OA
ATOM      8  C   UNL     1       5.336   4.735  19.303  0.00  0.00    +0.000 C 
ATOM      9  C   UNL     1       4.304   4.540  18.207  0.00  0.00    +0.000 C 
ATOM     10  C   UNL     1       4.170   3.030  17.952  0.00  0.00    +0.000 C 
ATOM     11  N   UNL     1       4.665   5.112  16.914  0.00  0.00    +0.000 NA
ATOM     12  C   UNL     1       5.632   5.931  16.764  0.00  0.00    +0.000 C 
ATOM     13  N   UNL     1       5.809   6.474  15.531  0.00  0.00    +0.000 N 
ATOM     14  H   UNL     1       5.241   6.002  14.840  0.00  0.00    +0.000 HD
ATOM     15  H   UNL     1       6.763   6.602  15.226  0.00  0.00    +0.000 HD
ENDBRANCH   1   9
BRANCH   3  16
ATOM     16  C   UNL     1       1.960   7.533  19.179  0.00  0.00    +0.000 A 
ATOM     17  C   UNL     1       1.793   7.238  20.538  0.00  0.00    +0.000 A 
ATOM     18  C   UNL     1       1.279   8.187  21.422  0.00  0.00    +0.000 A 
ATOM     19  C   UNL     1       0.909   9.451  20.959  0.00  0.00    +0.000 A 
ATOM     20  C   UNL     1       1.063   9.808  19.609  0.00  0.00    +0.000 A 
ATOM     21  C   UNL     1       1.617   8.832  18.754  0.00  0.00    +0.000 A 
BRANCH  20  22
ATOM     22  C   UNL     1       0.622  11.131  19.096  0.00  0.00    +0.000 A 
ATOM     23  C   UNL     1       1.474  12.252  19.081  0.00  0.00    +0.000 A 
ATOM     24  C   UNL     1       1.021  13.512  18.668  0.00  0.00    +0.000 A 
ATOM     25  C   UNL     1      -0.291  13.677  18.238  0.00  0.00    +0.000 A 
ATOM     26  C   UNL     1      -1.148  12.583  18.214  0.00  0.00    +0.000 A 
ATOM     27  C   UNL     1      -0.697  11.331  18.642  0.00  0.00    +0.000 A 
ENDBRANCH  20  22
ENDBRANCH   3  16
TORSDOF 3
ENDMDL
MODEL 8
REMARK VINA RESULT:      -8.2      2.855      4.299
REMARK  Name = 
REMARK  5 active torsions:
REMARK  status: ('A' for Active; 'I' for Inactive)
REMARK    1  A    between atoms: C_1  and  N_2
REMARK    2  A    between atoms: C_6  and  C_7
REMARK    3  A    between atoms: C_6  and  C_8
REMARK    4  A    between atoms: C_10  and  C_11
REMARK    5  A    between atoms: C_15  and  C_16
REMARK                            x       y       z     vdW  Elec       q    Type
REMARK                         _______ _______ _______ _____ _____    ______ ____
ROOT
ATOM      1  C   UNL     1       2.163   7.168  18.052  0.00  0.00    +0.000 C 
ATOM      2  C   UNL     1       2.734   8.425  17.456  0.00  0.00    +0.000 C 
ATOM      3  C   UNL     1       2.329   8.418  18.914  0.00  0.00    +0.000 C 
ENDROOT
BRANCH   1   9
ATOM      4  C   UNL     1       1.027   2.770  20.463  0.00  0.00    +0.000 C 
ATOM      5  N   UNL     1       1.780   3.755  19.692  0.00  0.00    +0.000 N 
ATOM      6  C   UNL     1       1.988   3.594  18.348  0.00  0.00    +0.000 C 
ATOM      7  O   UNL     1       1.788   2.523  17.761  0.00  0.00    +0.000 OA
ATOM      8  C   UNL     1       2.417   4.764  17.532  0.00  0.00    +0.000 C 
ATOM      9  C   UNL     1       2.996   5.919  18.329  0.00  0.00    +0.000 C 
ATOM     10  C   UNL     1       4.456   6.111  17.885  0.00  0.00    +0.000 C 
ATOM     11  N   UNL     1       3.066   5.697  19.770  0.00  0.00    +0.000 NA
ATOM     12  C   UNL     1       2.460   4.738  20.354  0.00  0.00    +0.000 C 
ATOM     13  N   UNL     1       2.517   4.693  21.711  0.00  0.00    +0.000 N 
ATOM     14  H   UNL     1       3.202   5.346  22.069  0.00  0.00    +0.000 HD
ATOM     15  H   UNL     1       2.599   3.777  22.129  0.00  0.00    +0.000 HD
ENDBRANCH   1   9
BRANCH   3  16
ATOM     16  C   UNL     1       1.131   9.201  19.398  0.00  0.00    +0.000 A 
ATOM     17  C   UNL     1       1.016   9.632  20.726  0.00  0.00    +0.000 A 
ATOM     18  C   UNL     1      -0.076  10.394  21.143  0.00  0.00    +0.000 A 
ATOM     19  C   UNL     1      -1.084  10.731  20.238  0.00  0.00    +0.000 A 
ATOM     20  C   UNL     1      -1.018  10.338  18.891  0.00  0.00    +0.000 A 
ATOM     21  C   UNL     1       0.118   9.596  18.502  0.00  0.00    +0.000 A 
BRANCH  20  22
ATOM     22  C   UNL     1      -2.112  10.645  17.933  0.00  0.00    +0.000 A 
ATOM     23  C   UNL     1      -3.226  11.428  18.292  0.00  0.00    +0.000 A 
ATOM     24  C   UNL     1      -4.287  11.643  17.403  0.00  0.00    +0.000 A 
ATOM     25  C   UNL     1      -4.249  11.100  16.124  0.00  0.00    +0.000 A 
ATOM     26  C   UNL     1      -3.149  10.347  15.730  0.00  0.00    +0.000 A 
ATOM     27  C   UNL     1      -2.100  10.121  16.625  0.00  0.00    +0.000 A 
ENDBRANCH  20  22
ENDBRANCH   3  16
TORSDOF 3
ENDMDL
MODEL 9
REMARK VINA RESULT:      -8.2      2.950      4.068
REMARK  Name = 
REMARK  5 active torsions:
REMARK  status: ('A' for Active; 'I' for Inactive)
REMARK    1  A    between atoms: C_1  and  N_2
REMARK    2  A    between atoms: C_6  and  C_7
REMARK    3  A    between atoms: C_6  and  C_8
REMARK    4  A    between atoms: C_10  and  C_11
REMARK    5  A    between atoms: C_15  and  C_16
REMARK                            x       y       z     vdW  Elec       q    Type
REMARK                         _______ _______ _______ _____ _____    ______ ____
ROOT
ATOM      1  C   UNL     1       2.330   6.534  18.180  0.00  0.00    +0.000 C 
ATOM      2  C   UNL     1       2.962   7.756  17.573  0.00  0.00    +0.000 C 
ATOM      3  C   UNL     1       2.585   7.771  19.039  0.00  0.00    +0.000 C 
ENDROOT
BRANCH   1   9
ATOM      4  C   UNL     1       7.175   5.154  17.148  0.00  0.00    +0.000 C 
ATOM      5  N   UNL     1       5.813   5.088  17.669  0.00  0.00    +0.000 N 
ATOM      6  C   UNL     1       5.562   5.209  19.011  0.00  0.00    +0.000 C 
ATOM      7  O   UNL     1       6.448   5.125  19.870  0.00  0.00    +0.000 OA
ATOM      8  C   UNL     1       4.177   5.512  19.468  0.00  0.00    +0.000 C 
ATOM      9  C   UNL     1       3.093   5.237  18.441  0.00  0.00    +0.000 C 
ATOM     10  C   UNL     1       2.167   4.151  19.015  0.00  0.00    +0.000 C 
ATOM     11  N   UNL     1       3.570   4.697  17.173  0.00  0.00    +0.000 NA
ATOM     12  C   UNL     1       4.802   4.694  16.839  0.00  0.00    +0.000 C 
ATOM     13  N   UNL     1       5.114   4.257  15.591  0.00  0.00    +0.000 N 
ATOM     14  H   UNL     1       4.318   3.813  15.151  0.00  0.00    +0.000 HD
ATOM     15  H   UNL     1       5.959   3.712  15.502  0.00  0.00    +0.000 HD
ENDBRANCH   1   9
BRANCH   3  16
ATOM     16  C   UNL     1       1.446   8.623  19.546  0.00  0.00    +0.000 A 
ATOM     17  C   UNL     1       1.347   9.004  20.890  0.00  0.00    +0.000 A 
ATOM     18  C   UNL     1       0.312   9.830  21.330  0.00  0.00    +0.000 A 
ATOM     19  C   UNL     1      -0.656  10.282  20.431  0.00  0.00    +0.000 A 
ATOM     20  C   UNL     1      -0.604   9.942  19.070  0.00  0.00    +0.000 A 
ATOM     21  C   UNL     1       0.477   9.133  18.658  0.00  0.00    +0.000 A 
BRANCH  20  22
ATOM     22  C   UNL     1      -1.659  10.373  18.116  0.00  0.00    +0.000 A 
ATOM     23  C   UNL     1      -2.659  11.299  18.471  0.00  0.00    +0.000 A 
ATOM     24  C   UNL     1      -3.693  11.636  17.588  0.00  0.00    +0.000 A 
ATOM     25  C   UNL     1      -3.740  11.072  16.318  0.00  0.00    +0.000 A 
ATOM     26  C   UNL     1      -2.750  10.178  15.927  0.00  0.00    +0.000 A 
ATOM     27  C   UNL     1      -1.729   9.832  16.817  0.00  0.00    +0.000 A 
ENDBRANCH  20  22
ENDBRANCH   3  16
TORSDOF 3
ENDMDL
