MODEL 1
REMARK VINA RESULT:      -7.4      0.000      0.000
REMARK  Name = 
REMARK  5 active torsions:
REMARK  status: ('A' for Active; 'I' for Inactive)
REMARK    1  A    between atoms: C_2  and  C_4
REMARK    2  A    between atoms: C_7  and  N_8
REMARK    3  A    between atoms: N_18  and  O_19
REMARK    4  A    between atoms: O_19  and  S_20
REMARK    5  A    between atoms: S_20  and  O_23
REMARK                            x       y       z     vdW  Elec       q    Type
REMARK                         _______ _______ _______ _____ _____    ______ ____
ROOT
ATOM      1  N   UNL     1       1.964   8.198  19.610  0.00  0.00    +0.000 N 
ATOM      2  C   UNL     1       1.227   8.784  20.618  0.00  0.00    +0.000 C 
ATOM      3  O   UNL     1       0.809   8.212  21.618  0.00  0.00    +0.000 OA
ATOM      4  N   UNL     1       1.005  10.148  20.471  0.00  0.00    +0.000 N 
ATOM      5  C   UNL     1       0.353  10.851  21.584  0.00  0.00    +0.000 C 
ATOM      6  C   UNL     1      -1.033  11.168  21.044  0.00  0.00    +0.000 C 
ATOM      7  C   UNL     1      -0.747  11.594  19.603  0.00  0.00    +0.000 C 
ATOM      8  C   UNL     1       0.533  10.796  19.210  0.00  0.00    +0.000 C 
ATOM      9  C   UNL     1      -0.400  10.070  18.221  0.00  0.00    +0.000 C 
ATOM     10  O   UNL     1      -0.233   9.330  17.277  0.00  0.00    +0.000 OA
ATOM     11  N   UNL     1      -1.504  10.790  18.624  0.00  0.00    +0.000 N 
ATOM     12  H   UNL     1       2.317   8.799  18.879  0.00  0.00    +0.000 HD
ENDROOT
BRANCH   1  16
ATOM     13  C   UNL     1       3.196   4.135  19.425  0.00  0.00    +0.000 A 
ATOM     14  C   UNL     1       2.356   4.557  20.451  0.00  0.00    +0.000 A 
ATOM     15  C   UNL     1       1.952   5.892  20.519  0.00  0.00    +0.000 A 
ATOM     16  C   UNL     1       2.374   6.837  19.577  0.00  0.00    +0.000 A 
ATOM     17  C   UNL     1       3.248   6.413  18.567  0.00  0.00    +0.000 A 
ATOM     18  C   UNL     1       3.664   5.070  18.495  0.00  0.00    +0.000 A 
BRANCH  13  20
ATOM     19  N   UNL     1       4.856   2.399  19.797  0.00  0.00    +0.000 N 
ATOM     20  C   UNL     1       3.608   2.712  19.325  0.00  0.00    +0.000 C 
ATOM     21  O   UNL     1       2.864   1.853  18.874  0.00  0.00    +0.000 OA
ATOM     22  H   UNL     1       5.110   1.421  19.811  0.00  0.00    +0.000 HD
ATOM     23  H   UNL     1       5.394   3.032  20.374  0.00  0.00    +0.000 HD
ENDBRANCH  13  20
ENDBRANCH   1  16
BRANCH  11  24
ATOM     24  O   UNL     1      -1.932  11.602  17.528  0.00  0.00    +0.000 OA
BRANCH  24  25
ATOM     25  S   UNL     1      -3.283  11.065  16.776  0.00  0.00    +0.000 S 
ATOM     26  O   UNL     1      -3.049  11.081  15.347  0.00  0.00    +0.000 OA
ATOM     27  O   UNL     1      -3.738   9.873  17.456  0.00  0.00    +0.000 OA
BRANCH  25  28
ATOM     28  O   UNL     1      -4.371  12.225  17.042  0.00  0.00    +0.000 OA
ATOM     29  H   UNL     1      -5.090  11.838  17.581  0.00  0.00    +0.000 HD
ENDBRANCH  25  28
ENDBRANCH  24  25
ENDBRANCH  11  24
TORSDOF 5
ENDMDL
MODEL 2
REMARK VINA RESULT:      -7.4      4.244      8.422
REMARK  Name = 
REMARK  5 active torsions:
REMARK  status: ('A' for Active; 'I' for Inactive)
REMARK    1  A    between atoms: C_2  and  C_4
REMARK    2  A    between atoms: C_7  and  N_8
REMARK    3  A    between atoms: N_18  and  O_19
REMARK    4  A    between atoms: O_19  and  S_20
REMARK    5  A    between atoms: S_20  and  O_23
REMARK                            x       y       z     vdW  Elec       q    Type
REMARK                         _______ _______ _______ _____ _____    ______ ____
ROOT
ATOM      1  N   UNL     1       1.740   6.876  19.157  0.00  0.00    +0.000 N 
ATOM      2  C   UNL     1       2.279   5.780  19.797  0.00  0.00    +0.000 C 
ATOM      3  O   UNL     1       2.547   5.714  20.991  0.00  0.00    +0.000 OA
ATOM      4  N   UNL     1       2.475   4.664  18.992  0.00  0.00    +0.000 N 
ATOM      5  C   UNL     1       2.910   3.424  19.650  0.00  0.00    +0.000 C 
ATOM      6  C   UNL     1       4.355   3.268  19.199  0.00  0.00    +0.000 C 
ATOM      7  C   UNL     1       4.296   3.668  17.724  0.00  0.00    +0.000 C 
ATOM      8  C   UNL     1       3.126   4.696  17.648  0.00  0.00    +0.000 C 
ATOM      9  C   UNL     1       4.233   5.710  17.302  0.00  0.00    +0.000 C 
ATOM     10  O   UNL     1       4.251   6.840  16.867  0.00  0.00    +0.000 OA
ATOM     11  N   UNL     1       5.230   4.764  17.405  0.00  0.00    +0.000 N 
ATOM     12  H   UNL     1       1.491   6.774  18.184  0.00  0.00    +0.000 HD
ENDROOT
BRANCH   1  16
ATOM     13  C   UNL     1       0.737  10.584  20.976  0.00  0.00    +0.000 A 
ATOM     14  C   UNL     1       0.789   9.427  21.747  0.00  0.00    +0.000 A 
ATOM     15  C   UNL     1       1.113   8.205  21.154  0.00  0.00    +0.000 A 
ATOM     16  C   UNL     1       1.387   8.102  19.785  0.00  0.00    +0.000 A 
ATOM     17  C   UNL     1       1.299   9.266  19.008  0.00  0.00    +0.000 A 
ATOM     18  C   UNL     1       0.968  10.499  19.599  0.00  0.00    +0.000 A 
BRANCH  13  20
ATOM     19  N   UNL     1      -0.680  11.938  22.413  0.00  0.00    +0.000 N 
ATOM     20  C   UNL     1       0.422  11.894  21.601  0.00  0.00    +0.000 C 
ATOM     21  O   UNL     1       1.127  12.878  21.430  0.00  0.00    +0.000 OA
ATOM     22  H   UNL     1      -0.851  12.801  22.909  0.00  0.00    +0.000 HD
ATOM     23  H   UNL     1      -1.141  11.104  22.751  0.00  0.00    +0.000 HD
ENDBRANCH  13  20
ENDBRANCH   1  16
BRANCH  11  24
ATOM     24  O   UNL     1       5.805   4.577  16.109  0.00  0.00    +0.000 OA
BRANCH  24  25
ATOM     25  S   UNL     1       7.376   5.024  15.996  0.00  0.00    +0.000 S 
ATOM     26  O   UNL     1       8.149   4.219  16.917  0.00  0.00    +0.000 OA
ATOM     27  O   UNL     1       7.722   5.117  14.596  0.00  0.00    +0.000 OA
BRANCH  25  28
ATOM     28  O   UNL     1       7.407   6.517  16.606  0.00  0.00    +0.000 OA
ATOM     29  H   UNL     1       8.333   6.829  16.579  0.00  0.00    +0.000 HD
ENDBRANCH  25  28
ENDBRANCH  24  25
ENDBRANCH  11  24
TORSDOF 5
ENDMDL
MODEL 3
REMARK VINA RESULT:      -7.4      4.091      8.643
REMARK  Name = 
REMARK  5 active torsions:
REMARK  status: ('A' for Active; 'I' for Inactive)
REMARK    1  A    between atoms: C_2  and  C_4
REMARK    2  A    between atoms: C_7  and  N_8
REMARK    3  A    between atoms: N_18  and  O_19
REMARK    4  A    between atoms: O_19  and  S_20
REMARK    5  A    between atoms: S_20  and  O_23
REMARK                            x       y       z     vdW  Elec       q    Type
REMARK                         _______ _______ _______ _____ _____    ______ ____
ROOT
ATOM      1  N   UNL     1       1.704   8.298  18.369  0.00  0.00    +0.000 N 
ATOM      2  C   UNL     1       1.996   7.439  19.408  0.00  0.00    +0.000 C 
ATOM      3  O   UNL     1       2.117   7.761  20.584  0.00  0.00    +0.000 OA
ATOM      4  N   UNL     1       2.108   6.099  19.053  0.00  0.00    +0.000 N 
ATOM      5  C   UNL     1       2.275   5.125  20.139  0.00  0.00    +0.000 C 
ATOM      6  C   UNL     1       3.720   4.671  19.995  0.00  0.00    +0.000 C 
ATOM      7  C   UNL     1       3.886   4.542  18.480  0.00  0.00    +0.000 C 
ATOM      8  C   UNL     1       2.902   5.597  17.891  0.00  0.00    +0.000 C 
ATOM      9  C   UNL     1       4.181   6.308  17.409  0.00  0.00    +0.000 C 
ATOM     10  O   UNL     1       4.418   7.209  16.637  0.00  0.00    +0.000 OA
ATOM     11  N   UNL     1       5.006   5.356  17.970  0.00  0.00    +0.000 N 
ATOM     12  H   UNL     1       1.552   7.893  17.456  0.00  0.00    +0.000 HD
ENDROOT
BRANCH   1  16
ATOM     13  C   UNL     1       0.930  12.459  18.745  0.00  0.00    +0.000 A 
ATOM     14  C   UNL     1       2.139  12.026  18.208  0.00  0.00    +0.000 A 
ATOM     15  C   UNL     1       2.400  10.660  18.087  0.00  0.00    +0.000 A 
ATOM     16  C   UNL     1       1.474   9.694  18.498  0.00  0.00    +0.000 A 
ATOM     17  C   UNL     1       0.273  10.138  19.070  0.00  0.00    +0.000 A 
ATOM     18  C   UNL     1       0.005  11.513  19.200  0.00  0.00    +0.000 A 
BRANCH  13  20
ATOM     19  N   UNL     1      -0.643  14.298  18.521  0.00  0.00    +0.000 N 
ATOM     20  C   UNL     1       0.629  13.910  18.852  0.00  0.00    +0.000 C 
ATOM     21  O   UNL     1       1.460  14.716  19.245  0.00  0.00    +0.000 OA
ATOM     22  H   UNL     1      -0.881  15.269  18.673  0.00  0.00    +0.000 HD
ATOM     23  H   UNL     1      -1.403  13.640  18.416  0.00  0.00    +0.000 HD
ENDBRANCH  13  20
ENDBRANCH   1  16
BRANCH  11  24
ATOM     24  O   UNL     1       5.685   4.674  16.913  0.00  0.00    +0.000 OA
BRANCH  24  25
ATOM     25  S   UNL     1       7.302   4.929  16.874  0.00  0.00    +0.000 S 
ATOM     26  O   UNL     1       7.865   4.488  18.132  0.00  0.00    +0.000 OA
ATOM     27  O   UNL     1       7.807   4.449  15.607  0.00  0.00    +0.000 OA
BRANCH  25  28
ATOM     28  O   UNL     1       7.449   6.535  16.881  0.00  0.00    +0.000 OA
ATOM     29  H   UNL     1       6.603   6.908  17.201  0.00  0.00    +0.000 HD
ENDBRANCH  25  28
ENDBRANCH  24  25
ENDBRANCH  11  24
TORSDOF 5
ENDMDL
MODEL 4
REMARK VINA RESULT:      -7.3      0.662      1.165
REMARK  Name = 
REMARK  5 active torsions:
REMARK  status: ('A' for Active; 'I' for Inactive)
REMARK    1  A    between atoms: C_2  and  C_4
REMARK    2  A    between atoms: C_7  and  N_8
REMARK    3  A    between atoms: N_18  and  O_19
REMARK    4  A    between atoms: O_19  and  S_20
REMARK    5  A    between atoms: S_20  and  O_23
REMARK                            x       y       z     vdW  Elec       q    Type
REMARK                         _______ _______ _______ _____ _____    ______ ____
ROOT
ATOM      1  N   UNL     1       1.708   8.668  19.363  0.00  0.00    +0.000 N 
ATOM      2  C   UNL     1       1.041   9.250  20.421  0.00  0.00    +0.000 C 
ATOM      3  O   UNL     1       0.762   8.693  21.477  0.00  0.00    +0.000 OA
ATOM      4  N   UNL     1       0.721  10.592  20.253  0.00  0.00    +0.000 N 
ATOM      5  C   UNL     1       0.141  11.298  21.403  0.00  0.00    +0.000 C 
ATOM      6  C   UNL     1      -1.310  11.512  20.997  0.00  0.00    +0.000 C 
ATOM      7  C   UNL     1      -1.197  11.896  19.521  0.00  0.00    +0.000 C 
ATOM      8  C   UNL     1       0.084  11.160  19.026  0.00  0.00    +0.000 C 
ATOM      9  C   UNL     1      -0.895  10.342  18.162  0.00  0.00    +0.000 C 
ATOM     10  O   UNL     1      -0.779   9.577  17.232  0.00  0.00    +0.000 OA
ATOM     11  N   UNL     1      -1.996  11.012  18.652  0.00  0.00    +0.000 N 
ATOM     12  H   UNL     1       1.948   9.260  18.580  0.00  0.00    +0.000 HD
ENDROOT
BRANCH   1  16
ATOM     13  C   UNL     1       3.174   4.680  19.365  0.00  0.00    +0.000 A 
ATOM     14  C   UNL     1       3.479   5.528  18.305  0.00  0.00    +0.000 A 
ATOM     15  C   UNL     1       2.995   6.838  18.296  0.00  0.00    +0.000 A 
ATOM     16  C   UNL     1       2.198   7.334  19.334  0.00  0.00    +0.000 A 
ATOM     17  C   UNL     1       1.866   6.463  20.382  0.00  0.00    +0.000 A 
ATOM     18  C   UNL     1       2.345   5.140  20.394  0.00  0.00    +0.000 A 
BRANCH  13  20
ATOM     19  N   UNL     1       5.071   3.162  19.424  0.00  0.00    +0.000 N 
ATOM     20  C   UNL     1       3.707   3.294  19.399  0.00  0.00    +0.000 C 
ATOM     21  O   UNL     1       2.971   2.319  19.437  0.00  0.00    +0.000 OA
ATOM     22  H   UNL     1       5.440   2.227  19.534  0.00  0.00    +0.000 HD
ATOM     23  H   UNL     1       5.690   3.936  19.623  0.00  0.00    +0.000 HD
ENDBRANCH  13  20
ENDBRANCH   1  16
BRANCH  11  24
ATOM     24  O   UNL     1      -2.582  11.753  17.579  0.00  0.00    +0.000 OA
BRANCH  24  25
ATOM     25  S   UNL     1      -4.035  11.186  17.080  0.00  0.00    +0.000 S 
ATOM     26  O   UNL     1      -3.889  10.677  15.734  0.00  0.00    +0.000 OA
ATOM     27  O   UNL     1      -4.596  10.379  18.140  0.00  0.00    +0.000 OA
BRANCH  25  28
ATOM     28  O   UNL     1      -4.947  12.509  16.939  0.00  0.00    +0.000 OA
ATOM     29  H   UNL     1      -4.388  13.279  17.162  0.00  0.00    +0.000 HD
ENDBRANCH  25  28
ENDBRANCH  24  25
ENDBRANCH  11  24
TORSDOF 5
ENDMDL
MODEL 5
REMARK VINA RESULT:      -7.3      4.137      8.555
REMARK  Name = 
REMARK  5 active torsions:
REMARK  status: ('A' for Active; 'I' for Inactive)
REMARK    1  A    between atoms: C_2  and  C_4
REMARK    2  A    between atoms: C_7  and  N_8
REMARK    3  A    between atoms: N_18  and  O_19
REMARK    4  A    between atoms: O_19  and  S_20
REMARK    5  A    between atoms: S_20  and  O_23
REMARK                            x       y       z     vdW  Elec       q    Type
REMARK                         _______ _______ _______ _____ _____    ______ ____
ROOT
ATOM      1  N   UNL     1       1.717   7.983  18.451  0.00  0.00    +0.000 N 
ATOM      2  C   UNL     1       2.160   7.122  19.434  0.00  0.00    +0.000 C 
ATOM      3  O   UNL     1       2.377   7.427  20.601  0.00  0.00    +0.000 OA
ATOM      4  N   UNL     1       2.314   5.799  19.034  0.00  0.00    +0.000 N 
ATOM      5  C   UNL     1       2.643   4.814  20.073  0.00  0.00    +0.000 C 
ATOM      6  C   UNL     1       4.091   4.452  19.777  0.00  0.00    +0.000 C 
ATOM      7  C   UNL     1       4.114   4.364  18.250  0.00  0.00    +0.000 C 
ATOM      8  C   UNL     1       3.017   5.370  17.788  0.00  0.00    +0.000 C 
ATOM      9  C   UNL     1       4.199   6.167  17.203  0.00  0.00    +0.000 C 
ATOM     10  O   UNL     1       4.306   7.097  16.436  0.00  0.00    +0.000 OA
ATOM     11  N   UNL     1       5.129   5.255  17.656  0.00  0.00    +0.000 N 
ATOM     12  H   UNL     1       1.500   7.589  17.547  0.00  0.00    +0.000 HD
ENDROOT
BRANCH   1  16
ATOM     13  C   UNL     1       0.917  12.119  19.007  0.00  0.00    +0.000 A 
ATOM     14  C   UNL     1       0.093  11.169  19.602  0.00  0.00    +0.000 A 
ATOM     15  C   UNL     1       0.348   9.809  19.419  0.00  0.00    +0.000 A 
ATOM     16  C   UNL     1       1.421   9.360  18.639  0.00  0.00    +0.000 A 
ATOM     17  C   UNL     1       2.226  10.323  18.015  0.00  0.00    +0.000 A 
ATOM     18  C   UNL     1       1.972  11.696  18.191  0.00  0.00    +0.000 A 
BRANCH  13  20
ATOM     19  N   UNL     1      -0.387  14.118  18.549  0.00  0.00    +0.000 N 
ATOM     20  C   UNL     1       0.674  13.569  19.220  0.00  0.00    +0.000 C 
ATOM     21  O   UNL     1       1.362  14.236  19.979  0.00  0.00    +0.000 OA
ATOM     22  H   UNL     1      -0.612  15.082  18.754  0.00  0.00    +0.000 HD
ATOM     23  H   UNL     1      -1.100  13.556  18.103  0.00  0.00    +0.000 HD
ENDBRANCH  13  20
ENDBRANCH   1  16
BRANCH  11  24
ATOM     24  O   UNL     1       5.739   4.637  16.520  0.00  0.00    +0.000 OA
BRANCH  24  25
ATOM     25  S   UNL     1       7.330   4.981  16.337  0.00  0.00    +0.000 S 
ATOM     26  O   UNL     1       8.072   4.268  17.355  0.00  0.00    +0.000 OA
ATOM     27  O   UNL     1       7.662   4.864  14.936  0.00  0.00    +0.000 OA
BRANCH  25  28
ATOM     28  O   UNL     1       7.446   6.538  16.739  0.00  0.00    +0.000 OA
ATOM     29  H   UNL     1       7.460   7.057  15.910  0.00  0.00    +0.000 HD
ENDBRANCH  25  28
ENDBRANCH  24  25
ENDBRANCH  11  24
TORSDOF 5
ENDMDL
MODEL 6
REMARK VINA RESULT:      -7.3      4.080      8.596
REMARK  Name = 
REMARK  5 active torsions:
REMARK  status: ('A' for Active; 'I' for Inactive)
REMARK    1  A    between atoms: C_2  and  C_4
REMARK    2  A    between atoms: C_7  and  N_8
REMARK    3  A    between atoms: N_18  and  O_19
REMARK    4  A    between atoms: O_19  and  S_20
REMARK    5  A    between atoms: S_20  and  O_23
REMARK                            x       y       z     vdW  Elec       q    Type
REMARK                         _______ _______ _______ _____ _____    ______ ____
ROOT
ATOM      1  N   UNL     1       1.600   8.530  18.362  0.00  0.00    +0.000 N 
ATOM      2  C   UNL     1       1.784   7.680  19.433  0.00  0.00    +0.000 C 
ATOM      3  O   UNL     1       1.771   8.011  20.613  0.00  0.00    +0.000 OA
ATOM      4  N   UNL     1       1.947   6.340  19.102  0.00  0.00    +0.000 N 
ATOM      5  C   UNL     1       2.001   5.373  20.207  0.00  0.00    +0.000 C 
ATOM      6  C   UNL     1       3.458   4.933  20.226  0.00  0.00    +0.000 C 
ATOM      7  C   UNL     1       3.791   4.797  18.740  0.00  0.00    +0.000 C 
ATOM      8  C   UNL     1       2.869   5.839  18.038  0.00  0.00    +0.000 C 
ATOM      9  C   UNL     1       4.187   6.559  17.696  0.00  0.00    +0.000 C 
ATOM     10  O   UNL     1       4.499   7.459  16.949  0.00  0.00    +0.000 OA
ATOM     11  N   UNL     1       4.953   5.619  18.351  0.00  0.00    +0.000 N 
ATOM     12  H   UNL     1       1.554   8.119  17.442  0.00  0.00    +0.000 HD
ENDROOT
BRANCH   1  16
ATOM     13  C   UNL     1       0.922  12.714  18.666  0.00  0.00    +0.000 A 
ATOM     14  C   UNL     1      -0.117  11.825  18.924  0.00  0.00    +0.000 A 
ATOM     15  C   UNL     1       0.099  10.449  18.820  0.00  0.00    +0.000 A 
ATOM     16  C   UNL     1       1.345   9.926  18.456  0.00  0.00    +0.000 A 
ATOM     17  C   UNL     1       2.377  10.829  18.164  0.00  0.00    +0.000 A 
ATOM     18  C   UNL     1       2.165  12.217  18.261  0.00  0.00    +0.000 A 
BRANCH  13  20
ATOM     19  N   UNL     1      -0.570  14.632  18.640  0.00  0.00    +0.000 N 
ATOM     20  C   UNL     1       0.713  14.178  18.802  0.00  0.00    +0.000 C 
ATOM     21  O   UNL     1       1.629  14.940  19.077  0.00  0.00    +0.000 OA
ATOM     22  H   UNL     1      -0.736  15.614  18.816  0.00  0.00    +0.000 HD
ATOM     23  H   UNL     1      -1.370  14.015  18.641  0.00  0.00    +0.000 HD
ENDBRANCH  13  20
ENDBRANCH   1  16
BRANCH  11  24
ATOM     24  O   UNL     1       5.751   4.937  17.380  0.00  0.00    +0.000 OA
BRANCH  24  25
ATOM     25  S   UNL     1       7.316   5.416  17.336  0.00  0.00    +0.000 S 
ATOM     26  O   UNL     1       7.543   6.126  16.095  0.00  0.00    +0.000 OA
ATOM     27  O   UNL     1       7.649   6.000  18.616  0.00  0.00    +0.000 OA
BRANCH  25  28
ATOM     28  O   UNL     1       8.146   4.040  17.197  0.00  0.00    +0.000 OA
ATOM     29  H   UNL     1       9.097   4.261  17.253  0.00  0.00    +0.000 HD
ENDBRANCH  25  28
ENDBRANCH  24  25
ENDBRANCH  11  24
TORSDOF 5
ENDMDL
MODEL 7
REMARK VINA RESULT:      -7.2      4.348      6.757
REMARK  Name = 
REMARK  5 active torsions:
REMARK  status: ('A' for Active; 'I' for Inactive)
REMARK    1  A    between atoms: C_2  and  C_4
REMARK    2  A    between atoms: C_7  and  N_8
REMARK    3  A    between atoms: N_18  and  O_19
REMARK    4  A    between atoms: O_19  and  S_20
REMARK    5  A    between atoms: S_20  and  O_23
REMARK                            x       y       z     vdW  Elec       q    Type
REMARK                         _______ _______ _______ _____ _____    ______ ____
ROOT
ATOM      1  N   UNL     1       4.721   4.124  17.787  0.00  0.00    +0.000 N 
ATOM      2  C   UNL     1       3.468   3.562  17.915  0.00  0.00    +0.000 C 
ATOM      3  O   UNL     1       2.774   3.155  16.990  0.00  0.00    +0.000 OA
ATOM      4  N   UNL     1       3.013   3.422  19.221  0.00  0.00    +0.000 N 
ATOM      5  C   UNL     1       1.750   2.699  19.422  0.00  0.00    +0.000 C 
ATOM      6  C   UNL     1       0.773   3.792  19.828  0.00  0.00    +0.000 C 
ATOM      7  C   UNL     1       1.607   4.661  20.770  0.00  0.00    +0.000 C 
ATOM      8  C   UNL     1       3.069   4.498  20.255  0.00  0.00    +0.000 C 
ATOM      9  C   UNL     1       2.951   5.990  19.886  0.00  0.00    +0.000 C 
ATOM     10  O   UNL     1       3.734   6.852  19.557  0.00  0.00    +0.000 OA
ATOM     11  N   UNL     1       1.651   6.071  20.337  0.00  0.00    +0.000 N 
ATOM     12  H   UNL     1       5.222   4.345  18.636  0.00  0.00    +0.000 HD
ENDROOT
BRANCH   1  16
ATOM     13  C   UNL     1       6.851   4.730  14.161  0.00  0.00    +0.000 A 
ATOM     14  C   UNL     1       5.583   4.158  14.131  0.00  0.00    +0.000 A 
ATOM     15  C   UNL     1       4.881   3.951  15.320  0.00  0.00    +0.000 A 
ATOM     16  C   UNL     1       5.420   4.303  16.563  0.00  0.00    +0.000 A 
ATOM     17  C   UNL     1       6.712   4.847  16.588  0.00  0.00    +0.000 A 
ATOM     18  C   UNL     1       7.428   5.053  15.394  0.00  0.00    +0.000 A 
BRANCH  13  20
ATOM     19  N   UNL     1       8.637   5.870  12.969  0.00  0.00    +0.000 N 
ATOM     20  C   UNL     1       7.595   4.982  12.900  0.00  0.00    +0.000 C 
ATOM     21  O   UNL     1       7.318   4.405  11.859  0.00  0.00    +0.000 OA
ATOM     22  H   UNL     1       9.201   5.982  12.138  0.00  0.00    +0.000 HD
ATOM     23  H   UNL     1       9.029   6.183  13.847  0.00  0.00    +0.000 HD
ENDBRANCH  13  20
ENDBRANCH   1  16
BRANCH  11  24
ATOM     24  O   UNL     1       1.623   6.947  21.466  0.00  0.00    +0.000 OA
BRANCH  24  25
ATOM     25  S   UNL     1       0.763   8.321  21.234  0.00  0.00    +0.000 S 
ATOM     26  O   UNL     1       1.083   8.846  19.924  0.00  0.00    +0.000 OA
ATOM     27  O   UNL     1      -0.603   8.076  21.639  0.00  0.00    +0.000 OA
BRANCH  25  28
ATOM     28  O   UNL     1       1.402   9.368  22.281  0.00  0.00    +0.000 OA
ATOM     29  H   UNL     1       0.953  10.227  22.152  0.00  0.00    +0.000 HD
ENDBRANCH  25  28
ENDBRANCH  24  25
ENDBRANCH  11  24
TORSDOF 5
ENDMDL
MODEL 8
REMARK VINA RESULT:      -7.2      4.203      8.422
REMARK  Name = 
REMARK  5 active torsions:
REMARK  status: ('A' for Active; 'I' for Inactive)
REMARK    1  A    between atoms: C_2  and  C_4
REMARK    2  A    between atoms: C_7  and  N_8
REMARK    3  A    between atoms: N_18  and  O_19
REMARK    4  A    between atoms: O_19  and  S_20
REMARK    5  A    between atoms: S_20  and  O_23
REMARK                            x       y       z     vdW  Elec       q    Type
REMARK                         _______ _______ _______ _____ _____    ______ ____
ROOT
ATOM      1  N   UNL     1       1.598   6.926  19.365  0.00  0.00    +0.000 N 
ATOM      2  C   UNL     1       2.172   5.832  19.978  0.00  0.00    +0.000 C 
ATOM      3  O   UNL     1       2.427   5.739  21.173  0.00  0.00    +0.000 OA
ATOM      4  N   UNL     1       2.420   4.749  19.142  0.00  0.00    +0.000 N 
ATOM      5  C   UNL     1       2.894   3.508  19.767  0.00  0.00    +0.000 C 
ATOM      6  C   UNL     1       4.350   3.420  19.331  0.00  0.00    +0.000 C 
ATOM      7  C   UNL     1       4.293   3.864  17.868  0.00  0.00    +0.000 C 
ATOM      8  C   UNL     1       3.086   4.848  17.808  0.00  0.00    +0.000 C 
ATOM      9  C   UNL     1       4.157   5.914  17.508  0.00  0.00    +0.000 C 
ATOM     10  O   UNL     1       4.137   7.056  17.108  0.00  0.00    +0.000 OA
ATOM     11  N   UNL     1       5.189   5.003  17.596  0.00  0.00    +0.000 N 
ATOM     12  H   UNL     1       1.366   6.845  18.385  0.00  0.00    +0.000 HD
ENDROOT
BRANCH   1  16
ATOM     13  C   UNL     1       0.327  10.440  21.389  0.00  0.00    +0.000 A 
ATOM     14  C   UNL     1       0.749  10.518  20.065  0.00  0.00    +0.000 A 
ATOM     15  C   UNL     1       1.172   9.368  19.397  0.00  0.00    +0.000 A 
ATOM     16  C   UNL     1       1.192   8.118  20.025  0.00  0.00    +0.000 A 
ATOM     17  C   UNL     1       0.798   8.052  21.369  0.00  0.00    +0.000 A 
ATOM     18  C   UNL     1       0.375   9.208  22.050  0.00  0.00    +0.000 A 
BRANCH  13  20
ATOM     19  N   UNL     1      -1.186  11.474  22.984  0.00  0.00    +0.000 N 
ATOM     20  C   UNL     1      -0.155  11.651  22.100  0.00  0.00    +0.000 C 
ATOM     21  O   UNL     1       0.361  12.747  21.934  0.00  0.00    +0.000 OA
ATOM     22  H   UNL     1      -1.462  12.276  23.535  0.00  0.00    +0.000 HD
ATOM     23  H   UNL     1      -1.475  10.561  23.309  0.00  0.00    +0.000 HD
ENDBRANCH  13  20
ENDBRANCH   1  16
BRANCH  11  24
ATOM     24  O   UNL     1       5.786   4.879  16.303  0.00  0.00    +0.000 OA
BRANCH  24  25
ATOM     25  S   UNL     1       7.372   5.280  16.249  0.00  0.00    +0.000 S 
ATOM     26  O   UNL     1       7.506   6.670  16.631  0.00  0.00    +0.000 OA
ATOM     27  O   UNL     1       8.127   4.238  16.907  0.00  0.00    +0.000 OA
BRANCH  25  28
ATOM     28  O   UNL     1       7.739   5.233  14.680  0.00  0.00    +0.000 OA
ATOM     29  H   UNL     1       7.475   4.355  14.340  0.00  0.00    +0.000 HD
ENDBRANCH  25  28
ENDBRANCH  24  25
ENDBRANCH  11  24
TORSDOF 5
ENDMDL
MODEL 9
REMARK VINA RESULT:      -7.2      1.150      1.419
REMARK  Name = 
REMARK  5 active torsions:
REMARK  status: ('A' for Active; 'I' for Inactive)
REMARK    1  A    between atoms: C_2  and  C_4
REMARK    2  A    between atoms: C_7  and  N_8
REMARK    3  A    between atoms: N_18  and  O_19
REMARK    4  A    between atoms: O_19  and  S_20
REMARK    5  A    between atoms: S_20  and  O_23
REMARK                            x       y       z     vdW  Elec       q    Type
REMARK                         _______ _______ _______ _____ _____    ______ ____
ROOT
ATOM      1  N   UNL     1       1.717   8.945  19.081  0.00  0.00    +0.000 N 
ATOM      2  C   UNL     1       1.173   9.502  20.220  0.00  0.00    +0.000 C 
ATOM      3  O   UNL     1       1.090   8.950  21.311  0.00  0.00    +0.000 OA
ATOM      4  N   UNL     1       0.740  10.816  20.086  0.00  0.00    +0.000 N 
ATOM      5  C   UNL     1       0.287  11.505  21.302  0.00  0.00    +0.000 C 
ATOM      6  C   UNL     1      -1.219  11.613  21.111  0.00  0.00    +0.000 C 
ATOM      7  C   UNL     1      -1.349  11.974  19.631  0.00  0.00    +0.000 C 
ATOM      8  C   UNL     1      -0.106  11.315  18.960  0.00  0.00    +0.000 C 
ATOM      9  C   UNL     1      -1.143  10.417  18.258  0.00  0.00    +0.000 C 
ATOM     10  O   UNL     1      -1.110   9.642  17.329  0.00  0.00    +0.000 OA
ATOM     11  N   UNL     1      -2.204  11.021  18.898  0.00  0.00    +0.000 N 
ATOM     12  H   UNL     1       1.799   9.535  18.265  0.00  0.00    +0.000 HD
ENDROOT
BRANCH   1  16
ATOM     13  C   UNL     1       3.419   5.067  18.733  0.00  0.00    +0.000 A 
ATOM     14  C   UNL     1       2.647   5.386  19.845  0.00  0.00    +0.000 A 
ATOM     15  C   UNL     1       2.089   6.661  19.967  0.00  0.00    +0.000 A 
ATOM     16  C   UNL     1       2.288   7.646  18.994  0.00  0.00    +0.000 A 
ATOM     17  C   UNL     1       3.096   7.329  17.892  0.00  0.00    +0.000 A 
ATOM     18  C   UNL     1       3.665   6.048  17.766  0.00  0.00    +0.000 A 
BRANCH  13  20
ATOM     19  N   UNL     1       5.235   3.498  19.116  0.00  0.00    +0.000 N 
ATOM     20  C   UNL     1       3.992   3.706  18.577  0.00  0.00    +0.000 C 
ATOM     21  O   UNL     1       3.377   2.804  18.027  0.00  0.00    +0.000 OA
ATOM     22  H   UNL     1       5.594   2.553  19.090  0.00  0.00    +0.000 HD
ATOM     23  H   UNL     1       5.662   4.145  19.764  0.00  0.00    +0.000 HD
ENDBRANCH  13  20
ENDBRANCH   1  16
BRANCH  11  24
ATOM     24  O   UNL     1      -2.990  11.700  17.915  0.00  0.00    +0.000 OA
BRANCH  24  25
ATOM     25  S   UNL     1      -4.598  11.706  18.222  0.00  0.00    +0.000 S 
ATOM     26  O   UNL     1      -5.091  10.350  18.109  0.00  0.00    +0.000 OA
ATOM     27  O   UNL     1      -4.832  12.501  19.406  0.00  0.00    +0.000 OA
BRANCH  25  28
ATOM     28  O   UNL     1      -5.236  12.496  16.969  0.00  0.00    +0.000 OA
ATOM     29  H   UNL     1      -6.165  12.706  17.193  0.00  0.00    +0.000 HD
ENDBRANCH  25  28
ENDBRANCH  24  25
ENDBRANCH  11  24
TORSDOF 5
ENDMDL
