MODEL 1
REMARK VINA RESULT:     -10.1      0.000      0.000
REMARK  Name = 
REMARK  8 active torsions:
REMARK  status: ('A' for Active; 'I' for Inactive)
REMARK    1  A    between atoms: C_2  and  O_3
REMARK    2  A    between atoms: C_2  and  C_4
REMARK    3  A    between atoms: C_11  and  C_12
REMARK    4  A    between atoms: C_15  and  O_16
REMARK    5  A    between atoms: O_16  and  C_17
REMARK    6  A    between atoms: C_17  and  C_18
REMARK    7  A    between atoms: C_21  and  C_22
REMARK    8  A    between atoms: N_30  and  C_31
REMARK                            x       y       z     vdW  Elec       q    Type
REMARK                         _______ _______ _______ _____ _____    ______ ____
ROOT
ATOM      1  C   UNL     1       5.802   5.029  15.878  0.00  0.00    +0.000 A 
ATOM      2  C   UNL     1       5.343   3.960  16.655  0.00  0.00    +0.000 A 
ATOM      3  C   UNL     1       4.310   4.132  17.584  0.00  0.00    +0.000 A 
ATOM      4  C   UNL     1       3.753   5.413  17.706  0.00  0.00    +0.000 A 
ATOM      5  C   UNL     1       4.201   6.483  16.942  0.00  0.00    +0.000 A 
ATOM      6  C   UNL     1       5.226   6.302  16.003  0.00  0.00    +0.000 A 
ATOM      7  N   UNL     1       3.519   7.622  17.259  0.00  0.00    +0.000 NA
ATOM      8  C   UNL     1       2.676   7.308  18.231  0.00  0.00    +0.000 A 
ATOM      9  N   UNL     1       2.737   5.942  18.484  0.00  0.00    +0.000 N 
ENDROOT
BRANCH   8  10
ATOM     10  C   UNL     1       1.796   8.298  18.871  0.00  0.00    +0.000 A 
ATOM     11  C   UNL     1       1.268   9.330  18.083  0.00  0.00    +0.000 A 
ATOM     12  C   UNL     1       0.438  10.307  18.633  0.00  0.00    +0.000 A 
ATOM     13  C   UNL     1       0.087  10.252  19.981  0.00  0.00    +0.000 A 
ATOM     14  C   UNL     1       0.631   9.253  20.786  0.00  0.00    +0.000 A 
ATOM     15  C   UNL     1       1.499   8.303  20.241  0.00  0.00    +0.000 A 
BRANCH  13  16
ATOM     16  O   UNL     1      -0.755  11.124  20.611  0.00  0.00    +0.000 OA
BRANCH  16  17
ATOM     17  C   UNL     1      -1.116  12.283  19.859  0.00  0.00    +0.000 C 
BRANCH  17  18
ATOM     18  C   UNL     1      -2.571  12.164  19.496  0.00  0.00    +0.000 A 
ATOM     19  C   UNL     1      -3.566  12.621  20.367  0.00  0.00    +0.000 A 
ATOM     20  C   UNL     1      -4.914  12.443  20.049  0.00  0.00    +0.000 A 
ATOM     21  C   UNL     1      -5.285  11.795  18.861  0.00  0.00    +0.000 A 
ATOM     22  C   UNL     1      -4.284  11.366  17.977  0.00  0.00    +0.000 A 
ATOM     23  C   UNL     1      -2.939  11.544  18.296  0.00  0.00    +0.000 A 
BRANCH  21  24
ATOM     24  C   UNL     1      -6.732  11.523  18.540  0.00  0.00    +0.000 C 
ATOM     25  F   UNL     1      -7.603  12.072  19.433  0.00  0.00    +0.000 F 
ATOM     26  F   UNL     1      -7.098  12.000  17.319  0.00  0.00    +0.000 F 
ATOM     27  F   UNL     1      -7.014  10.189  18.519  0.00  0.00    +0.000 F 
ENDBRANCH  21  24
ENDBRANCH  17  18
ENDBRANCH  16  17
ENDBRANCH  13  16
ENDBRANCH   8  10
BRANCH   9  28
ATOM     28  C   UNL     1       1.897   5.192  19.395  0.00  0.00    +0.000 C 
ATOM     29  C   UNL     1       1.292   3.897  18.856  0.00  0.00    +0.000 C 
ATOM     30  C   UNL     1       0.847   3.167  20.118  0.00  0.00    +0.000 C 
ATOM     31  C   UNL     1       1.796   3.608  21.231  0.00  0.00    +0.000 C 
ATOM     32  C   UNL     1       2.604   4.779  20.687  0.00  0.00    +0.000 C 
ENDBRANCH   9  28
BRANCH   1  34
ATOM     33  O   UNL     1       7.836   5.493  14.747  0.00  0.00    +0.000 OA
ATOM     34  C   UNL     1       6.885   4.751  14.902  0.00  0.00    +0.000 C 
BRANCH  34  35
ATOM     35  O   UNL     1       6.683   3.639  14.166  0.00  0.00    +0.000 OA
ATOM     36  H   UNL     1       5.930   3.089  14.448  0.00  0.00    +0.000 HD
ENDBRANCH  34  35
ENDBRANCH   1  34
TORSDOF 8
ENDMDL
MODEL 2
REMARK VINA RESULT:      -9.7      3.006      3.521
REMARK  Name = 
REMARK  8 active torsions:
REMARK  status: ('A' for Active; 'I' for Inactive)
REMARK    1  A    between atoms: C_2  and  O_3
REMARK    2  A    between atoms: C_2  and  C_4
REMARK    3  A    between atoms: C_11  and  C_12
REMARK    4  A    between atoms: C_15  and  O_16
REMARK    5  A    between atoms: O_16  and  C_17
REMARK    6  A    between atoms: C_17  and  C_18
REMARK    7  A    between atoms: C_21  and  C_22
REMARK    8  A    between atoms: N_30  and  C_31
REMARK                            x       y       z     vdW  Elec       q    Type
REMARK                         _______ _______ _______ _____ _____    ______ ____
ROOT
ATOM      1  C   UNL     1       5.793   4.993  15.806  0.00  0.00    +0.000 A 
ATOM      2  C   UNL     1       5.323   3.902  16.544  0.00  0.00    +0.000 A 
ATOM      3  C   UNL     1       4.296   4.051  17.483  0.00  0.00    +0.000 A 
ATOM      4  C   UNL     1       3.756   5.333  17.655  0.00  0.00    +0.000 A 
ATOM      5  C   UNL     1       4.214   6.426  16.930  0.00  0.00    +0.000 A 
ATOM      6  C   UNL     1       5.233   6.268  15.980  0.00  0.00    +0.000 A 
ATOM      7  N   UNL     1       3.547   7.560  17.292  0.00  0.00    +0.000 NA
ATOM      8  C   UNL     1       2.704   7.220  18.255  0.00  0.00    +0.000 A 
ATOM      9  N   UNL     1       2.749   5.845  18.456  0.00  0.00    +0.000 N 
ENDROOT
BRANCH   8  10
ATOM     10  C   UNL     1       1.839   8.197  18.936  0.00  0.00    +0.000 A 
ATOM     11  C   UNL     1       1.229   9.198  18.167  0.00  0.00    +0.000 A 
ATOM     12  C   UNL     1       0.408  10.161  18.754  0.00  0.00    +0.000 A 
ATOM     13  C   UNL     1       0.148  10.121  20.123  0.00  0.00    +0.000 A 
ATOM     14  C   UNL     1       0.774   9.153  20.907  0.00  0.00    +0.000 A 
ATOM     15  C   UNL     1       1.633   8.218  20.321  0.00  0.00    +0.000 A 
BRANCH  13  16
ATOM     16  O   UNL     1      -0.676  10.979  20.794  0.00  0.00    +0.000 OA
BRANCH  16  17
ATOM     17  C   UNL     1      -0.774  10.763  22.202  0.00  0.00    +0.000 C 
BRANCH  17  18
ATOM     18  C   UNL     1      -1.424  11.975  22.812  0.00  0.00    +0.000 A 
ATOM     19  C   UNL     1      -2.671  11.881  23.438  0.00  0.00    +0.000 A 
ATOM     20  C   UNL     1      -3.294  13.026  23.939  0.00  0.00    +0.000 A 
ATOM     21  C   UNL     1      -2.682  14.282  23.812  0.00  0.00    +0.000 A 
ATOM     22  C   UNL     1      -1.417  14.367  23.210  0.00  0.00    +0.000 A 
ATOM     23  C   UNL     1      -0.797  13.224  22.710  0.00  0.00    +0.000 A 
BRANCH  21  24
ATOM     24  C   UNL     1      -3.375  15.538  24.275  0.00  0.00    +0.000 C 
ATOM     25  F   UNL     1      -3.544  15.602  25.625  0.00  0.00    +0.000 F 
ATOM     26  F   UNL     1      -2.700  16.668  23.927  0.00  0.00    +0.000 F 
ATOM     27  F   UNL     1      -4.621  15.667  23.738  0.00  0.00    +0.000 F 
ENDBRANCH  21  24
ENDBRANCH  17  18
ENDBRANCH  16  17
ENDBRANCH  13  16
ENDBRANCH   8  10
BRANCH   9  28
ATOM     28  C   UNL     1       1.902   5.071  19.342  0.00  0.00    +0.000 C 
ATOM     29  C   UNL     1       1.364   3.752  18.791  0.00  0.00    +0.000 C 
ATOM     30  C   UNL     1       0.898   3.015  20.042  0.00  0.00    +0.000 C 
ATOM     31  C   UNL     1       1.790   3.498  21.185  0.00  0.00    +0.000 C 
ATOM     32  C   UNL     1       2.576   4.693  20.662  0.00  0.00    +0.000 C 
ENDBRANCH   9  28
BRANCH   1  34
ATOM     33  O   UNL     1       7.835   5.467  14.694  0.00  0.00    +0.000 OA
ATOM     34  C   UNL     1       6.869   4.738  14.816  0.00  0.00    +0.000 C 
BRANCH  34  35
ATOM     35  O   UNL     1       6.643   3.667  14.029  0.00  0.00    +0.000 OA
ATOM     36  H   UNL     1       6.318   3.873  13.134  0.00  0.00    +0.000 HD
ENDBRANCH  34  35
ENDBRANCH   1  34
TORSDOF 8
ENDMDL
MODEL 3
REMARK VINA RESULT:      -9.6      3.108      3.805
REMARK  Name = 
REMARK  8 active torsions:
REMARK  status: ('A' for Active; 'I' for Inactive)
REMARK    1  A    between atoms: C_2  and  O_3
REMARK    2  A    between atoms: C_2  and  C_4
REMARK    3  A    between atoms: C_11  and  C_12
REMARK    4  A    between atoms: C_15  and  O_16
REMARK    5  A    between atoms: O_16  and  C_17
REMARK    6  A    between atoms: C_17  and  C_18
REMARK    7  A    between atoms: C_21  and  C_22
REMARK    8  A    between atoms: N_30  and  C_31
REMARK                            x       y       z     vdW  Elec       q    Type
REMARK                         _______ _______ _______ _____ _____    ______ ____
ROOT
ATOM      1  C   UNL     1       5.681   4.965  15.576  0.00  0.00    +0.000 A 
ATOM      2  C   UNL     1       5.143   3.804  16.142  0.00  0.00    +0.000 A 
ATOM      3  C   UNL     1       4.147   3.871  17.124  0.00  0.00    +0.000 A 
ATOM      4  C   UNL     1       3.710   5.143  17.518  0.00  0.00    +0.000 A 
ATOM      5  C   UNL     1       4.236   6.304  16.966  0.00  0.00    +0.000 A 
ATOM      6  C   UNL     1       5.222   6.231  15.972  0.00  0.00    +0.000 A 
ATOM      7  N   UNL     1       3.665   7.409  17.527  0.00  0.00    +0.000 NA
ATOM      8  C   UNL     1       2.816   6.977  18.448  0.00  0.00    +0.000 A 
ATOM      9  N   UNL     1       2.760   5.588  18.422  0.00  0.00    +0.000 N 
ENDROOT
BRANCH   8  10
ATOM     10  C   UNL     1       2.041   7.889  19.304  0.00  0.00    +0.000 A 
ATOM     11  C   UNL     1       1.579   9.092  18.752  0.00  0.00    +0.000 A 
ATOM     12  C   UNL     1       0.849  10.004  19.515  0.00  0.00    +0.000 A 
ATOM     13  C   UNL     1       0.533   9.715  20.841  0.00  0.00    +0.000 A 
ATOM     14  C   UNL     1       1.014   8.539  21.415  0.00  0.00    +0.000 A 
ATOM     15  C   UNL     1       1.784   7.650  20.660  0.00  0.00    +0.000 A 
BRANCH  13  16
ATOM     16  O   UNL     1      -0.215  10.509  21.663  0.00  0.00    +0.000 OA
BRANCH  16  17
ATOM     17  C   UNL     1      -1.044  11.467  21.004  0.00  0.00    +0.000 C 
BRANCH  17  18
ATOM     18  C   UNL     1      -1.509  12.461  22.034  0.00  0.00    +0.000 A 
ATOM     19  C   UNL     1      -0.662  13.483  22.477  0.00  0.00    +0.000 A 
ATOM     20  C   UNL     1      -1.082  14.357  23.482  0.00  0.00    +0.000 A 
ATOM     21  C   UNL     1      -2.350  14.214  24.064  0.00  0.00    +0.000 A 
ATOM     22  C   UNL     1      -3.208  13.207  23.595  0.00  0.00    +0.000 A 
ATOM     23  C   UNL     1      -2.787  12.336  22.592  0.00  0.00    +0.000 A 
BRANCH  21  24
ATOM     24  C   UNL     1      -2.789  15.098  25.204  0.00  0.00    +0.000 C 
ATOM     25  F   UNL     1      -1.884  16.063  25.528  0.00  0.00    +0.000 F 
ATOM     26  F   UNL     1      -3.955  15.750  24.944  0.00  0.00    +0.000 F 
ATOM     27  F   UNL     1      -3.004  14.391  26.350  0.00  0.00    +0.000 F 
ENDBRANCH  21  24
ENDBRANCH  17  18
ENDBRANCH  16  17
ENDBRANCH  13  16
ENDBRANCH   8  10
BRANCH   9  28
ATOM     28  C   UNL     1       1.874   4.743  19.197  0.00  0.00    +0.000 C 
ATOM     29  C   UNL     1       1.231   3.571  18.458  0.00  0.00    +0.000 C 
ATOM     30  C   UNL     1       0.734   2.676  19.588  0.00  0.00    +0.000 C 
ATOM     31  C   UNL     1       1.677   2.904  20.768  0.00  0.00    +0.000 C 
ATOM     32  C   UNL     1       2.540   4.111  20.420  0.00  0.00    +0.000 C 
ENDBRANCH   9  28
BRANCH   1  34
ATOM     33  O   UNL     1       6.587   4.028  13.593  0.00  0.00    +0.000 OA
ATOM     34  C   UNL     1       6.715   4.799  14.525  0.00  0.00    +0.000 C 
BRANCH  34  35
ATOM     35  O   UNL     1       7.828   5.531  14.736  0.00  0.00    +0.000 OA
ATOM     36  H   UNL     1       8.169   5.997  13.952  0.00  0.00    +0.000 HD
ENDBRANCH  34  35
ENDBRANCH   1  34
TORSDOF 8
ENDMDL
MODEL 4
REMARK VINA RESULT:      -9.6      1.838      2.461
REMARK  Name = 
REMARK  8 active torsions:
REMARK  status: ('A' for Active; 'I' for Inactive)
REMARK    1  A    between atoms: C_2  and  O_3
REMARK    2  A    between atoms: C_2  and  C_4
REMARK    3  A    between atoms: C_11  and  C_12
REMARK    4  A    between atoms: C_15  and  O_16
REMARK    5  A    between atoms: O_16  and  C_17
REMARK    6  A    between atoms: C_17  and  C_18
REMARK    7  A    between atoms: C_21  and  C_22
REMARK    8  A    between atoms: N_30  and  C_31
REMARK                            x       y       z     vdW  Elec       q    Type
REMARK                         _______ _______ _______ _____ _____    ______ ____
ROOT
ATOM      1  C   UNL     1       5.684   4.969  15.620  0.00  0.00    +0.000 A 
ATOM      2  C   UNL     1       5.150   3.832  16.236  0.00  0.00    +0.000 A 
ATOM      3  C   UNL     1       4.149   3.937  17.209  0.00  0.00    +0.000 A 
ATOM      4  C   UNL     1       3.702   5.223  17.543  0.00  0.00    +0.000 A 
ATOM      5  C   UNL     1       4.225   6.361  16.941  0.00  0.00    +0.000 A 
ATOM      6  C   UNL     1       5.216   6.249  15.956  0.00  0.00    +0.000 A 
ATOM      7  N   UNL     1       3.644   7.487  17.450  0.00  0.00    +0.000 NA
ATOM      8  C   UNL     1       2.794   7.092  18.385  0.00  0.00    +0.000 A 
ATOM      9  N   UNL     1       2.746   5.703  18.422  0.00  0.00    +0.000 N 
ENDROOT
BRANCH   8  10
ATOM     10  C   UNL     1       2.009   8.037  19.195  0.00  0.00    +0.000 A 
ATOM     11  C   UNL     1       1.833   7.761  20.558  0.00  0.00    +0.000 A 
ATOM     12  C   UNL     1       1.089   8.611  21.378  0.00  0.00    +0.000 A 
ATOM     13  C   UNL     1       0.535   9.779  20.857  0.00  0.00    +0.000 A 
ATOM     14  C   UNL     1       0.672  10.051  19.497  0.00  0.00    +0.000 A 
ATOM     15  C   UNL     1       1.379   9.173  18.671  0.00  0.00    +0.000 A 
BRANCH  13  16
ATOM     16  O   UNL     1      -0.167  10.705  21.575  0.00  0.00    +0.000 OA
BRANCH  16  17
ATOM     17  C   UNL     1      -0.590  11.857  20.845  0.00  0.00    +0.000 C 
BRANCH  17  18
ATOM     18  C   UNL     1      -1.916  12.298  21.403  0.00  0.00    +0.000 A 
ATOM     19  C   UNL     1      -2.262  12.022  22.730  0.00  0.00    +0.000 A 
ATOM     20  C   UNL     1      -3.522  12.375  23.215  0.00  0.00    +0.000 A 
ATOM     21  C   UNL     1      -4.457  13.002  22.378  0.00  0.00    +0.000 A 
ATOM     22  C   UNL     1      -4.094  13.305  21.057  0.00  0.00    +0.000 A 
ATOM     23  C   UNL     1      -2.836  12.951  20.573  0.00  0.00    +0.000 A 
BRANCH  21  24
ATOM     24  C   UNL     1      -5.849  13.319  22.862  0.00  0.00    +0.000 C 
ATOM     25  F   UNL     1      -6.398  14.414  22.265  0.00  0.00    +0.000 F 
ATOM     26  F   UNL     1      -6.724  12.298  22.650  0.00  0.00    +0.000 F 
ATOM     27  F   UNL     1      -5.884  13.570  24.201  0.00  0.00    +0.000 F 
ENDBRANCH  21  24
ENDBRANCH  17  18
ENDBRANCH  16  17
ENDBRANCH  13  16
ENDBRANCH   8  10
BRANCH   9  28
ATOM     28  C   UNL     1       1.861   4.889  19.230  0.00  0.00    +0.000 C 
ATOM     29  C   UNL     1       1.203   3.699  18.533  0.00  0.00    +0.000 C 
ATOM     30  C   UNL     1       0.710   2.843  19.694  0.00  0.00    +0.000 C 
ATOM     31  C   UNL     1       1.665   3.101  20.859  0.00  0.00    +0.000 C 
ATOM     32  C   UNL     1       2.533   4.290  20.467  0.00  0.00    +0.000 C 
ENDBRANCH   9  28
BRANCH   1  34
ATOM     33  O   UNL     1       6.603   3.952  13.683  0.00  0.00    +0.000 OA
ATOM     34  C   UNL     1       6.724   4.762  14.583  0.00  0.00    +0.000 C 
BRANCH  34  35
ATOM     35  O   UNL     1       7.834   5.505  14.769  0.00  0.00    +0.000 OA
ATOM     36  H   UNL     1       7.707   6.466  14.676  0.00  0.00    +0.000 HD
ENDBRANCH  34  35
ENDBRANCH   1  34
TORSDOF 8
ENDMDL
MODEL 5
REMARK VINA RESULT:      -9.5      2.020      2.550
REMARK  Name = 
REMARK  8 active torsions:
REMARK  status: ('A' for Active; 'I' for Inactive)
REMARK    1  A    between atoms: C_2  and  O_3
REMARK    2  A    between atoms: C_2  and  C_4
REMARK    3  A    between atoms: C_11  and  C_12
REMARK    4  A    between atoms: C_15  and  O_16
REMARK    5  A    between atoms: O_16  and  C_17
REMARK    6  A    between atoms: C_17  and  C_18
REMARK    7  A    between atoms: C_21  and  C_22
REMARK    8  A    between atoms: N_30  and  C_31
REMARK                            x       y       z     vdW  Elec       q    Type
REMARK                         _______ _______ _______ _____ _____    ______ ____
ROOT
ATOM      1  C   UNL     1       5.713   4.947  15.592  0.00  0.00    +0.000 A 
ATOM      2  C   UNL     1       5.182   3.788  16.168  0.00  0.00    +0.000 A 
ATOM      3  C   UNL     1       4.185   3.858  17.149  0.00  0.00    +0.000 A 
ATOM      4  C   UNL     1       3.739   5.131  17.530  0.00  0.00    +0.000 A 
ATOM      5  C   UNL     1       4.259   6.290  16.968  0.00  0.00    +0.000 A 
ATOM      6  C   UNL     1       5.247   6.214  15.976  0.00  0.00    +0.000 A 
ATOM      7  N   UNL     1       3.681   7.397  17.519  0.00  0.00    +0.000 NA
ATOM      8  C   UNL     1       2.834   6.968  18.443  0.00  0.00    +0.000 A 
ATOM      9  N   UNL     1       2.786   5.579  18.430  0.00  0.00    +0.000 N 
ENDROOT
BRANCH   8  10
ATOM     10  C   UNL     1       2.052   7.883  19.290  0.00  0.00    +0.000 A 
ATOM     11  C   UNL     1       1.545   9.056  18.714  0.00  0.00    +0.000 A 
ATOM     12  C   UNL     1       0.807   9.971  19.467  0.00  0.00    +0.000 A 
ATOM     13  C   UNL     1       0.527   9.711  20.807  0.00  0.00    +0.000 A 
ATOM     14  C   UNL     1       1.053   8.566  21.404  0.00  0.00    +0.000 A 
ATOM     15  C   UNL     1       1.830   7.676  20.658  0.00  0.00    +0.000 A 
BRANCH  13  16
ATOM     16  O   UNL     1      -0.224  10.509  21.623  0.00  0.00    +0.000 OA
BRANCH  16  17
ATOM     17  C   UNL     1      -0.341  11.871  21.212  0.00  0.00    +0.000 C 
BRANCH  17  18
ATOM     18  C   UNL     1      -1.713  12.354  21.598  0.00  0.00    +0.000 A 
ATOM     19  C   UNL     1      -2.420  13.237  20.774  0.00  0.00    +0.000 A 
ATOM     20  C   UNL     1      -3.662  13.730  21.176  0.00  0.00    +0.000 A 
ATOM     21  C   UNL     1      -4.210  13.357  22.412  0.00  0.00    +0.000 A 
ATOM     22  C   UNL     1      -3.511  12.448  23.222  0.00  0.00    +0.000 A 
ATOM     23  C   UNL     1      -2.271  11.956  22.819  0.00  0.00    +0.000 A 
BRANCH  21  24
ATOM     24  C   UNL     1      -5.512  13.941  22.898  0.00  0.00    +0.000 C 
ATOM     25  F   UNL     1      -5.700  15.239  22.527  0.00  0.00    +0.000 F 
ATOM     26  F   UNL     1      -6.597  13.259  22.439  0.00  0.00    +0.000 F 
ATOM     27  F   UNL     1      -5.609  13.926  24.257  0.00  0.00    +0.000 F 
ENDBRANCH  21  24
ENDBRANCH  17  18
ENDBRANCH  16  17
ENDBRANCH  13  16
ENDBRANCH   8  10
BRANCH   9  28
ATOM     28  C   UNL     1       1.904   4.735  19.211  0.00  0.00    +0.000 C 
ATOM     29  C   UNL     1       1.232   3.580  18.471  0.00  0.00    +0.000 C 
ATOM     30  C   UNL     1       0.745   2.678  19.599  0.00  0.00    +0.000 C 
ATOM     31  C   UNL     1       1.713   2.881  20.764  0.00  0.00    +0.000 C 
ATOM     32  C   UNL     1       2.584   4.081  20.414  0.00  0.00    +0.000 C 
ENDBRANCH   9  28
BRANCH   1  34
ATOM     33  O   UNL     1       6.625   4.002  13.616  0.00  0.00    +0.000 OA
ATOM     34  C   UNL     1       6.750   4.778  14.544  0.00  0.00    +0.000 C 
BRANCH  34  35
ATOM     35  O   UNL     1       7.861   5.513  14.753  0.00  0.00    +0.000 OA
ATOM     36  H   UNL     1       8.583   5.048  15.213  0.00  0.00    +0.000 HD
ENDBRANCH  34  35
ENDBRANCH   1  34
TORSDOF 8
ENDMDL
MODEL 6
REMARK VINA RESULT:      -9.4      2.603      3.166
REMARK  Name = 
REMARK  8 active torsions:
REMARK  status: ('A' for Active; 'I' for Inactive)
REMARK    1  A    between atoms: C_2  and  O_3
REMARK    2  A    between atoms: C_2  and  C_4
REMARK    3  A    between atoms: C_11  and  C_12
REMARK    4  A    between atoms: C_15  and  O_16
REMARK    5  A    between atoms: O_16  and  C_17
REMARK    6  A    between atoms: C_17  and  C_18
REMARK    7  A    between atoms: C_21  and  C_22
REMARK    8  A    between atoms: N_30  and  C_31
REMARK                            x       y       z     vdW  Elec       q    Type
REMARK                         _______ _______ _______ _____ _____    ______ ____
ROOT
ATOM      1  C   UNL     1       5.802   4.926  15.664  0.00  0.00    +0.000 A 
ATOM      2  C   UNL     1       5.279   3.799  16.308  0.00  0.00    +0.000 A 
ATOM      3  C   UNL     1       4.263   3.916  17.263  0.00  0.00    +0.000 A 
ATOM      4  C   UNL     1       3.788   5.203  17.550  0.00  0.00    +0.000 A 
ATOM      5  C   UNL     1       4.299   6.331  16.921  0.00  0.00    +0.000 A 
ATOM      6  C   UNL     1       5.307   6.207  15.954  0.00  0.00    +0.000 A 
ATOM      7  N   UNL     1       3.691   7.461  17.386  0.00  0.00    +0.000 NA
ATOM      8  C   UNL     1       2.834   7.080  18.321  0.00  0.00    +0.000 A 
ATOM      9  N   UNL     1       2.810   5.692  18.400  0.00  0.00    +0.000 N 
ENDROOT
BRANCH   8  10
ATOM     10  C   UNL     1       2.021   8.034  19.091  0.00  0.00    +0.000 A 
ATOM     11  C   UNL     1       1.829   7.797  20.459  0.00  0.00    +0.000 A 
ATOM     12  C   UNL     1       1.058   8.658  21.241  0.00  0.00    +0.000 A 
ATOM     13  C   UNL     1       0.491   9.799  20.677  0.00  0.00    +0.000 A 
ATOM     14  C   UNL     1       0.643  10.032  19.311  0.00  0.00    +0.000 A 
ATOM     15  C   UNL     1       1.377   9.142  18.522  0.00  0.00    +0.000 A 
BRANCH  13  16
ATOM     16  O   UNL     1      -0.239  10.734  21.356  0.00  0.00    +0.000 OA
BRANCH  16  17
ATOM     17  C   UNL     1      -1.071  11.568  20.549  0.00  0.00    +0.000 C 
BRANCH  17  18
ATOM     18  C   UNL     1      -1.810  12.506  21.464  0.00  0.00    +0.000 A 
ATOM     19  C   UNL     1      -2.092  12.145  22.786  0.00  0.00    +0.000 A 
ATOM     20  C   UNL     1      -2.838  12.996  23.603  0.00  0.00    +0.000 A 
ATOM     21  C   UNL     1      -3.320  14.216  23.107  0.00  0.00    +0.000 A 
ATOM     22  C   UNL     1      -3.009  14.589  21.790  0.00  0.00    +0.000 A 
ATOM     23  C   UNL     1      -2.265  13.737  20.975  0.00  0.00    +0.000 A 
BRANCH  21  24
ATOM     24  C   UNL     1      -4.193  15.111  23.949  0.00  0.00    +0.000 C 
ATOM     25  F   UNL     1      -3.747  15.263  25.227  0.00  0.00    +0.000 F 
ATOM     26  F   UNL     1      -4.305  16.368  23.439  0.00  0.00    +0.000 F 
ATOM     27  F   UNL     1      -5.467  14.636  24.055  0.00  0.00    +0.000 F 
ENDBRANCH  21  24
ENDBRANCH  17  18
ENDBRANCH  16  17
ENDBRANCH  13  16
ENDBRANCH   8  10
BRANCH   9  28
ATOM     28  C   UNL     1       1.928   4.886  19.220  0.00  0.00    +0.000 C 
ATOM     29  C   UNL     1       1.281   3.679  18.544  0.00  0.00    +0.000 C 
ATOM     30  C   UNL     1       0.790   2.841  19.719  0.00  0.00    +0.000 C 
ATOM     31  C   UNL     1       1.739   3.128  20.882  0.00  0.00    +0.000 C 
ATOM     32  C   UNL     1       2.600   4.315  20.470  0.00  0.00    +0.000 C 
ENDBRANCH   9  28
BRANCH   1  34
ATOM     33  O   UNL     1       7.808   5.458  14.515  0.00  0.00    +0.000 OA
ATOM     34  C   UNL     1       6.861   4.706  14.649  0.00  0.00    +0.000 C 
BRANCH  34  35
ATOM     35  O   UNL     1       6.641   3.639  13.854  0.00  0.00    +0.000 OA
ATOM     36  H   UNL     1       6.415   2.816  14.322  0.00  0.00    +0.000 HD
ENDBRANCH  34  35
ENDBRANCH   1  34
TORSDOF 8
ENDMDL
MODEL 7
REMARK VINA RESULT:      -9.4      2.751      3.529
REMARK  Name = 
REMARK  8 active torsions:
REMARK  status: ('A' for Active; 'I' for Inactive)
REMARK    1  A    between atoms: C_2  and  O_3
REMARK    2  A    between atoms: C_2  and  C_4
REMARK    3  A    between atoms: C_11  and  C_12
REMARK    4  A    between atoms: C_15  and  O_16
REMARK    5  A    between atoms: O_16  and  C_17
REMARK    6  A    between atoms: C_17  and  C_18
REMARK    7  A    between atoms: C_21  and  C_22
REMARK    8  A    between atoms: N_30  and  C_31
REMARK                            x       y       z     vdW  Elec       q    Type
REMARK                         _______ _______ _______ _____ _____    ______ ____
ROOT
ATOM      1  C   UNL     1       5.705   4.971  15.639  0.00  0.00    +0.000 A 
ATOM      2  C   UNL     1       5.193   3.833  16.270  0.00  0.00    +0.000 A 
ATOM      3  C   UNL     1       4.190   3.932  17.242  0.00  0.00    +0.000 A 
ATOM      4  C   UNL     1       3.719   5.213  17.560  0.00  0.00    +0.000 A 
ATOM      5  C   UNL     1       4.220   6.353  16.943  0.00  0.00    +0.000 A 
ATOM      6  C   UNL     1       5.213   6.246  15.959  0.00  0.00    +0.000 A 
ATOM      7  N   UNL     1       3.618   7.474  17.436  0.00  0.00    +0.000 NA
ATOM      8  C   UNL     1       2.775   7.076  18.377  0.00  0.00    +0.000 A 
ATOM      9  N   UNL     1       2.753   5.687  18.432  0.00  0.00    +0.000 N 
ENDROOT
BRANCH   8  10
ATOM     10  C   UNL     1       1.973   8.016  19.175  0.00  0.00    +0.000 A 
ATOM     11  C   UNL     1       1.447   9.150  18.540  0.00  0.00    +0.000 A 
ATOM     12  C   UNL     1       0.688  10.086  19.245  0.00  0.00    +0.000 A 
ATOM     13  C   UNL     1       0.407   9.888  20.595  0.00  0.00    +0.000 A 
ATOM     14  C   UNL     1       0.952   8.784  21.250  0.00  0.00    +0.000 A 
ATOM     15  C   UNL     1       1.750   7.873  20.551  0.00  0.00    +0.000 A 
BRANCH  13  16
ATOM     16  O   UNL     1      -0.362  10.710  21.369  0.00  0.00    +0.000 OA
BRANCH  16  17
ATOM     17  C   UNL     1      -1.033  11.760  20.670  0.00  0.00    +0.000 C 
BRANCH  17  18
ATOM     18  C   UNL     1      -1.702  12.640  21.691  0.00  0.00    +0.000 A 
ATOM     19  C   UNL     1      -3.016  13.081  21.505  0.00  0.00    +0.000 A 
ATOM     20  C   UNL     1      -3.601  13.953  22.425  0.00  0.00    +0.000 A 
ATOM     21  C   UNL     1      -2.877  14.403  23.538  0.00  0.00    +0.000 A 
ATOM     22  C   UNL     1      -1.569  13.934  23.737  0.00  0.00    +0.000 A 
ATOM     23  C   UNL     1      -0.986  13.064  22.817  0.00  0.00    +0.000 A 
BRANCH  21  24
ATOM     24  C   UNL     1      -3.464  15.406  24.498  0.00  0.00    +0.000 C 
ATOM     25  F   UNL     1      -4.826  15.407  24.521  0.00  0.00    +0.000 F 
ATOM     26  F   UNL     1      -3.068  15.197  25.784  0.00  0.00    +0.000 F 
ATOM     27  F   UNL     1      -3.097  16.684  24.198  0.00  0.00    +0.000 F 
ENDBRANCH  21  24
ENDBRANCH  17  18
ENDBRANCH  16  17
ENDBRANCH  13  16
ENDBRANCH   8  10
BRANCH   9  28
ATOM     28  C   UNL     1       1.884   4.866  19.251  0.00  0.00    +0.000 C 
ATOM     29  C   UNL     1       1.254   3.652  18.572  0.00  0.00    +0.000 C 
ATOM     30  C   UNL     1       0.776   2.804  19.746  0.00  0.00    +0.000 C 
ATOM     31  C   UNL     1       1.723   3.100  20.908  0.00  0.00    +0.000 C 
ATOM     32  C   UNL     1       2.566   4.301  20.498  0.00  0.00    +0.000 C 
ENDBRANCH   9  28
BRANCH   1  34
ATOM     33  O   UNL     1       6.636   3.958  13.706  0.00  0.00    +0.000 OA
ATOM     34  C   UNL     1       6.749   4.771  14.605  0.00  0.00    +0.000 C 
BRANCH  34  35
ATOM     35  O   UNL     1       7.853   5.523  14.791  0.00  0.00    +0.000 OA
ATOM     36  H   UNL     1       7.855   6.375  14.322  0.00  0.00    +0.000 HD
ENDBRANCH  34  35
ENDBRANCH   1  34
TORSDOF 8
ENDMDL
MODEL 8
REMARK VINA RESULT:      -9.4      3.924      4.751
REMARK  Name = 
REMARK  8 active torsions:
REMARK  status: ('A' for Active; 'I' for Inactive)
REMARK    1  A    between atoms: C_2  and  O_3
REMARK    2  A    between atoms: C_2  and  C_4
REMARK    3  A    between atoms: C_11  and  C_12
REMARK    4  A    between atoms: C_15  and  O_16
REMARK    5  A    between atoms: O_16  and  C_17
REMARK    6  A    between atoms: C_17  and  C_18
REMARK    7  A    between atoms: C_21  and  C_22
REMARK    8  A    between atoms: N_30  and  C_31
REMARK                            x       y       z     vdW  Elec       q    Type
REMARK                         _______ _______ _______ _____ _____    ______ ____
ROOT
ATOM      1  C   UNL     1       5.725   5.013  15.686  0.00  0.00    +0.000 A 
ATOM      2  C   UNL     1       5.269   3.958  16.483  0.00  0.00    +0.000 A 
ATOM      3  C   UNL     1       4.265   4.153  17.438  0.00  0.00    +0.000 A 
ATOM      4  C   UNL     1       3.733   5.443  17.565  0.00  0.00    +0.000 A 
ATOM      5  C   UNL     1       4.177   6.501  16.782  0.00  0.00    +0.000 A 
ATOM      6  C   UNL     1       5.173   6.297  15.817  0.00  0.00    +0.000 A 
ATOM      7  N   UNL     1       3.522   7.653  17.109  0.00  0.00    +0.000 NA
ATOM      8  C   UNL     1       2.701   7.359  18.106  0.00  0.00    +0.000 A 
ATOM      9  N   UNL     1       2.746   5.994  18.366  0.00  0.00    +0.000 N 
ENDROOT
BRANCH   8  10
ATOM     10  C   UNL     1       1.855   8.368  18.762  0.00  0.00    +0.000 A 
ATOM     11  C   UNL     1       1.725   8.325  20.157  0.00  0.00    +0.000 A 
ATOM     12  C   UNL     1       0.927   9.246  20.838  0.00  0.00    +0.000 A 
ATOM     13  C   UNL     1       0.271  10.257  20.138  0.00  0.00    +0.000 A 
ATOM     14  C   UNL     1       0.362  10.294  18.748  0.00  0.00    +0.000 A 
ATOM     15  C   UNL     1       1.124   9.341  18.066  0.00  0.00    +0.000 A 
BRANCH  13  16
ATOM     16  O   UNL     1      -0.493  11.238  20.704  0.00  0.00    +0.000 OA
BRANCH  16  17
ATOM     17  C   UNL     1       0.204  12.141  21.564  0.00  0.00    +0.000 C 
BRANCH  17  18
ATOM     18  C   UNL     1       0.862  13.184  20.702  0.00  0.00    +0.000 A 
ATOM     19  C   UNL     1       0.118  13.920  19.774  0.00  0.00    +0.000 A 
ATOM     20  C   UNL     1       0.752  14.836  18.933  0.00  0.00    +0.000 A 
ATOM     21  C   UNL     1       2.141  15.021  19.001  0.00  0.00    +0.000 A 
ATOM     22  C   UNL     1       2.879  14.303  19.955  0.00  0.00    +0.000 A 
ATOM     23  C   UNL     1       2.244  13.389  20.793  0.00  0.00    +0.000 A 
BRANCH  21  24
ATOM     24  C   UNL     1       2.852  15.947  18.048  0.00  0.00    +0.000 C 
ATOM     25  F   UNL     1       3.311  15.327  16.925  0.00  0.00    +0.000 F 
ATOM     26  F   UNL     1       2.061  16.967  17.617  0.00  0.00    +0.000 F 
ATOM     27  F   UNL     1       3.942  16.535  18.618  0.00  0.00    +0.000 F 
ENDBRANCH  21  24
ENDBRANCH  17  18
ENDBRANCH  16  17
ENDBRANCH  13  16
ENDBRANCH   8  10
BRANCH   9  28
ATOM     28  C   UNL     1       1.919   5.264  19.305  0.00  0.00    +0.000 C 
ATOM     29  C   UNL     1       1.296   3.964  18.798  0.00  0.00    +0.000 C 
ATOM     30  C   UNL     1       0.871   3.258  20.081  0.00  0.00    +0.000 C 
ATOM     31  C   UNL     1       1.843   3.712  21.169  0.00  0.00    +0.000 C 
ATOM     32  C   UNL     1       2.647   4.869  20.591  0.00  0.00    +0.000 C 
ENDBRANCH   9  28
BRANCH   1  34
ATOM     33  O   UNL     1       6.693   3.781  13.904  0.00  0.00    +0.000 OA
ATOM     34  C   UNL     1       6.777   4.711  14.684  0.00  0.00    +0.000 C 
BRANCH  34  35
ATOM     35  O   UNL     1       7.853   5.519  14.762  0.00  0.00    +0.000 OA
ATOM     36  H   UNL     1       8.142   5.905  13.916  0.00  0.00    +0.000 HD
ENDBRANCH  34  35
ENDBRANCH   1  34
TORSDOF 8
ENDMDL
MODEL 9
REMARK VINA RESULT:      -9.3      3.245      3.954
REMARK  Name = 
REMARK  8 active torsions:
REMARK  status: ('A' for Active; 'I' for Inactive)
REMARK    1  A    between atoms: C_2  and  O_3
REMARK    2  A    between atoms: C_2  and  C_4
REMARK    3  A    between atoms: C_11  and  C_12
REMARK    4  A    between atoms: C_15  and  O_16
REMARK    5  A    between atoms: O_16  and  C_17
REMARK    6  A    between atoms: C_17  and  C_18
REMARK    7  A    between atoms: C_21  and  C_22
REMARK    8  A    between atoms: N_30  and  C_31
REMARK                            x       y       z     vdW  Elec       q    Type
REMARK                         _______ _______ _______ _____ _____    ______ ____
ROOT
ATOM      1  C   UNL     1       5.679   5.011  15.798  0.00  0.00    +0.000 A 
ATOM      2  C   UNL     1       5.221   3.916  16.539  0.00  0.00    +0.000 A 
ATOM      3  C   UNL     1       4.219   4.063  17.506  0.00  0.00    +0.000 A 
ATOM      4  C   UNL     1       3.692   5.347  17.703  0.00  0.00    +0.000 A 
ATOM      5  C   UNL     1       4.137   6.443  16.975  0.00  0.00    +0.000 A 
ATOM      6  C   UNL     1       5.131   6.288  15.998  0.00  0.00    +0.000 A 
ATOM      7  N   UNL     1       3.487   7.578  17.364  0.00  0.00    +0.000 NA
ATOM      8  C   UNL     1       2.667   7.235  18.346  0.00  0.00    +0.000 A 
ATOM      9  N   UNL     1       2.709   5.857  18.534  0.00  0.00    +0.000 N 
ENDROOT
BRANCH   8  10
ATOM     10  C   UNL     1       1.826   8.210  19.057  0.00  0.00    +0.000 A 
ATOM     11  C   UNL     1       1.247   9.253  18.321  0.00  0.00    +0.000 A 
ATOM     12  C   UNL     1       0.449  10.218  18.939  0.00  0.00    +0.000 A 
ATOM     13  C   UNL     1       0.182  10.137  20.305  0.00  0.00    +0.000 A 
ATOM     14  C   UNL     1       0.778   9.125  21.057  0.00  0.00    +0.000 A 
ATOM     15  C   UNL     1       1.614   8.189  20.442  0.00  0.00    +0.000 A 
BRANCH  13  16
ATOM     16  O   UNL     1      -0.621  10.994  21.002  0.00  0.00    +0.000 OA
BRANCH  16  17
ATOM     17  C   UNL     1       0.056  12.038  21.702  0.00  0.00    +0.000 C 
BRANCH  17  18
ATOM     18  C   UNL     1       0.104  13.243  20.801  0.00  0.00    +0.000 A 
ATOM     19  C   UNL     1       1.302  13.639  20.199  0.00  0.00    +0.000 A 
ATOM     20  C   UNL     1       1.348  14.798  19.421  0.00  0.00    +0.000 A 
ATOM     21  C   UNL     1       0.197  15.581  19.243  0.00  0.00    +0.000 A 
ATOM     22  C   UNL     1      -1.009  15.163  19.825  0.00  0.00    +0.000 A 
ATOM     23  C   UNL     1      -1.053  14.006  20.601  0.00  0.00    +0.000 A 
BRANCH  21  24
ATOM     24  C   UNL     1       0.246  16.876  18.473  0.00  0.00    +0.000 C 
ATOM     25  F   UNL     1       1.373  17.022  17.721  0.00  0.00    +0.000 F 
ATOM     26  F   UNL     1      -0.800  17.015  17.613  0.00  0.00    +0.000 F 
ATOM     27  F   UNL     1       0.203  17.964  19.292  0.00  0.00    +0.000 F 
ENDBRANCH  21  24
ENDBRANCH  17  18
ENDBRANCH  16  17
ENDBRANCH  13  16
ENDBRANCH   8  10
BRANCH   9  28
ATOM     28  C   UNL     1       1.881   5.081  19.434  0.00  0.00    +0.000 C 
ATOM     29  C   UNL     1       1.293   3.787  18.876  0.00  0.00    +0.000 C 
ATOM     30  C   UNL     1       0.861   3.030  20.127  0.00  0.00    +0.000 C 
ATOM     31  C   UNL     1       1.806   3.467  21.245  0.00  0.00    +0.000 C 
ATOM     32  C   UNL     1       2.597   4.658  20.719  0.00  0.00    +0.000 C 
ENDBRANCH   9  28
BRANCH   1  34
ATOM     33  O   UNL     1       6.637   3.875  13.948  0.00  0.00    +0.000 OA
ATOM     34  C   UNL     1       6.727   4.759  14.779  0.00  0.00    +0.000 C 
BRANCH  34  35
ATOM     35  O   UNL     1       7.808   5.556  14.901  0.00  0.00    +0.000 OA
ATOM     36  H   UNL     1       7.650   6.498  14.712  0.00  0.00    +0.000 HD
ENDBRANCH  34  35
ENDBRANCH   1  34
TORSDOF 8
ENDMDL
