MODEL 1
REMARK VINA RESULT:      -9.0      0.000      0.000
REMARK  Name = 
REMARK  4 active torsions:
REMARK  status: ('A' for Active; 'I' for Inactive)
REMARK    1  A    between atoms: C_4  and  C_5
REMARK    2  A    between atoms: C_9  and  C_10
REMARK    3  A    between atoms: C_11  and  C_12
REMARK    4  A    between atoms: C_19  and  C_20
REMARK                            x       y       z     vdW  Elec       q    Type
REMARK                         _______ _______ _______ _____ _____    ______ ____
ROOT
ATOM      1  O   UNL     1       8.149   7.820  17.640  0.00  0.00    +0.000 OA
ATOM      2  C   UNL     1       7.287   7.047  17.266  0.00  0.00    +0.000 C 
ATOM      3  N   UNL     1       6.000   7.393  16.985  0.00  0.00    +0.000 N 
ATOM      4  C   UNL     1       5.203   6.245  16.693  0.00  0.00    +0.000 C 
ATOM      5  C   UNL     1       6.268   5.153  16.502  0.00  0.00    +0.000 C 
ATOM      6  O   UNL     1       7.469   5.710  17.077  0.00  0.00    +0.000 OA
ATOM      7  H   UNL     1       5.665   8.334  17.141  0.00  0.00    +0.000 HD
ENDROOT
BRANCH   5   8
ATOM      8  C   UNL     1       6.499   4.786  15.039  0.00  0.00    +0.000 A 
ATOM      9  C   UNL     1       5.674   3.870  14.360  0.00  0.00    +0.000 A 
ATOM     10  C   UNL     1       5.916   3.543  13.024  0.00  0.00    +0.000 A 
ATOM     11  C   UNL     1       6.985   4.126  12.358  0.00  0.00    +0.000 A 
ATOM     12  F   UNL     1       7.214   3.817  11.076  0.00  0.00    +0.000 F 
ATOM     13  C   UNL     1       7.819   5.029  13.006  0.00  0.00    +0.000 A 
ATOM     14  C   UNL     1       7.580   5.358  14.344  0.00  0.00    +0.000 A 
ENDBRANCH   5   8
BRANCH   4  15
ATOM     15  C   UNL     1       4.197   5.949  17.784  0.00  0.00    +0.000 A 
ATOM     16  C   UNL     1       3.971   4.628  18.168  0.00  0.00    +0.000 A 
ATOM     17  N   UNL     1       3.091   4.247  19.120  0.00  0.00    +0.000 NA
ATOM     18  C   UNL     1       2.392   5.231  19.734  0.00  0.00    +0.000 A 
ATOM     19  C   UNL     1       2.544   6.579  19.447  0.00  0.00    +0.000 A 
ATOM     20  C   UNL     1       3.464   6.939  18.460  0.00  0.00    +0.000 A 
BRANCH  19  21
ATOM     21  C   UNL     1       1.788   7.568  20.148  0.00  0.00    +0.000 C 
ATOM     22  C   UNL     1       1.180   8.430  20.727  0.00  0.00    +0.000 C 
BRANCH  22  23
ATOM     23  C   UNL     1       0.503   9.491  21.405  0.00  0.00    +0.000 A 
ATOM     24  C   UNL     1       0.534  10.793  20.897  0.00  0.00    +0.000 A 
ATOM     25  C   UNL     1      -0.161  11.812  21.552  0.00  0.00    +0.000 A 
ATOM     26  C   UNL     1      -0.883  11.534  22.713  0.00  0.00    +0.000 A 
ATOM     27  C   UNL     1      -0.904  10.238  23.228  0.00  0.00    +0.000 A 
ATOM     28  C   UNL     1      -0.210   9.218  22.576  0.00  0.00    +0.000 A 
ENDBRANCH  22  23
ENDBRANCH  19  21
ENDBRANCH   4  15
TORSDOF 4
ENDMDL
MODEL 2
REMARK VINA RESULT:      -8.9      4.874      7.358
REMARK  Name = 
REMARK  4 active torsions:
REMARK  status: ('A' for Active; 'I' for Inactive)
REMARK    1  A    between atoms: C_4  and  C_5
REMARK    2  A    between atoms: C_9  and  C_10
REMARK    3  A    between atoms: C_11  and  C_12
REMARK    4  A    between atoms: C_19  and  C_20
REMARK                            x       y       z     vdW  Elec       q    Type
REMARK                         _______ _______ _______ _____ _____    ______ ____
ROOT
ATOM      1  O   UNL     1       5.901   4.212  13.956  0.00  0.00    +0.000 OA
ATOM      2  C   UNL     1       5.680   4.409  15.136  0.00  0.00    +0.000 C 
ATOM      3  N   UNL     1       5.433   5.629  15.689  0.00  0.00    +0.000 N 
ATOM      4  C   UNL     1       5.337   5.547  17.111  0.00  0.00    +0.000 C 
ATOM      5  C   UNL     1       5.223   4.031  17.341  0.00  0.00    +0.000 C 
ATOM      6  O   UNL     1       5.651   3.441  16.094  0.00  0.00    +0.000 OA
ATOM      7  H   UNL     1       5.489   6.474  15.137  0.00  0.00    +0.000 HD
ENDROOT
BRANCH   5   8
ATOM      8  C   UNL     1       3.808   3.579  17.685  0.00  0.00    +0.000 A 
ATOM      9  C   UNL     1       3.500   2.232  17.956  0.00  0.00    +0.000 A 
ATOM     10  C   UNL     1       2.193   1.843  18.257  0.00  0.00    +0.000 A 
ATOM     11  C   UNL     1       1.184   2.796  18.286  0.00  0.00    +0.000 A 
ATOM     12  F   UNL     1      -0.068   2.425  18.579  0.00  0.00    +0.000 F 
ATOM     13  C   UNL     1       1.459   4.131  18.016  0.00  0.00    +0.000 A 
ATOM     14  C   UNL     1       2.766   4.523  17.714  0.00  0.00    +0.000 A 
ENDBRANCH   5   8
BRANCH   4  15
ATOM     15  C   UNL     1       6.515   6.195  17.806  0.00  0.00    +0.000 A 
ATOM     16  C   UNL     1       7.276   5.448  18.705  0.00  0.00    +0.000 A 
ATOM     17  N   UNL     1       8.339   5.926  19.389  0.00  0.00    +0.000 NA
ATOM     18  C   UNL     1       8.673   7.220  19.172  0.00  0.00    +0.000 A 
ATOM     19  C   UNL     1       8.001   8.053  18.291  0.00  0.00    +0.000 A 
ATOM     20  C   UNL     1       6.909   7.528  17.598  0.00  0.00    +0.000 A 
BRANCH  19  21
ATOM     21  C   UNL     1       8.421   9.405  18.094  0.00  0.00    +0.000 C 
ATOM     22  C   UNL     1       8.807  10.535  17.952  0.00  0.00    +0.000 C 
BRANCH  22  23
ATOM     23  C   UNL     1       9.306  11.869  17.827  0.00  0.00    +0.000 A 
ATOM     24  C   UNL     1       8.460  12.965  18.024  0.00  0.00    +0.000 A 
ATOM     25  C   UNL     1       8.969  14.262  17.933  0.00  0.00    +0.000 A 
ATOM     26  C   UNL     1      10.319  14.466  17.643  0.00  0.00    +0.000 A 
ATOM     27  C   UNL     1      11.160  13.374  17.435  0.00  0.00    +0.000 A 
ATOM     28  C   UNL     1      10.655  12.077  17.524  0.00  0.00    +0.000 A 
ENDBRANCH  22  23
ENDBRANCH  19  21
ENDBRANCH   4  15
TORSDOF 4
ENDMDL
MODEL 3
REMARK VINA RESULT:      -8.8      0.138      1.320
REMARK  Name = 
REMARK  4 active torsions:
REMARK  status: ('A' for Active; 'I' for Inactive)
REMARK    1  A    between atoms: C_4  and  C_5
REMARK    2  A    between atoms: C_9  and  C_10
REMARK    3  A    between atoms: C_11  and  C_12
REMARK    4  A    between atoms: C_19  and  C_20
REMARK                            x       y       z     vdW  Elec       q    Type
REMARK                         _______ _______ _______ _____ _____    ______ ____
ROOT
ATOM      1  O   UNL     1       8.225   7.670  17.767  0.00  0.00    +0.000 OA
ATOM      2  C   UNL     1       7.341   6.950  17.343  0.00  0.00    +0.000 C 
ATOM      3  N   UNL     1       6.085   7.367  17.020  0.00  0.00    +0.000 N 
ATOM      4  C   UNL     1       5.244   6.267  16.671  0.00  0.00    +0.000 C 
ATOM      5  C   UNL     1       6.260   5.127  16.496  0.00  0.00    +0.000 C 
ATOM      6  O   UNL     1       7.464   5.610  17.129  0.00  0.00    +0.000 OA
ATOM      7  H   UNL     1       5.792   8.321  17.184  0.00  0.00    +0.000 HD
ENDROOT
BRANCH   5   8
ATOM      8  C   UNL     1       6.530   4.780  15.035  0.00  0.00    +0.000 A 
ATOM      9  C   UNL     1       7.548   5.410  14.294  0.00  0.00    +0.000 A 
ATOM     10  C   UNL     1       7.766   5.082  12.955  0.00  0.00    +0.000 A 
ATOM     11  C   UNL     1       6.967   4.125  12.345  0.00  0.00    +0.000 A 
ATOM     12  F   UNL     1       7.178   3.807  11.061  0.00  0.00    +0.000 F 
ATOM     13  C   UNL     1       5.951   3.493  13.050  0.00  0.00    +0.000 A 
ATOM     14  C   UNL     1       5.730   3.819  14.391  0.00  0.00    +0.000 A 
ENDBRANCH   5   8
BRANCH   4  15
ATOM     15  C   UNL     1       4.182   6.000  17.716  0.00  0.00    +0.000 A 
ATOM     16  C   UNL     1       3.908   4.686  18.093  0.00  0.00    +0.000 A 
ATOM     17  N   UNL     1       2.975   4.330  19.004  0.00  0.00    +0.000 NA
ATOM     18  C   UNL     1       2.272   5.334  19.582  0.00  0.00    +0.000 A 
ATOM     19  C   UNL     1       2.469   6.676  19.297  0.00  0.00    +0.000 A 
ATOM     20  C   UNL     1       3.442   7.010  18.353  0.00  0.00    +0.000 A 
BRANCH  19  21
ATOM     21  C   UNL     1       1.705   7.686  19.960  0.00  0.00    +0.000 C 
ATOM     22  C   UNL     1       1.090   8.535  20.549  0.00  0.00    +0.000 C 
BRANCH  22  23
ATOM     23  C   UNL     1       0.392   9.534  21.297  0.00  0.00    +0.000 A 
ATOM     24  C   UNL     1      -0.188   9.222  22.530  0.00  0.00    +0.000 A 
ATOM     25  C   UNL     1      -0.837  10.216  23.265  0.00  0.00    +0.000 A 
ATOM     26  C   UNL     1      -0.910  11.519  22.770  0.00  0.00    +0.000 A 
ATOM     27  C   UNL     1      -0.342  11.828  21.535  0.00  0.00    +0.000 A 
ATOM     28  C   UNL     1       0.306  10.837  20.798  0.00  0.00    +0.000 A 
ENDBRANCH  22  23
ENDBRANCH  19  21
ENDBRANCH   4  15
TORSDOF 4
ENDMDL
MODEL 4
REMARK VINA RESULT:      -8.6      4.382      8.366
REMARK  Name = 
REMARK  4 active torsions:
REMARK  status: ('A' for Active; 'I' for Inactive)
REMARK    1  A    between atoms: C_4  and  C_5
REMARK    2  A    between atoms: C_9  and  C_10
REMARK    3  A    between atoms: C_11  and  C_12
REMARK    4  A    between atoms: C_19  and  C_20
REMARK                            x       y       z     vdW  Elec       q    Type
REMARK                         _______ _______ _______ _____ _____    ______ ____
ROOT
ATOM      1  O   UNL     1       1.840   3.754  19.007  0.00  0.00    +0.000 OA
ATOM      2  C   UNL     1       2.303   4.867  18.848  0.00  0.00    +0.000 C 
ATOM      3  N   UNL     1       2.660   5.398  17.646  0.00  0.00    +0.000 N 
ATOM      4  C   UNL     1       3.287   6.671  17.803  0.00  0.00    +0.000 C 
ATOM      5  C   UNL     1       2.963   7.013  19.267  0.00  0.00    +0.000 C 
ATOM      6  O   UNL     1       2.547   5.759  19.850  0.00  0.00    +0.000 OA
ATOM      7  H   UNL     1       2.617   4.849  16.798  0.00  0.00    +0.000 HD
ENDROOT
BRANCH   5   8
ATOM      8  C   UNL     1       1.862   8.058  19.412  0.00  0.00    +0.000 A 
ATOM      9  C   UNL     1       1.155   8.236  20.616  0.00  0.00    +0.000 A 
ATOM     10  C   UNL     1       0.143   9.192  20.718  0.00  0.00    +0.000 A 
ATOM     11  C   UNL     1      -0.173   9.975  19.617  0.00  0.00    +0.000 A 
ATOM     12  F   UNL     1      -1.140  10.896  19.715  0.00  0.00    +0.000 F 
ATOM     13  C   UNL     1       0.503   9.816  18.414  0.00  0.00    +0.000 A 
ATOM     14  C   UNL     1       1.517   8.859  18.308  0.00  0.00    +0.000 A 
ENDBRANCH   5   8
BRANCH   4  15
ATOM     15  C   UNL     1       4.766   6.628  17.487  0.00  0.00    +0.000 A 
ATOM     16  C   UNL     1       5.281   5.551  16.765  0.00  0.00    +0.000 A 
ATOM     17  N   UNL     1       6.584   5.403  16.438  0.00  0.00    +0.000 NA
ATOM     18  C   UNL     1       7.431   6.378  16.846  0.00  0.00    +0.000 A 
ATOM     19  C   UNL     1       7.031   7.500  17.554  0.00  0.00    +0.000 A 
ATOM     20  C   UNL     1       5.677   7.625  17.874  0.00  0.00    +0.000 A 
BRANCH  19  21
ATOM     21  C   UNL     1       7.975   8.503  17.935  0.00  0.00    +0.000 C 
ATOM     22  C   UNL     1       8.739   9.367  18.277  0.00  0.00    +0.000 C 
BRANCH  22  23
ATOM     23  C   UNL     1       9.601  10.425  18.702  0.00  0.00    +0.000 A 
ATOM     24  C   UNL     1       9.721  10.743  20.058  0.00  0.00    +0.000 A 
ATOM     25  C   UNL     1      10.593  11.756  20.461  0.00  0.00    +0.000 A 
ATOM     26  C   UNL     1      11.343  12.454  19.513  0.00  0.00    +0.000 A 
ATOM     27  C   UNL     1      11.215  12.146  18.159  0.00  0.00    +0.000 A 
ATOM     28  C   UNL     1      10.344  11.135  17.753  0.00  0.00    +0.000 A 
ENDBRANCH  22  23
ENDBRANCH  19  21
ENDBRANCH   4  15
TORSDOF 4
ENDMDL
MODEL 5
REMARK VINA RESULT:      -8.5      6.693     11.117
REMARK  Name = 
REMARK  4 active torsions:
REMARK  status: ('A' for Active; 'I' for Inactive)
REMARK    1  A    between atoms: C_4  and  C_5
REMARK    2  A    between atoms: C_9  and  C_10
REMARK    3  A    between atoms: C_11  and  C_12
REMARK    4  A    between atoms: C_19  and  C_20
REMARK                            x       y       z     vdW  Elec       q    Type
REMARK                         _______ _______ _______ _____ _____    ______ ____
ROOT
ATOM      1  O   UNL     1      -2.905  10.255  14.680  0.00  0.00    +0.000 OA
ATOM      2  C   UNL     1      -2.894  10.646  15.832  0.00  0.00    +0.000 C 
ATOM      3  N   UNL     1      -2.033  11.575  16.331  0.00  0.00    +0.000 N 
ATOM      4  C   UNL     1      -2.189  11.728  17.742  0.00  0.00    +0.000 C 
ATOM      5  C   UNL     1      -3.516  10.996  18.001  0.00  0.00    +0.000 C 
ATOM      6  O   UNL     1      -3.737  10.210  16.810  0.00  0.00    +0.000 OA
ATOM      7  H   UNL     1      -1.287  11.955  15.763  0.00  0.00    +0.000 HD
ENDROOT
BRANCH   5   8
ATOM      8  C   UNL     1      -4.689  11.942  18.239  0.00  0.00    +0.000 A 
ATOM      9  C   UNL     1      -4.945  12.510  19.501  0.00  0.00    +0.000 A 
ATOM     10  C   UNL     1      -6.033  13.363  19.694  0.00  0.00    +0.000 A 
ATOM     11  C   UNL     1      -6.875  13.652  18.629  0.00  0.00    +0.000 A 
ATOM     12  F   UNL     1      -7.916  14.474  18.813  0.00  0.00    +0.000 F 
ATOM     13  C   UNL     1      -6.650  13.100  17.375  0.00  0.00    +0.000 A 
ATOM     14  C   UNL     1      -5.561  12.244  17.178  0.00  0.00    +0.000 A 
ENDBRANCH   5   8
BRANCH   4  15
ATOM     15  C   UNL     1      -1.012  11.174  18.515  0.00  0.00    +0.000 A 
ATOM     16  C   UNL     1      -0.699  11.709  19.763  0.00  0.00    +0.000 A 
ATOM     17  N   UNL     1       0.334  11.302  20.534  0.00  0.00    +0.000 NA
ATOM     18  C   UNL     1       1.104  10.301  20.043  0.00  0.00    +0.000 A 
ATOM     19  C   UNL     1       0.880   9.683  18.823  0.00  0.00    +0.000 A 
ATOM     20  C   UNL     1      -0.197  10.126  18.053  0.00  0.00    +0.000 A 
BRANCH  19  21
ATOM     21  C   UNL     1       1.720   8.618  18.375  0.00  0.00    +0.000 C 
ATOM     22  C   UNL     1       2.428   7.706  18.036  0.00  0.00    +0.000 C 
BRANCH  22  23
ATOM     23  C   UNL     1       3.277   6.609  17.691  0.00  0.00    +0.000 A 
ATOM     24  C   UNL     1       2.840   5.292  17.857  0.00  0.00    +0.000 A 
ATOM     25  C   UNL     1       3.667   4.231  17.483  0.00  0.00    +0.000 A 
ATOM     26  C   UNL     1       4.931   4.484  16.947  0.00  0.00    +0.000 A 
ATOM     27  C   UNL     1       5.373   5.797  16.792  0.00  0.00    +0.000 A 
ATOM     28  C   UNL     1       4.549   6.859  17.166  0.00  0.00    +0.000 A 
ENDBRANCH  22  23
ENDBRANCH  19  21
ENDBRANCH   4  15
TORSDOF 4
ENDMDL
MODEL 6
REMARK VINA RESULT:      -8.5      4.389      8.357
REMARK  Name = 
REMARK  4 active torsions:
REMARK  status: ('A' for Active; 'I' for Inactive)
REMARK    1  A    between atoms: C_4  and  C_5
REMARK    2  A    between atoms: C_9  and  C_10
REMARK    3  A    between atoms: C_11  and  C_12
REMARK    4  A    between atoms: C_19  and  C_20
REMARK                            x       y       z     vdW  Elec       q    Type
REMARK                         _______ _______ _______ _____ _____    ______ ____
ROOT
ATOM      1  O   UNL     1       1.893   3.563  18.844  0.00  0.00    +0.000 OA
ATOM      2  C   UNL     1       2.354   4.687  18.780  0.00  0.00    +0.000 C 
ATOM      3  N   UNL     1       2.684   5.329  17.625  0.00  0.00    +0.000 N 
ATOM      4  C   UNL     1       3.314   6.583  17.886  0.00  0.00    +0.000 C 
ATOM      5  C   UNL     1       3.023   6.785  19.382  0.00  0.00    +0.000 C 
ATOM      6  O   UNL     1       2.619   5.482  19.854  0.00  0.00    +0.000 OA
ATOM      7  H   UNL     1       2.622   4.861  16.730  0.00  0.00    +0.000 HD
ENDROOT
BRANCH   5   8
ATOM      8  C   UNL     1       1.926   7.811  19.648  0.00  0.00    +0.000 A 
ATOM      9  C   UNL     1       1.503   8.725  18.664  0.00  0.00    +0.000 A 
ATOM     10  C   UNL     1       0.505   9.661  18.938  0.00  0.00    +0.000 A 
ATOM     11  C   UNL     1      -0.076   9.694  20.199  0.00  0.00    +0.000 A 
ATOM     12  F   UNL     1      -1.037  10.589  20.461  0.00  0.00    +0.000 F 
ATOM     13  C   UNL     1       0.326   8.809  21.190  0.00  0.00    +0.000 A 
ATOM     14  C   UNL     1       1.326   7.870  20.919  0.00  0.00    +0.000 A 
ENDBRANCH   5   8
BRANCH   4  15
ATOM     15  C   UNL     1       4.786   6.571  17.535  0.00  0.00    +0.000 A 
ATOM     16  C   UNL     1       5.301   5.521  16.775  0.00  0.00    +0.000 A 
ATOM     17  N   UNL     1       6.599   5.402  16.414  0.00  0.00    +0.000 NA
ATOM     18  C   UNL     1       7.439   6.382  16.825  0.00  0.00    +0.000 A 
ATOM     19  C   UNL     1       7.038   7.480  17.570  0.00  0.00    +0.000 A 
ATOM     20  C   UNL     1       5.690   7.574  17.924  0.00  0.00    +0.000 A 
BRANCH  19  21
ATOM     21  C   UNL     1       7.974   8.489  17.953  0.00  0.00    +0.000 C 
ATOM     22  C   UNL     1       8.731   9.363  18.286  0.00  0.00    +0.000 C 
BRANCH  22  23
ATOM     23  C   UNL     1       9.583  10.439  18.687  0.00  0.00    +0.000 A 
ATOM     24  C   UNL     1      10.270  11.194  17.733  0.00  0.00    +0.000 A 
ATOM     25  C   UNL     1      11.072  12.263  18.137  0.00  0.00    +0.000 A 
ATOM     26  C   UNL     1      11.191  12.577  19.492  0.00  0.00    +0.000 A 
ATOM     27  C   UNL     1      10.516  11.816  20.445  0.00  0.00    +0.000 A 
ATOM     28  C   UNL     1       9.714  10.747  20.044  0.00  0.00    +0.000 A 
ENDBRANCH  22  23
ENDBRANCH  19  21
ENDBRANCH   4  15
TORSDOF 4
ENDMDL
MODEL 7
REMARK VINA RESULT:      -8.4      4.854      7.322
REMARK  Name = 
REMARK  4 active torsions:
REMARK  status: ('A' for Active; 'I' for Inactive)
REMARK    1  A    between atoms: C_4  and  C_5
REMARK    2  A    between atoms: C_9  and  C_10
REMARK    3  A    between atoms: C_11  and  C_12
REMARK    4  A    between atoms: C_19  and  C_20
REMARK                            x       y       z     vdW  Elec       q    Type
REMARK                         _______ _______ _______ _____ _____    ______ ____
ROOT
ATOM      1  O   UNL     1       5.685   4.966  13.715  0.00  0.00    +0.000 OA
ATOM      2  C   UNL     1       5.527   5.003  14.921  0.00  0.00    +0.000 C 
ATOM      3  N   UNL     1       5.295   6.134  15.642  0.00  0.00    +0.000 N 
ATOM      4  C   UNL     1       5.279   5.866  17.044  0.00  0.00    +0.000 C 
ATOM      5  C   UNL     1       5.198   4.331  17.078  0.00  0.00    +0.000 C 
ATOM      6  O   UNL     1       5.563   3.917  15.744  0.00  0.00    +0.000 OA
ATOM      7  H   UNL     1       5.309   7.046  15.204  0.00  0.00    +0.000 HD
ENDROOT
BRANCH   5   8
ATOM      8  C   UNL     1       3.809   3.809  17.435  0.00  0.00    +0.000 A 
ATOM      9  C   UNL     1       2.703   4.668  17.579  0.00  0.00    +0.000 A 
ATOM     10  C   UNL     1       1.446   4.164  17.918  0.00  0.00    +0.000 A 
ATOM     11  C   UNL     1       1.285   2.800  18.119  0.00  0.00    +0.000 A 
ATOM     12  F   UNL     1       0.079   2.316  18.440  0.00  0.00    +0.000 F 
ATOM     13  C   UNL     1       2.361   1.931  17.989  0.00  0.00    +0.000 A 
ATOM     14  C   UNL     1       3.622   2.432  17.650  0.00  0.00    +0.000 A 
ENDBRANCH   5   8
BRANCH   4  15
ATOM     15  C   UNL     1       6.485   6.441  17.755  0.00  0.00    +0.000 A 
ATOM     16  C   UNL     1       7.195   5.644  18.653  0.00  0.00    +0.000 A 
ATOM     17  N   UNL     1       8.277   6.056  19.351  0.00  0.00    +0.000 NA
ATOM     18  C   UNL     1       8.685   7.332  19.148  0.00  0.00    +0.000 A 
ATOM     19  C   UNL     1       8.067   8.208  18.270  0.00  0.00    +0.000 A 
ATOM     20  C   UNL     1       6.954   7.751  17.563  0.00  0.00    +0.000 A 
BRANCH  19  21
ATOM     21  C   UNL     1       8.564   9.536  18.089  0.00  0.00    +0.000 C 
ATOM     22  C   UNL     1       8.947  10.669  17.956  0.00  0.00    +0.000 C 
BRANCH  22  23
ATOM     23  C   UNL     1       9.351  12.033  17.817  0.00  0.00    +0.000 A 
ATOM     24  C   UNL     1      10.695  12.360  17.618  0.00  0.00    +0.000 A 
ATOM     25  C   UNL     1      11.069  13.694  17.449  0.00  0.00    +0.000 A 
ATOM     26  C   UNL     1      10.105  14.702  17.482  0.00  0.00    +0.000 A 
ATOM     27  C   UNL     1       8.765  14.378  17.693  0.00  0.00    +0.000 A 
ATOM     28  C   UNL     1       8.388  13.046  17.862  0.00  0.00    +0.000 A 
ENDBRANCH  22  23
ENDBRANCH  19  21
ENDBRANCH   4  15
TORSDOF 4
ENDMDL
MODEL 8
REMARK VINA RESULT:      -8.4      3.074      4.764
REMARK  Name = 
REMARK  4 active torsions:
REMARK  status: ('A' for Active; 'I' for Inactive)
REMARK    1  A    between atoms: C_4  and  C_5
REMARK    2  A    between atoms: C_9  and  C_10
REMARK    3  A    between atoms: C_11  and  C_12
REMARK    4  A    between atoms: C_19  and  C_20
REMARK                            x       y       z     vdW  Elec       q    Type
REMARK                         _______ _______ _______ _____ _____    ______ ____
ROOT
ATOM      1  O   UNL     1       1.108   4.030  20.563  0.00  0.00    +0.000 OA
ATOM      2  C   UNL     1       1.728   4.880  19.952  0.00  0.00    +0.000 C 
ATOM      3  N   UNL     1       2.180   6.049  20.486  0.00  0.00    +0.000 N 
ATOM      4  C   UNL     1       2.761   6.888  19.488  0.00  0.00    +0.000 C 
ATOM      5  C   UNL     1       2.911   5.922  18.301  0.00  0.00    +0.000 C 
ATOM      6  O   UNL     1       2.065   4.801  18.634  0.00  0.00    +0.000 OA
ATOM      7  H   UNL     1       1.957   6.310  21.437  0.00  0.00    +0.000 HD
ENDROOT
BRANCH   5   8
ATOM      8  C   UNL     1       4.347   5.457  18.081  0.00  0.00    +0.000 A 
ATOM      9  C   UNL     1       4.757   4.838  16.886  0.00  0.00    +0.000 A 
ATOM     10  C   UNL     1       6.075   4.411  16.715  0.00  0.00    +0.000 A 
ATOM     11  C   UNL     1       6.993   4.597  17.740  0.00  0.00    +0.000 A 
ATOM     12  F   UNL     1       8.259   4.191  17.576  0.00  0.00    +0.000 F 
ATOM     13  C   UNL     1       6.615   5.199  18.933  0.00  0.00    +0.000 A 
ATOM     14  C   UNL     1       5.295   5.627  19.107  0.00  0.00    +0.000 A 
ENDBRANCH   5   8
BRANCH   4  15
ATOM     15  C   UNL     1       1.912   8.106  19.195  0.00  0.00    +0.000 A 
ATOM     16  C   UNL     1       1.726   8.510  17.873  0.00  0.00    +0.000 A 
ATOM     17  N   UNL     1       1.000   9.586  17.495  0.00  0.00    +0.000 NA
ATOM     18  C   UNL     1       0.420  10.307  18.484  0.00  0.00    +0.000 A 
ATOM     19  C   UNL     1       0.522   9.993  19.830  0.00  0.00    +0.000 A 
ATOM     20  C   UNL     1       1.277   8.873  20.186  0.00  0.00    +0.000 A 
BRANCH  19  21
ATOM     21  C   UNL     1      -0.135  10.786  20.821  0.00  0.00    +0.000 C 
ATOM     22  C   UNL     1      -0.698  11.481  21.625  0.00  0.00    +0.000 C 
BRANCH  22  23
ATOM     23  C   UNL     1      -1.374  12.348  22.539  0.00  0.00    +0.000 A 
ATOM     24  C   UNL     1      -0.830  13.592  22.872  0.00  0.00    +0.000 A 
ATOM     25  C   UNL     1      -1.518  14.443  23.739  0.00  0.00    +0.000 A 
ATOM     26  C   UNL     1      -2.745  14.053  24.276  0.00  0.00    +0.000 A 
ATOM     27  C   UNL     1      -3.283  12.807  23.955  0.00  0.00    +0.000 A 
ATOM     28  C   UNL     1      -2.597  11.955  23.089  0.00  0.00    +0.000 A 
ENDBRANCH  22  23
ENDBRANCH  19  21
ENDBRANCH   4  15
TORSDOF 4
ENDMDL
MODEL 9
REMARK VINA RESULT:      -8.3      6.500     10.874
REMARK  Name = 
REMARK  4 active torsions:
REMARK  status: ('A' for Active; 'I' for Inactive)
REMARK    1  A    between atoms: C_4  and  C_5
REMARK    2  A    between atoms: C_9  and  C_10
REMARK    3  A    between atoms: C_11  and  C_12
REMARK    4  A    between atoms: C_19  and  C_20
REMARK                            x       y       z     vdW  Elec       q    Type
REMARK                         _______ _______ _______ _____ _____    ______ ____
ROOT
ATOM      1  O   UNL     1      -2.940  10.132  14.628  0.00  0.00    +0.000 OA
ATOM      2  C   UNL     1      -2.807  10.471  15.789  0.00  0.00    +0.000 C 
ATOM      3  N   UNL     1      -2.088  11.550  16.208  0.00  0.00    +0.000 N 
ATOM      4  C   UNL     1      -2.019  11.610  17.632  0.00  0.00    +0.000 C 
ATOM      5  C   UNL     1      -3.092  10.591  18.051  0.00  0.00    +0.000 C 
ATOM      6  O   UNL     1      -3.349   9.822  16.857  0.00  0.00    +0.000 OA
ATOM      7  H   UNL     1      -1.554  12.108  15.555  0.00  0.00    +0.000 HD
ENDROOT
BRANCH   5   8
ATOM      8  C   UNL     1      -4.377  11.241  18.552  0.00  0.00    +0.000 A 
ATOM      9  C   UNL     1      -4.365  12.387  19.370  0.00  0.00    +0.000 A 
ATOM     10  C   UNL     1      -5.556  12.955  19.825  0.00  0.00    +0.000 A 
ATOM     11  C   UNL     1      -6.769  12.381  19.468  0.00  0.00    +0.000 A 
ATOM     12  F   UNL     1      -7.912  12.928  19.900  0.00  0.00    +0.000 F 
ATOM     13  C   UNL     1      -6.810  11.247  18.668  0.00  0.00    +0.000 A 
ATOM     14  C   UNL     1      -5.619  10.675  18.211  0.00  0.00    +0.000 A 
ENDBRANCH   5   8
BRANCH   4  15
ATOM     15  C   UNL     1      -0.632  11.303  18.155  0.00  0.00    +0.000 A 
ATOM     16  C   UNL     1       0.053  12.271  18.887  0.00  0.00    +0.000 A 
ATOM     17  N   UNL     1       1.298  12.112  19.391  0.00  0.00    +0.000 NA
ATOM     18  C   UNL     1       1.902  10.921  19.159  0.00  0.00    +0.000 A 
ATOM     19  C   UNL     1       1.312   9.881  18.458  0.00  0.00    +0.000 A 
ATOM     20  C   UNL     1       0.025  10.078  17.954  0.00  0.00    +0.000 A 
BRANCH  19  21
ATOM     21  C   UNL     1       1.999   8.642  18.268  0.00  0.00    +0.000 C 
ATOM     22  C   UNL     1       2.540   7.582  18.096  0.00  0.00    +0.000 C 
BRANCH  22  23
ATOM     23  C   UNL     1       3.130   6.296  17.888  0.00  0.00    +0.000 A 
ATOM     24  C   UNL     1       4.428   6.185  17.382  0.00  0.00    +0.000 A 
ATOM     25  C   UNL     1       5.005   4.923  17.216  0.00  0.00    +0.000 A 
ATOM     26  C   UNL     1       4.286   3.775  17.552  0.00  0.00    +0.000 A 
ATOM     27  C   UNL     1       2.987   3.885  18.045  0.00  0.00    +0.000 A 
ATOM     28  C   UNL     1       2.408   5.144  18.212  0.00  0.00    +0.000 A 
ENDBRANCH  22  23
ENDBRANCH  19  21
ENDBRANCH   4  15
TORSDOF 4
ENDMDL
