MODEL 1
REMARK VINA RESULT:      -7.9      0.000      0.000
REMARK  Name = 
REMARK  5 active torsions:
REMARK  status: ('A' for Active; 'I' for Inactive)
REMARK    1  A    between atoms: C_1  and  O_2
REMARK    2  A    between atoms: O_2  and  C_3
REMARK    3  A    between atoms: C_9  and  C_10
REMARK    4  A    between atoms: C_19  and  C_21
REMARK    5  A    between atoms: N_29  and  C_30
REMARK                            x       y       z     vdW  Elec       q    Type
REMARK                         _______ _______ _______ _____ _____    ______ ____
ROOT
ATOM      1  C   UNL     1      -1.975  12.562  19.971  0.00  0.00    +0.000 A 
ATOM      2  N   UNL     1      -3.085  12.682  19.265  0.00  0.00    +0.000 NA
ATOM      3  C   UNL     1      -3.044  11.702  18.320  0.00  0.00    +0.000 A 
ATOM      4  C   UNL     1      -3.986  11.404  17.324  0.00  0.00    +0.000 A 
ATOM      5  C   UNL     1      -3.707  10.383  16.409  0.00  0.00    +0.000 A 
ATOM      6  C   UNL     1      -2.515   9.668  16.492  0.00  0.00    +0.000 A 
ATOM      7  C   UNL     1      -1.571   9.944  17.487  0.00  0.00    +0.000 A 
ATOM      8  C   UNL     1      -1.871  10.959  18.413  0.00  0.00    +0.000 A 
ATOM      9  N   UNL     1      -1.180  11.529  19.484  0.00  0.00    +0.000 N 
ATOM     10  C   UNL     1       0.116  11.188  19.914  0.00  0.00    +0.000 C 
ATOM     11  O   UNL     1       0.856  12.102  20.270  0.00  0.00    +0.000 OA
ENDROOT
BRANCH   1  18
ATOM     12  C   UNL     1      -4.102  12.864  24.155  0.00  0.00    +0.000 A 
ATOM     13  C   UNL     1      -3.500  13.806  24.985  0.00  0.00    +0.000 A 
ATOM     14  C   UNL     1      -2.406  14.562  24.553  0.00  0.00    +0.000 A 
ATOM     15  C   UNL     1      -1.918  14.336  23.260  0.00  0.00    +0.000 A 
ATOM     16  C   UNL     1      -2.479  13.379  22.407  0.00  0.00    +0.000 A 
ATOM     17  C   UNL     1      -3.590  12.641  22.871  0.00  0.00    +0.000 A 
ATOM     18  C   UNL     1      -1.742  13.419  21.183  0.00  0.00    +0.000 A 
ATOM     19  C   UNL     1      -0.746  14.359  21.336  0.00  0.00    +0.000 A 
ATOM     20  N   UNL     1      -0.878  14.924  22.576  0.00  0.00    +0.000 N 
ATOM     21  C   UNL     1      -0.037  15.978  23.095  0.00  0.00    +0.000 C 
BRANCH  12  23
ATOM     22  C   UNL     1      -6.447  12.574  24.128  0.00  0.00    +0.000 C 
ATOM     23  O   UNL     1      -5.167  12.079  24.509  0.00  0.00    +0.000 OA
ENDBRANCH  12  23
ENDBRANCH   1  18
BRANCH  10  24
ATOM     24  C   UNL     1       0.658   9.809  19.989  0.00  0.00    +0.000 A 
ATOM     25  C   UNL     1       0.474   9.019  21.131  0.00  0.00    +0.000 A 
ATOM     26  C   UNL     1       1.086   7.766  21.215  0.00  0.00    +0.000 A 
ATOM     27  C   UNL     1       1.903   7.319  20.178  0.00  0.00    +0.000 A 
ATOM     28  C   UNL     1       2.093   8.108  19.047  0.00  0.00    +0.000 A 
ATOM     29 BR   UNL     1       3.230   7.511  17.662  0.00  0.00    +0.000 Br
ATOM     30  C   UNL     1       1.468   9.351  18.942  0.00  0.00    +0.000 A 
ENDBRANCH  10  24
TORSDOF 3
ENDMDL
MODEL 2
REMARK VINA RESULT:      -7.6      2.600      5.226
REMARK  Name = 
REMARK  5 active torsions:
REMARK  status: ('A' for Active; 'I' for Inactive)
REMARK    1  A    between atoms: C_1  and  O_2
REMARK    2  A    between atoms: O_2  and  C_3
REMARK    3  A    between atoms: C_9  and  C_10
REMARK    4  A    between atoms: C_19  and  C_21
REMARK    5  A    between atoms: N_29  and  C_30
REMARK                            x       y       z     vdW  Elec       q    Type
REMARK                         _______ _______ _______ _____ _____    ______ ____
ROOT
ATOM      1  C   UNL     1      -3.251  14.064  22.017  0.00  0.00    +0.000 A 
ATOM      2  N   UNL     1      -2.957  15.299  21.650  0.00  0.00    +0.000 NA
ATOM      3  C   UNL     1      -1.601  15.349  21.532  0.00  0.00    +0.000 A 
ATOM      4  C   UNL     1      -0.792  16.436  21.166  0.00  0.00    +0.000 A 
ATOM      5  C   UNL     1       0.598  16.280  21.174  0.00  0.00    +0.000 A 
ATOM      6  C   UNL     1       1.169  15.061  21.529  0.00  0.00    +0.000 A 
ATOM      7  C   UNL     1       0.377  13.964  21.884  0.00  0.00    +0.000 A 
ATOM      8  C   UNL     1      -1.020  14.127  21.855  0.00  0.00    +0.000 A 
ATOM      9  N   UNL     1      -2.099  13.300  22.174  0.00  0.00    +0.000 N 
ATOM     10  C   UNL     1      -2.021  11.983  22.663  0.00  0.00    +0.000 C 
ATOM     11  O   UNL     1      -2.819  11.652  23.536  0.00  0.00    +0.000 OA
ENDROOT
BRANCH   1  18
ATOM     12  C   UNL     1      -6.038  11.466  19.259  0.00  0.00    +0.000 A 
ATOM     13  C   UNL     1      -7.307  11.293  19.805  0.00  0.00    +0.000 A 
ATOM     14  C   UNL     1      -7.657  11.876  21.027  0.00  0.00    +0.000 A 
ATOM     15  C   UNL     1      -6.687  12.630  21.700  0.00  0.00    +0.000 A 
ATOM     16  C   UNL     1      -5.393  12.802  21.195  0.00  0.00    +0.000 A 
ATOM     17  C   UNL     1      -5.077  12.210  19.953  0.00  0.00    +0.000 A 
ATOM     18  C   UNL     1      -4.681  13.619  22.128  0.00  0.00    +0.000 A 
ATOM     19  C   UNL     1      -5.538  13.886  23.175  0.00  0.00    +0.000 A 
ATOM     20  N   UNL     1      -6.748  13.311  22.894  0.00  0.00    +0.000 N 
ATOM     21  C   UNL     1      -7.917  13.399  23.739  0.00  0.00    +0.000 C 
BRANCH  12  23
ATOM     22  C   UNL     1      -4.935  11.811  17.197  0.00  0.00    +0.000 C 
ATOM     23  O   UNL     1      -5.617  10.921  18.075  0.00  0.00    +0.000 OA
ENDBRANCH  12  23
ENDBRANCH   1  18
BRANCH  10  24
ATOM     24  C   UNL     1      -1.063  10.952  22.196  0.00  0.00    +0.000 A 
ATOM     25  C   UNL     1      -0.370  10.139  23.104  0.00  0.00    +0.000 A 
ATOM     26  C   UNL     1       0.603   9.252  22.639  0.00  0.00    +0.000 A 
ATOM     27  C   UNL     1       0.907   9.199  21.280  0.00  0.00    +0.000 A 
ATOM     28  C   UNL     1       0.226  10.012  20.379  0.00  0.00    +0.000 A 
ATOM     29 BR   UNL     1       0.668   9.961  18.544  0.00  0.00    +0.000 Br
ATOM     30  C   UNL     1      -0.765  10.886  20.828  0.00  0.00    +0.000 A 
ENDBRANCH  10  24
TORSDOF 3
ENDMDL
MODEL 3
REMARK VINA RESULT:      -7.5      2.378      5.124
REMARK  Name = 
REMARK  5 active torsions:
REMARK  status: ('A' for Active; 'I' for Inactive)
REMARK    1  A    between atoms: C_1  and  O_2
REMARK    2  A    between atoms: O_2  and  C_3
REMARK    3  A    between atoms: C_9  and  C_10
REMARK    4  A    between atoms: C_19  and  C_21
REMARK    5  A    between atoms: N_29  and  C_30
REMARK                            x       y       z     vdW  Elec       q    Type
REMARK                         _______ _______ _______ _____ _____    ______ ____
ROOT
ATOM      1  C   UNL     1      -1.292  13.320  20.136  0.00  0.00    +0.000 A 
ATOM      2  N   UNL     1      -0.945  14.580  19.946  0.00  0.00    +0.000 NA
ATOM      3  C   UNL     1       0.402  14.581  19.754  0.00  0.00    +0.000 A 
ATOM      4  C   UNL     1       1.254  15.670  19.512  0.00  0.00    +0.000 A 
ATOM      5  C   UNL     1       2.631  15.446  19.410  0.00  0.00    +0.000 A 
ATOM      6  C   UNL     1       3.147  14.160  19.537  0.00  0.00    +0.000 A 
ATOM      7  C   UNL     1       2.312  13.061  19.766  0.00  0.00    +0.000 A 
ATOM      8  C   UNL     1       0.927  13.296  19.848  0.00  0.00    +0.000 A 
ATOM      9  N   UNL     1      -0.180  12.484  20.101  0.00  0.00    +0.000 N 
ATOM     10  C   UNL     1      -0.154  11.104  20.375  0.00  0.00    +0.000 C 
ATOM     11  O   UNL     1      -0.923  10.679  21.235  0.00  0.00    +0.000 OA
ENDROOT
BRANCH   1  18
ATOM     12  C   UNL     1      -4.326  11.187  17.242  0.00  0.00    +0.000 A 
ATOM     13  C   UNL     1      -5.578  11.015  17.826  0.00  0.00    +0.000 A 
ATOM     14  C   UNL     1      -5.845  11.472  19.120  0.00  0.00    +0.000 A 
ATOM     15  C   UNL     1      -4.810  12.097  19.825  0.00  0.00    +0.000 A 
ATOM     16  C   UNL     1      -3.531  12.263  19.282  0.00  0.00    +0.000 A 
ATOM     17  C   UNL     1      -3.298  11.801  17.968  0.00  0.00    +0.000 A 
ATOM     18  C   UNL     1      -2.738  12.934  20.265  0.00  0.00    +0.000 A 
ATOM     19  C   UNL     1      -3.534  13.122  21.375  0.00  0.00    +0.000 A 
ATOM     20  N   UNL     1      -4.784  12.642  21.089  0.00  0.00    +0.000 N 
ATOM     21  C   UNL     1      -5.910  12.689  21.994  0.00  0.00    +0.000 C 
BRANCH  12  23
ATOM     22  C   UNL     1      -2.633  10.341  15.827  0.00  0.00    +0.000 C 
ATOM     23  O   UNL     1      -3.984  10.760  15.987  0.00  0.00    +0.000 OA
ENDBRANCH  12  23
ENDBRANCH   1  18
BRANCH  10  24
ATOM     24  C   UNL     1       0.716  10.113  19.696  0.00  0.00    +0.000 A 
ATOM     25  C   UNL     1       1.120  10.292  18.366  0.00  0.00    +0.000 A 
ATOM     26  C   UNL     1       1.849   9.292  17.721  0.00  0.00    +0.000 A 
ATOM     27  C   UNL     1       2.147   8.105  18.389  0.00  0.00    +0.000 A 
ATOM     28  C   UNL     1       1.738   7.922  19.706  0.00  0.00    +0.000 A 
ATOM     29 BR   UNL     1       2.112   6.297  20.592  0.00  0.00    +0.000 Br
ATOM     30  C   UNL     1       1.028   8.925  20.369  0.00  0.00    +0.000 A 
ENDBRANCH  10  24
TORSDOF 3
ENDMDL
MODEL 4
REMARK VINA RESULT:      -7.5      3.892      8.459
REMARK  Name = 
REMARK  5 active torsions:
REMARK  status: ('A' for Active; 'I' for Inactive)
REMARK    1  A    between atoms: C_1  and  O_2
REMARK    2  A    between atoms: O_2  and  C_3
REMARK    3  A    between atoms: C_9  and  C_10
REMARK    4  A    between atoms: C_19  and  C_21
REMARK    5  A    between atoms: N_29  and  C_30
REMARK                            x       y       z     vdW  Elec       q    Type
REMARK                         _______ _______ _______ _____ _____    ______ ____
ROOT
ATOM      1  C   UNL     1       1.603   8.291  19.891  0.00  0.00    +0.000 A 
ATOM      2  N   UNL     1       1.740   8.190  21.201  0.00  0.00    +0.000 NA
ATOM      3  C   UNL     1       0.811   9.021  21.748  0.00  0.00    +0.000 A 
ATOM      4  C   UNL     1       0.549   9.275  23.103  0.00  0.00    +0.000 A 
ATOM      5  C   UNL     1      -0.418  10.227  23.441  0.00  0.00    +0.000 A 
ATOM      6  C   UNL     1      -1.117  10.907  22.447  0.00  0.00    +0.000 A 
ATOM      7  C   UNL     1      -0.877  10.656  21.091  0.00  0.00    +0.000 A 
ATOM      8  C   UNL     1       0.084   9.684  20.763  0.00  0.00    +0.000 A 
ATOM      9  N   UNL     1       0.609   9.207  19.561  0.00  0.00    +0.000 N 
ATOM     10  C   UNL     1       0.269   9.652  18.270  0.00  0.00    +0.000 C 
ATOM     11  O   UNL     1       1.175   9.760  17.447  0.00  0.00    +0.000 OA
ENDROOT
BRANCH   1  18
ATOM     12  C   UNL     1       1.852   3.631  19.297  0.00  0.00    +0.000 A 
ATOM     13  C   UNL     1       2.730   3.277  18.276  0.00  0.00    +0.000 A 
ATOM     14  C   UNL     1       3.445   4.245  17.564  0.00  0.00    +0.000 A 
ATOM     15  C   UNL     1       3.244   5.590  17.897  0.00  0.00    +0.000 A 
ATOM     16  C   UNL     1       2.350   5.986  18.898  0.00  0.00    +0.000 A 
ATOM     17  C   UNL     1       1.652   4.982  19.605  0.00  0.00    +0.000 A 
ATOM     18  C   UNL     1       2.400   7.413  18.969  0.00  0.00    +0.000 A 
ATOM     19  C   UNL     1       3.282   7.840  17.999  0.00  0.00    +0.000 A 
ATOM     20  N   UNL     1       3.804   6.737  17.381  0.00  0.00    +0.000 N 
ATOM     21  C   UNL     1       4.794   6.774  16.328  0.00  0.00    +0.000 C 
BRANCH  12  23
ATOM     22  C   UNL     1       1.420   2.686  21.419  0.00  0.00    +0.000 C 
ATOM     23  O   UNL     1       1.109   2.745  20.031  0.00  0.00    +0.000 OA
ENDBRANCH  12  23
ENDBRANCH   1  18
BRANCH  10  24
ATOM     24  C   UNL     1      -1.103   9.984  17.814  0.00  0.00    +0.000 A 
ATOM     25  C   UNL     1      -1.564   9.589  16.550  0.00  0.00    +0.000 A 
ATOM     26  C   UNL     1      -2.820  10.009  16.108  0.00  0.00    +0.000 A 
ATOM     27  C   UNL     1      -3.599  10.844  16.907  0.00  0.00    +0.000 A 
ATOM     28  C   UNL     1      -3.137  11.244  18.157  0.00  0.00    +0.000 A 
ATOM     29 BR   UNL     1      -4.182  12.405  19.219  0.00  0.00    +0.000 Br
ATOM     30  C   UNL     1      -1.893  10.813  18.621  0.00  0.00    +0.000 A 
ENDBRANCH  10  24
TORSDOF 3
ENDMDL
MODEL 5
REMARK VINA RESULT:      -7.5      2.562      4.720
REMARK  Name = 
REMARK  5 active torsions:
REMARK  status: ('A' for Active; 'I' for Inactive)
REMARK    1  A    between atoms: C_1  and  O_2
REMARK    2  A    between atoms: O_2  and  C_3
REMARK    3  A    between atoms: C_9  and  C_10
REMARK    4  A    between atoms: C_19  and  C_21
REMARK    5  A    between atoms: N_29  and  C_30
REMARK                            x       y       z     vdW  Elec       q    Type
REMARK                         _______ _______ _______ _____ _____    ______ ____
ROOT
ATOM      1  C   UNL     1      -2.399  13.702  21.224  0.00  0.00    +0.000 A 
ATOM      2  N   UNL     1      -2.109  14.870  20.679  0.00  0.00    +0.000 NA
ATOM      3  C   UNL     1      -0.776  14.844  20.407  0.00  0.00    +0.000 A 
ATOM      4  C   UNL     1       0.021  15.842  19.825  0.00  0.00    +0.000 A 
ATOM      5  C   UNL     1       1.397  15.624  19.699  0.00  0.00    +0.000 A 
ATOM      6  C   UNL     1       1.966  14.431  20.135  0.00  0.00    +0.000 A 
ATOM      7  C   UNL     1       1.184  13.421  20.705  0.00  0.00    +0.000 A 
ATOM      8  C   UNL     1      -0.201  13.643  20.811  0.00  0.00    +0.000 A 
ATOM      9  N   UNL     1      -1.262  12.909  21.345  0.00  0.00    +0.000 N 
ATOM     10  C   UNL     1      -1.171  11.656  21.979  0.00  0.00    +0.000 C 
ATOM     11  O   UNL     1      -1.874  11.467  22.969  0.00  0.00    +0.000 OA
ENDROOT
BRANCH   1  18
ATOM     12  C   UNL     1      -5.804  11.556  18.788  0.00  0.00    +0.000 A 
ATOM     13  C   UNL     1      -6.972  11.413  19.531  0.00  0.00    +0.000 A 
ATOM     14  C   UNL     1      -7.065  11.898  20.840  0.00  0.00    +0.000 A 
ATOM     15  C   UNL     1      -5.941  12.522  21.393  0.00  0.00    +0.000 A 
ATOM     16  C   UNL     1      -4.741  12.660  20.687  0.00  0.00    +0.000 A 
ATOM     17  C   UNL     1      -4.684  12.170  19.364  0.00  0.00    +0.000 A 
ATOM     18  C   UNL     1      -3.821  13.339  21.545  0.00  0.00    +0.000 A 
ATOM     19  C   UNL     1      -4.466  13.558  22.744  0.00  0.00    +0.000 A 
ATOM     20  N   UNL     1      -5.747  13.090  22.631  0.00  0.00    +0.000 N 
ATOM     21  C   UNL     1      -6.747  13.171  23.672  0.00  0.00    +0.000 C 
BRANCH  12  23
ATOM     22  C   UNL     1      -4.416  11.491  16.876  0.00  0.00    +0.000 C 
ATOM     23  O   UNL     1      -5.631  11.100  17.509  0.00  0.00    +0.000 OA
ENDBRANCH  12  23
ENDBRANCH   1  18
BRANCH  10  24
ATOM     24  C   UNL     1      -0.307  10.535  21.538  0.00  0.00    +0.000 A 
ATOM     25  C   UNL     1       0.336   9.705  22.467  0.00  0.00    +0.000 A 
ATOM     26  C   UNL     1       1.227   8.726  22.023  0.00  0.00    +0.000 A 
ATOM     27  C   UNL     1       1.500   8.596  20.663  0.00  0.00    +0.000 A 
ATOM     28  C   UNL     1       0.869   9.426  19.741  0.00  0.00    +0.000 A 
ATOM     29 BR   UNL     1       1.272   9.269  17.902  0.00  0.00    +0.000 Br
ATOM     30  C   UNL     1      -0.041  10.393  20.170  0.00  0.00    +0.000 A 
ENDBRANCH  10  24
TORSDOF 3
ENDMDL
MODEL 6
REMARK VINA RESULT:      -7.4      3.660      8.262
REMARK  Name = 
REMARK  5 active torsions:
REMARK  status: ('A' for Active; 'I' for Inactive)
REMARK    1  A    between atoms: C_1  and  O_2
REMARK    2  A    between atoms: O_2  and  C_3
REMARK    3  A    between atoms: C_9  and  C_10
REMARK    4  A    between atoms: C_19  and  C_21
REMARK    5  A    between atoms: N_29  and  C_30
REMARK                            x       y       z     vdW  Elec       q    Type
REMARK                         _______ _______ _______ _____ _____    ______ ____
ROOT
ATOM      1  C   UNL     1       1.477   8.395  20.073  0.00  0.00    +0.000 A 
ATOM      2  N   UNL     1       1.518   8.201  21.379  0.00  0.00    +0.000 NA
ATOM      3  C   UNL     1       0.634   9.082  21.923  0.00  0.00    +0.000 A 
ATOM      4  C   UNL     1       0.306   9.275  23.274  0.00  0.00    +0.000 A 
ATOM      5  C   UNL     1      -0.591  10.291  23.617  0.00  0.00    +0.000 A 
ATOM      6  C   UNL     1      -1.159  11.094  22.630  0.00  0.00    +0.000 A 
ATOM      7  C   UNL     1      -0.853  10.906  21.278  0.00  0.00    +0.000 A 
ATOM      8  C   UNL     1       0.036   9.869  20.944  0.00  0.00    +0.000 A 
ATOM      9  N   UNL     1       0.594   9.420  19.745  0.00  0.00    +0.000 N 
ATOM     10  C   UNL     1       0.382   9.974  18.470  0.00  0.00    +0.000 C 
ATOM     11  O   UNL     1       1.346  10.046  17.712  0.00  0.00    +0.000 OA
ENDROOT
BRANCH   1  18
ATOM     12  C   UNL     1       1.698   3.729  19.522  0.00  0.00    +0.000 A 
ATOM     13  C   UNL     1       2.552   3.361  18.487  0.00  0.00    +0.000 A 
ATOM     14  C   UNL     1       3.255   4.318  17.750  0.00  0.00    +0.000 A 
ATOM     15  C   UNL     1       3.066   5.668  18.072  0.00  0.00    +0.000 A 
ATOM     16  C   UNL     1       2.195   6.078  19.088  0.00  0.00    +0.000 A 
ATOM     17  C   UNL     1       1.509   5.084  19.820  0.00  0.00    +0.000 A 
ATOM     18  C   UNL     1       2.251   7.505  19.143  0.00  0.00    +0.000 A 
ATOM     19  C   UNL     1       3.113   7.919  18.149  0.00  0.00    +0.000 A 
ATOM     20  N   UNL     1       3.619   6.807  17.532  0.00  0.00    +0.000 N 
ATOM     21  C   UNL     1       4.585   6.830  16.458  0.00  0.00    +0.000 C 
BRANCH  12  23
ATOM     22  C   UNL     1       1.477   2.600  21.587  0.00  0.00    +0.000 C 
ATOM     23  O   UNL     1       0.967   2.853  20.282  0.00  0.00    +0.000 OA
ENDBRANCH  12  23
ENDBRANCH   1  18
BRANCH  10  24
ATOM     24  C   UNL     1      -0.921  10.462  17.955  0.00  0.00    +0.000 A 
ATOM     25  C   UNL     1      -1.744  11.289  18.732  0.00  0.00    +0.000 A 
ATOM     26  C   UNL     1      -3.011  11.645  18.263  0.00  0.00    +0.000 A 
ATOM     27  C   UNL     1      -3.466  11.152  17.042  0.00  0.00    +0.000 A 
ATOM     28  C   UNL     1      -2.653  10.323  16.275  0.00  0.00    +0.000 A 
ATOM     29 BR   UNL     1      -3.291   9.630  14.638  0.00  0.00    +0.000 Br
ATOM     30  C   UNL     1      -1.376   9.979  16.722  0.00  0.00    +0.000 A 
ENDBRANCH  10  24
TORSDOF 3
ENDMDL
MODEL 7
REMARK VINA RESULT:      -7.4      3.445      4.531
REMARK  Name = 
REMARK  5 active torsions:
REMARK  status: ('A' for Active; 'I' for Inactive)
REMARK    1  A    between atoms: C_1  and  O_2
REMARK    2  A    between atoms: O_2  and  C_3
REMARK    3  A    between atoms: C_9  and  C_10
REMARK    4  A    between atoms: C_19  and  C_21
REMARK    5  A    between atoms: N_29  and  C_30
REMARK                            x       y       z     vdW  Elec       q    Type
REMARK                         _______ _______ _______ _____ _____    ______ ____
ROOT
ATOM      1  C   UNL     1      -0.310  12.888  19.205  0.00  0.00    +0.000 A 
ATOM      2  N   UNL     1      -1.601  13.151  19.098  0.00  0.00    +0.000 NA
ATOM      3  C   UNL     1      -2.184  12.015  18.626  0.00  0.00    +0.000 A 
ATOM      4  C   UNL     1      -3.537  11.775  18.341  0.00  0.00    +0.000 A 
ATOM      5  C   UNL     1      -3.908  10.542  17.795  0.00  0.00    +0.000 A 
ATOM      6  C   UNL     1      -2.950   9.563  17.548  0.00  0.00    +0.000 A 
ATOM      7  C   UNL     1      -1.599   9.780  17.839  0.00  0.00    +0.000 A 
ATOM      8  C   UNL     1      -1.240  11.017  18.404  0.00  0.00    +0.000 A 
ATOM      9  N   UNL     1      -0.025  11.595  18.778  0.00  0.00    +0.000 N 
ATOM     10  C   UNL     1       1.249  11.014  18.643  0.00  0.00    +0.000 C 
ATOM     11  O   UNL     1       2.174  11.743  18.292  0.00  0.00    +0.000 OA
ENDROOT
BRANCH   1  18
ATOM     12  C   UNL     1       0.483  17.453  18.394  0.00  0.00    +0.000 A 
ATOM     13  C   UNL     1       1.448  17.980  19.247  0.00  0.00    +0.000 A 
ATOM     14  C   UNL     1       2.090  17.181  20.198  0.00  0.00    +0.000 A 
ATOM     15  C   UNL     1       1.725  15.832  20.281  0.00  0.00    +0.000 A 
ATOM     16  C   UNL     1       0.739  15.274  19.460  0.00  0.00    +0.000 A 
ATOM     17  C   UNL     1       0.118  16.106  18.502  0.00  0.00    +0.000 A 
ATOM     18  C   UNL     1       0.627  13.893  19.812  0.00  0.00    +0.000 A 
ATOM     19  C   UNL     1       1.508  13.662  20.847  0.00  0.00    +0.000 A 
ATOM     20  N   UNL     1       2.182  14.826  21.101  0.00  0.00    +0.000 N 
ATOM     21  C   UNL     1       3.217  14.976  22.099  0.00  0.00    +0.000 C 
BRANCH  12  23
ATOM     22  C   UNL     1       0.540  18.488  16.270  0.00  0.00    +0.000 C 
ATOM     23  O   UNL     1      -0.197  18.171  17.446  0.00  0.00    +0.000 OA
ENDBRANCH  12  23
ENDBRANCH   1  18
BRANCH  10  24
ATOM     24  C   UNL     1       1.573   9.591  18.909  0.00  0.00    +0.000 A 
ATOM     25  C   UNL     1       1.151   8.958  20.086  0.00  0.00    +0.000 A 
ATOM     26  C   UNL     1       1.561   7.651  20.357  0.00  0.00    +0.000 A 
ATOM     27  C   UNL     1       2.415   6.991  19.475  0.00  0.00    +0.000 A 
ATOM     28  C   UNL     1       2.842   7.623  18.311  0.00  0.00    +0.000 A 
ATOM     29 BR   UNL     1       4.027   6.735  17.139  0.00  0.00    +0.000 Br
ATOM     30  C   UNL     1       2.420   8.920  18.018  0.00  0.00    +0.000 A 
ENDBRANCH  10  24
TORSDOF 3
ENDMDL
MODEL 8
REMARK VINA RESULT:      -7.3      1.734      3.057
REMARK  Name = 
REMARK  5 active torsions:
REMARK  status: ('A' for Active; 'I' for Inactive)
REMARK    1  A    between atoms: C_1  and  O_2
REMARK    2  A    between atoms: O_2  and  C_3
REMARK    3  A    between atoms: C_9  and  C_10
REMARK    4  A    between atoms: C_19  and  C_21
REMARK    5  A    between atoms: N_29  and  C_30
REMARK                            x       y       z     vdW  Elec       q    Type
REMARK                         _______ _______ _______ _____ _____    ______ ____
ROOT
ATOM      1  C   UNL     1      -2.833  12.452  19.795  0.00  0.00    +0.000 A 
ATOM      2  N   UNL     1      -3.857  12.459  18.960  0.00  0.00    +0.000 NA
ATOM      3  C   UNL     1      -3.569  11.544  17.994  0.00  0.00    +0.000 A 
ATOM      4  C   UNL     1      -4.335  11.175  16.878  0.00  0.00    +0.000 A 
ATOM      5  C   UNL     1      -3.810  10.250  15.969  0.00  0.00    +0.000 A 
ATOM      6  C   UNL     1      -2.550   9.696  16.176  0.00  0.00    +0.000 A 
ATOM      7  C   UNL     1      -1.778  10.043  17.290  0.00  0.00    +0.000 A 
ATOM      8  C   UNL     1      -2.324  10.960  18.206  0.00  0.00    +0.000 A 
ATOM      9  N   UNL     1      -1.851  11.560  19.375  0.00  0.00    +0.000 N 
ATOM     10  C   UNL     1      -0.581  11.373  19.951  0.00  0.00    +0.000 C 
ATOM     11  O   UNL     1      -0.022  12.357  20.429  0.00  0.00    +0.000 OA
ENDROOT
BRANCH   1  18
ATOM     12  C   UNL     1      -1.388  16.800  20.858  0.00  0.00    +0.000 A 
ATOM     13  C   UNL     1      -1.668  17.139  22.179  0.00  0.00    +0.000 A 
ATOM     14  C   UNL     1      -2.286  16.234  23.046  0.00  0.00    +0.000 A 
ATOM     15  C   UNL     1      -2.634  14.974  22.546  0.00  0.00    +0.000 A 
ATOM     16  C   UNL     1      -2.394  14.606  21.217  0.00  0.00    +0.000 A 
ATOM     17  C   UNL     1      -1.757  15.540  20.371  0.00  0.00    +0.000 A 
ATOM     18  C   UNL     1      -2.868  13.267  21.056  0.00  0.00    +0.000 A 
ATOM     19  C   UNL     1      -3.408  12.877  22.263  0.00  0.00    +0.000 A 
ATOM     20  N   UNL     1      -3.236  13.898  23.158  0.00  0.00    +0.000 N 
ATOM     21  C   UNL     1      -3.642  13.854  24.544  0.00  0.00    +0.000 C 
BRANCH  12  23
ATOM     22  C   UNL     1      -1.478  17.766  18.703  0.00  0.00    +0.000 C 
ATOM     23  O   UNL     1      -0.796  17.633  19.946  0.00  0.00    +0.000 OA
ENDBRANCH  12  23
ENDBRANCH   1  18
BRANCH  10  24
ATOM     24  C   UNL     1       0.134  10.076  20.045  0.00  0.00    +0.000 A 
ATOM     25  C   UNL     1       0.059   9.288  21.201  0.00  0.00    +0.000 A 
ATOM     26  C   UNL     1       0.827   8.126  21.300  0.00  0.00    +0.000 A 
ATOM     27  C   UNL     1       1.689   7.770  20.265  0.00  0.00    +0.000 A 
ATOM     28  C   UNL     1       1.770   8.557  19.120  0.00  0.00    +0.000 A 
ATOM     29 BR   UNL     1       2.967   8.087  17.737  0.00  0.00    +0.000 Br
ATOM     30  C   UNL     1       0.990   9.708  18.999  0.00  0.00    +0.000 A 
ENDBRANCH  10  24
TORSDOF 3
ENDMDL
MODEL 9
REMARK VINA RESULT:      -7.3      2.829      5.154
REMARK  Name = 
REMARK  5 active torsions:
REMARK  status: ('A' for Active; 'I' for Inactive)
REMARK    1  A    between atoms: C_1  and  O_2
REMARK    2  A    between atoms: O_2  and  C_3
REMARK    3  A    between atoms: C_9  and  C_10
REMARK    4  A    between atoms: C_19  and  C_21
REMARK    5  A    between atoms: N_29  and  C_30
REMARK                            x       y       z     vdW  Elec       q    Type
REMARK                         _______ _______ _______ _____ _____    ______ ____
ROOT
ATOM      1  C   UNL     1      -3.775  14.605  21.436  0.00  0.00    +0.000 A 
ATOM      2  N   UNL     1      -3.714  15.884  21.111  0.00  0.00    +0.000 NA
ATOM      3  C   UNL     1      -2.484  16.080  20.561  0.00  0.00    +0.000 A 
ATOM      4  C   UNL     1      -1.927  17.265  20.054  0.00  0.00    +0.000 A 
ATOM      5  C   UNL     1      -0.608  17.251  19.591  0.00  0.00    +0.000 A 
ATOM      6  C   UNL     1       0.139  16.077  19.623  0.00  0.00    +0.000 A 
ATOM      7  C   UNL     1      -0.404  14.884  20.113  0.00  0.00    +0.000 A 
ATOM      8  C   UNL     1      -1.738  14.905  20.559  0.00  0.00    +0.000 A 
ATOM      9  N   UNL     1      -2.583  13.954  21.135  0.00  0.00    +0.000 N 
ATOM     10  C   UNL     1      -2.247  12.623  21.445  0.00  0.00    +0.000 C 
ATOM     11  O   UNL     1      -2.680  12.158  22.497  0.00  0.00    +0.000 OA
ENDROOT
BRANCH   1  18
ATOM     12  C   UNL     1      -6.672  11.257  19.850  0.00  0.00    +0.000 A 
ATOM     13  C   UNL     1      -7.732  11.022  20.721  0.00  0.00    +0.000 A 
ATOM     14  C   UNL     1      -7.875  11.752  21.905  0.00  0.00    +0.000 A 
ATOM     15  C   UNL     1      -6.911  12.722  22.202  0.00  0.00    +0.000 A 
ATOM     16  C   UNL     1      -5.816  12.967  21.364  0.00  0.00    +0.000 A 
ATOM     17  C   UNL     1      -5.709  12.221  20.171  0.00  0.00    +0.000 A 
ATOM     18  C   UNL     1      -5.048  14.011  21.968  0.00  0.00    +0.000 A 
ATOM     19  C   UNL     1      -5.666  14.340  23.156  0.00  0.00    +0.000 A 
ATOM     20  N   UNL     1      -6.799  13.581  23.272  0.00  0.00    +0.000 N 
ATOM     21  C   UNL     1      -7.735  13.662  24.370  0.00  0.00    +0.000 C 
BRANCH  12  23
ATOM     22  C   UNL     1      -5.363  11.040  17.894  0.00  0.00    +0.000 C 
ATOM     23  O   UNL     1      -6.458  10.579  18.679  0.00  0.00    +0.000 OA
ENDBRANCH  12  23
ENDBRANCH   1  18
BRANCH  10  24
ATOM     24  C   UNL     1      -1.426  11.727  20.595  0.00  0.00    +0.000 A 
ATOM     25  C   UNL     1      -1.594  11.692  19.204  0.00  0.00    +0.000 A 
ATOM     26  C   UNL     1      -0.883  10.763  18.442  0.00  0.00    +0.000 A 
ATOM     27  C   UNL     1      -0.033   9.852  19.068  0.00  0.00    +0.000 A 
ATOM     28  C   UNL     1       0.126   9.880  20.450  0.00  0.00    +0.000 A 
ATOM     29 BR   UNL     1       1.251   8.619  21.295  0.00  0.00    +0.000 Br
ATOM     30  C   UNL     1      -0.561  10.820  21.220  0.00  0.00    +0.000 A 
ENDBRANCH  10  24
TORSDOF 3
ENDMDL
