MODEL 1
REMARK VINA RESULT:      -7.6      0.000      0.000
REMARK  Name = 
REMARK  6 active torsions:
REMARK  status: ('A' for Active; 'I' for Inactive)
REMARK    1  A    between atoms: C_1  and  O_2
REMARK    2  A    between atoms: O_2  and  C_3
REMARK    3  A    between atoms: C_7  and  C_8
REMARK    4  A    between atoms: C_8  and  N_9
REMARK    5  A    between atoms: C_10  and  C_12
REMARK    6  A    between atoms: C_12  and  C_13
REMARK                            x       y       z     vdW  Elec       q    Type
REMARK                         _______ _______ _______ _____ _____    ______ ____
ROOT
ATOM      1  N   UNL     1       5.691   4.715  16.499  0.00  0.00    +0.000 N 
ATOM      2  C   UNL     1       6.947   4.684  15.936  0.00  0.00    +0.000 C 
ATOM      3  O   UNL     1       7.970   4.428  16.577  0.00  0.00    +0.000 OA
ATOM      4  H   UNL     1       4.926   5.114  15.966  0.00  0.00    +0.000 HD
ENDROOT
BRANCH   1   5
ATOM      5  C   UNL     1       5.529   4.486  17.920  0.00  0.00    +0.000 C 
BRANCH   5  10
ATOM      6  C   UNL     1       2.423   4.083  20.114  0.00  0.00    +0.000 A 
ATOM      7  C   UNL     1       1.422   4.015  19.145  0.00  0.00    +0.000 A 
ATOM      8  C   UNL     1       1.743   4.124  17.793  0.00  0.00    +0.000 A 
ATOM      9  C   UNL     1       3.073   4.308  17.402  0.00  0.00    +0.000 A 
ATOM     10  C   UNL     1       4.090   4.389  18.357  0.00  0.00    +0.000 A 
ATOM     11  C   UNL     1       3.750   4.272  19.717  0.00  0.00    +0.000 A 
BRANCH   6  13
ATOM     12  C   UNL     1       1.405   2.676  21.743  0.00  0.00    +0.000 C 
ATOM     13  O   UNL     1       2.010   3.925  21.414  0.00  0.00    +0.000 OA
ENDBRANCH   6  13
ENDBRANCH   5  10
ENDBRANCH   1   5
BRANCH   2  14
ATOM     14  C   UNL     1       6.956   4.974  14.450  0.00  0.00    +0.000 C 
BRANCH  14  15
ATOM     15  C   UNL     1       6.543   3.791  13.579  0.00  0.00    +0.000 C 
ATOM     16  C   UNL     1       5.022   3.638  13.343  0.00  0.00    +0.000 C 
ATOM     17  C   UNL     1       5.332   3.198  11.894  0.00  0.00    +0.000 C 
ATOM     18  F   UNL     1       4.519   3.713  10.947  0.00  0.00    +0.000 F 
ATOM     19  F   UNL     1       5.366   1.860  11.695  0.00  0.00    +0.000 F 
ATOM     20  C   UNL     1       6.711   3.882  12.039  0.00  0.00    +0.000 C 
ENDBRANCH  14  15
ENDBRANCH   2  14
TORSDOF 5
ENDMDL
MODEL 2
REMARK VINA RESULT:      -7.3      0.885      1.329
REMARK  Name = 
REMARK  6 active torsions:
REMARK  status: ('A' for Active; 'I' for Inactive)
REMARK    1  A    between atoms: C_1  and  O_2
REMARK    2  A    between atoms: O_2  and  C_3
REMARK    3  A    between atoms: C_7  and  C_8
REMARK    4  A    between atoms: C_8  and  N_9
REMARK    5  A    between atoms: C_10  and  C_12
REMARK    6  A    between atoms: C_12  and  C_13
REMARK                            x       y       z     vdW  Elec       q    Type
REMARK                         _______ _______ _______ _____ _____    ______ ____
ROOT
ATOM      1  N   UNL     1       6.559   4.243  16.920  0.00  0.00    +0.000 N 
ATOM      2  C   UNL     1       6.655   5.218  15.953  0.00  0.00    +0.000 C 
ATOM      3  O   UNL     1       6.290   6.385  16.130  0.00  0.00    +0.000 OA
ATOM      4  H   UNL     1       6.697   3.274  16.653  0.00  0.00    +0.000 HD
ENDROOT
BRANCH   1   5
ATOM      5  C   UNL     1       5.963   4.552  18.203  0.00  0.00    +0.000 C 
BRANCH   5  10
ATOM      6  C   UNL     1       2.447   3.973  19.590  0.00  0.00    +0.000 A 
ATOM      7  C   UNL     1       1.821   3.388  18.488  0.00  0.00    +0.000 A 
ATOM      8  C   UNL     1       2.521   3.205  17.297  0.00  0.00    +0.000 A 
ATOM      9  C   UNL     1       3.855   3.612  17.199  0.00  0.00    +0.000 A 
ATOM     10  C   UNL     1       4.497   4.209  18.288  0.00  0.00    +0.000 A 
ATOM     11  C   UNL     1       3.778   4.383  19.484  0.00  0.00    +0.000 A 
BRANCH   6  13
ATOM     12  C   UNL     1       1.325   2.847  21.365  0.00  0.00    +0.000 C 
ATOM     13  O   UNL     1       1.685   4.073  20.729  0.00  0.00    +0.000 OA
ENDBRANCH   6  13
ENDBRANCH   5  10
ENDBRANCH   1   5
BRANCH   2  14
ATOM     14  C   UNL     1       7.269   4.734  14.657  0.00  0.00    +0.000 C 
BRANCH  14  15
ATOM     15  C   UNL     1       6.272   4.573  13.513  0.00  0.00    +0.000 C 
ATOM     16  C   UNL     1       6.823   3.888  12.241  0.00  0.00    +0.000 C 
ATOM     17  C   UNL     1       5.461   3.176  12.083  0.00  0.00    +0.000 C 
ATOM     18  F   UNL     1       5.527   1.874  11.727  0.00  0.00    +0.000 F 
ATOM     19  F   UNL     1       4.596   3.772  11.230  0.00  0.00    +0.000 F 
ATOM     20  C   UNL     1       5.206   3.448  13.584  0.00  0.00    +0.000 C 
ENDBRANCH  14  15
ENDBRANCH   2  14
TORSDOF 5
ENDMDL
MODEL 3
REMARK VINA RESULT:      -7.3      1.315      1.366
REMARK  Name = 
REMARK  6 active torsions:
REMARK  status: ('A' for Active; 'I' for Inactive)
REMARK    1  A    between atoms: C_1  and  O_2
REMARK    2  A    between atoms: O_2  and  C_3
REMARK    3  A    between atoms: C_7  and  C_8
REMARK    4  A    between atoms: C_8  and  N_9
REMARK    5  A    between atoms: C_10  and  C_12
REMARK    6  A    between atoms: C_12  and  C_13
REMARK                            x       y       z     vdW  Elec       q    Type
REMARK                         _______ _______ _______ _____ _____    ______ ____
ROOT
ATOM      1  N   UNL     1       5.292   5.063  16.514  0.00  0.00    +0.000 N 
ATOM      2  C   UNL     1       5.728   5.692  15.370  0.00  0.00    +0.000 C 
ATOM      3  O   UNL     1       5.218   6.727  14.930  0.00  0.00    +0.000 OA
ATOM      4  H   UNL     1       5.624   4.126  16.713  0.00  0.00    +0.000 HD
ENDROOT
BRANCH   1   5
ATOM      5  C   UNL     1       4.151   5.586  17.237  0.00  0.00    +0.000 C 
BRANCH   5  10
ATOM      6  C   UNL     1       1.804   3.672  19.572  0.00  0.00    +0.000 A 
ATOM      7  C   UNL     1       1.715   2.446  18.911  0.00  0.00    +0.000 A 
ATOM      8  C   UNL     1       2.387   2.246  17.707  0.00  0.00    +0.000 A 
ATOM      9  C   UNL     1       3.152   3.277  17.152  0.00  0.00    +0.000 A 
ATOM     10  C   UNL     1       3.245   4.516  17.792  0.00  0.00    +0.000 A 
ATOM     11  C   UNL     1       2.564   4.700  19.009  0.00  0.00    +0.000 A 
BRANCH   6  13
ATOM     12  C   UNL     1       1.364   2.698  21.701  0.00  0.00    +0.000 C 
ATOM     13  O   UNL     1       1.138   3.756  20.770  0.00  0.00    +0.000 OA
ENDBRANCH   6  13
ENDBRANCH   5  10
ENDBRANCH   1   5
BRANCH   2  14
ATOM     14  C   UNL     1       6.907   5.010  14.710  0.00  0.00    +0.000 C 
BRANCH  14  15
ATOM     15  C   UNL     1       6.527   3.843  13.802  0.00  0.00    +0.000 C 
ATOM     16  C   UNL     1       5.018   3.702  13.496  0.00  0.00    +0.000 C 
ATOM     17  C   UNL     1       5.391   3.284  12.055  0.00  0.00    +0.000 C 
ATOM     18  F   UNL     1       4.623   3.819  11.081  0.00  0.00    +0.000 F 
ATOM     19  F   UNL     1       5.427   1.949  11.836  0.00  0.00    +0.000 F 
ATOM     20  C   UNL     1       6.765   3.958  12.273  0.00  0.00    +0.000 C 
ENDBRANCH  14  15
ENDBRANCH   2  14
TORSDOF 5
ENDMDL
MODEL 4
REMARK VINA RESULT:      -7.3      1.746      2.212
REMARK  Name = 
REMARK  6 active torsions:
REMARK  status: ('A' for Active; 'I' for Inactive)
REMARK    1  A    between atoms: C_1  and  O_2
REMARK    2  A    between atoms: O_2  and  C_3
REMARK    3  A    between atoms: C_7  and  C_8
REMARK    4  A    between atoms: C_8  and  N_9
REMARK    5  A    between atoms: C_10  and  C_12
REMARK    6  A    between atoms: C_12  and  C_13
REMARK                            x       y       z     vdW  Elec       q    Type
REMARK                         _______ _______ _______ _____ _____    ______ ____
ROOT
ATOM      1  N   UNL     1       6.433   6.093  15.893  0.00  0.00    +0.000 N 
ATOM      2  C   UNL     1       7.338   5.085  15.646  0.00  0.00    +0.000 C 
ATOM      3  O   UNL     1       7.792   4.350  16.528  0.00  0.00    +0.000 OA
ATOM      4  H   UNL     1       6.248   6.774  15.165  0.00  0.00    +0.000 HD
ENDROOT
BRANCH   1   5
ATOM      5  C   UNL     1       6.006   6.363  17.250  0.00  0.00    +0.000 C 
BRANCH   5  10
ATOM      6  C   UNL     1       3.000   4.031  17.636  0.00  0.00    +0.000 A 
ATOM      7  C   UNL     1       1.994   4.946  17.954  0.00  0.00    +0.000 A 
ATOM      8  C   UNL     1       2.289   6.303  18.068  0.00  0.00    +0.000 A 
ATOM      9  C   UNL     1       3.598   6.755  17.869  0.00  0.00    +0.000 A 
ATOM     10  C   UNL     1       4.621   5.854  17.560  0.00  0.00    +0.000 A 
ATOM     11  C   UNL     1       4.306   4.488  17.445  0.00  0.00    +0.000 A 
BRANCH   6  13
ATOM     12  C   UNL     1       3.468   1.735  18.062  0.00  0.00    +0.000 C 
ATOM     13  O   UNL     1       2.600   2.723  17.508  0.00  0.00    +0.000 OA
ENDBRANCH   6  13
ENDBRANCH   5  10
ENDBRANCH   1   5
BRANCH   2  14
ATOM     14  C   UNL     1       7.712   4.946  14.185  0.00  0.00    +0.000 C 
BRANCH  14  15
ATOM     15  C   UNL     1       6.530   4.667  13.260  0.00  0.00    +0.000 C 
ATOM     16  C   UNL     1       6.871   3.913  11.954  0.00  0.00    +0.000 C 
ATOM     17  C   UNL     1       5.540   3.142  12.099  0.00  0.00    +0.000 C 
ATOM     18  F   UNL     1       5.604   1.821  11.820  0.00  0.00    +0.000 F 
ATOM     19  F   UNL     1       4.504   3.643  11.387  0.00  0.00    +0.000 F 
ATOM     20  C   UNL     1       5.553   3.511  13.600  0.00  0.00    +0.000 C 
ENDBRANCH  14  15
ENDBRANCH   2  14
TORSDOF 5
ENDMDL
MODEL 5
REMARK VINA RESULT:      -7.3      3.892      7.558
REMARK  Name = 
REMARK  6 active torsions:
REMARK  status: ('A' for Active; 'I' for Inactive)
REMARK    1  A    between atoms: C_1  and  O_2
REMARK    2  A    between atoms: O_2  and  C_3
REMARK    3  A    between atoms: C_7  and  C_8
REMARK    4  A    between atoms: C_8  and  N_9
REMARK    5  A    between atoms: C_10  and  C_12
REMARK    6  A    between atoms: C_12  and  C_13
REMARK                            x       y       z     vdW  Elec       q    Type
REMARK                         _______ _______ _______ _____ _____    ______ ____
ROOT
ATOM      1  N   UNL     1       5.718   3.725  16.705  0.00  0.00    +0.000 N 
ATOM      2  C   UNL     1       4.521   4.238  17.153  0.00  0.00    +0.000 C 
ATOM      3  O   UNL     1       4.216   5.430  17.053  0.00  0.00    +0.000 OA
ATOM      4  H   UNL     1       5.983   2.787  16.984  0.00  0.00    +0.000 HD
ENDROOT
BRANCH   1   5
ATOM      5  C   UNL     1       6.711   4.606  16.126  0.00  0.00    +0.000 C 
BRANCH   5  10
ATOM      6  C   UNL     1       6.104   3.508  12.513  0.00  0.00    +0.000 A 
ATOM      7  C   UNL     1       7.029   4.304  11.836  0.00  0.00    +0.000 A 
ATOM      8  C   UNL     1       7.825   5.208  12.537  0.00  0.00    +0.000 A 
ATOM      9  C   UNL     1       7.697   5.324  13.925  0.00  0.00    +0.000 A 
ATOM     10  C   UNL     1       6.770   4.544  14.621  0.00  0.00    +0.000 A 
ATOM     11  C   UNL     1       5.977   3.633  13.899  0.00  0.00    +0.000 A 
BRANCH   6  13
ATOM     12  C   UNL     1       4.151   3.084  11.218  0.00  0.00    +0.000 C 
ATOM     13  O   UNL     1       5.396   2.621  11.739  0.00  0.00    +0.000 OA
ENDBRANCH   6  13
ENDBRANCH   5  10
ENDBRANCH   1   5
BRANCH   2  14
ATOM     14  C   UNL     1       3.602   3.200  17.761  0.00  0.00    +0.000 C 
BRANCH  14  15
ATOM     15  C   UNL     1       2.456   3.783  18.583  0.00  0.00    +0.000 C 
ATOM     16  C   UNL     1       1.357   2.778  19.000  0.00  0.00    +0.000 C 
ATOM     17  C   UNL     1       1.261   3.509  20.358  0.00  0.00    +0.000 C 
ATOM     18  F   UNL     1       1.147   2.707  21.439  0.00  0.00    +0.000 F 
ATOM     19  F   UNL     1       0.271   4.428  20.447  0.00  0.00    +0.000 F 
ATOM     20  C   UNL     1       2.673   4.078  20.091  0.00  0.00    +0.000 C 
ENDBRANCH  14  15
ENDBRANCH   2  14
TORSDOF 5
ENDMDL
MODEL 6
REMARK VINA RESULT:      -7.2      3.066      6.674
REMARK  Name = 
REMARK  6 active torsions:
REMARK  status: ('A' for Active; 'I' for Inactive)
REMARK    1  A    between atoms: C_1  and  O_2
REMARK    2  A    between atoms: O_2  and  C_3
REMARK    3  A    between atoms: C_7  and  C_8
REMARK    4  A    between atoms: C_8  and  N_9
REMARK    5  A    between atoms: C_10  and  C_12
REMARK    6  A    between atoms: C_12  and  C_13
REMARK                            x       y       z     vdW  Elec       q    Type
REMARK                         _______ _______ _______ _____ _____    ______ ____
ROOT
ATOM      1  N   UNL     1       4.131   5.326  19.853  0.00  0.00    +0.000 N 
ATOM      2  C   UNL     1       2.888   5.917  19.821  0.00  0.00    +0.000 C 
ATOM      3  O   UNL     1       2.629   6.912  19.136  0.00  0.00    +0.000 OA
ATOM      4  H   UNL     1       4.326   4.637  20.571  0.00  0.00    +0.000 HD
ENDROOT
BRANCH   1   5
ATOM      5  C   UNL     1       5.224   5.899  19.096  0.00  0.00    +0.000 C 
BRANCH   5  10
ATOM      6  C   UNL     1       6.713   5.015  15.686  0.00  0.00    +0.000 A 
ATOM      7  C   UNL     1       5.893   3.950  15.308  0.00  0.00    +0.000 A 
ATOM      8  C   UNL     1       4.883   3.504  16.158  0.00  0.00    +0.000 A 
ATOM      9  C   UNL     1       4.690   4.119  17.399  0.00  0.00    +0.000 A 
ATOM     10  C   UNL     1       5.506   5.179  17.801  0.00  0.00    +0.000 A 
ATOM     11  C   UNL     1       6.518   5.621  16.929  0.00  0.00    +0.000 A 
BRANCH   6  13
ATOM     12  C   UNL     1       7.453   4.955  13.423  0.00  0.00    +0.000 C 
ATOM     13  O   UNL     1       7.652   5.405  14.763  0.00  0.00    +0.000 OA
ENDBRANCH   6  13
ENDBRANCH   5  10
ENDBRANCH   1   5
BRANCH   2  14
ATOM     14  C   UNL     1       1.859   5.223  20.687  0.00  0.00    +0.000 C 
BRANCH  14  15
ATOM     15  C   UNL     1       1.146   4.060  20.003  0.00  0.00    +0.000 C 
ATOM     16  C   UNL     1       1.355   3.959  18.473  0.00  0.00    +0.000 C 
ATOM     17  C   UNL     1       1.399   2.421  18.622  0.00  0.00    +0.000 C 
ATOM     18  F   UNL     1       2.347   1.796  17.890  0.00  0.00    +0.000 F 
ATOM     19  F   UNL     1       0.231   1.786  18.374  0.00  0.00    +0.000 F 
ATOM     20  C   UNL     1       1.736   2.630  20.117  0.00  0.00    +0.000 C 
ENDBRANCH  14  15
ENDBRANCH   2  14
TORSDOF 5
ENDMDL
MODEL 7
REMARK VINA RESULT:      -7.2      4.551      7.403
REMARK  Name = 
REMARK  6 active torsions:
REMARK  status: ('A' for Active; 'I' for Inactive)
REMARK    1  A    between atoms: C_1  and  O_2
REMARK    2  A    between atoms: O_2  and  C_3
REMARK    3  A    between atoms: C_7  and  C_8
REMARK    4  A    between atoms: C_8  and  N_9
REMARK    5  A    between atoms: C_10  and  C_12
REMARK    6  A    between atoms: C_12  and  C_13
REMARK                            x       y       z     vdW  Elec       q    Type
REMARK                         _______ _______ _______ _____ _____    ______ ____
ROOT
ATOM      1  N   UNL     1       3.480   4.659  17.889  0.00  0.00    +0.000 N 
ATOM      2  C   UNL     1       2.402   3.852  17.598  0.00  0.00    +0.000 C 
ATOM      3  O   UNL     1       2.477   2.862  16.864  0.00  0.00    +0.000 OA
ATOM      4  H   UNL     1       3.314   5.553  18.337  0.00  0.00    +0.000 HD
ENDROOT
BRANCH   1   5
ATOM      5  C   UNL     1       4.768   4.389  17.286  0.00  0.00    +0.000 C 
BRANCH   5  10
ATOM      6  C   UNL     1       7.341   7.196  17.644  0.00  0.00    +0.000 A 
ATOM      7  C   UNL     1       8.079   6.740  18.738  0.00  0.00    +0.000 A 
ATOM      8  C   UNL     1       7.733   5.549  19.372  0.00  0.00    +0.000 A 
ATOM      9  C   UNL     1       6.639   4.805  18.917  0.00  0.00    +0.000 A 
ATOM     10  C   UNL     1       5.882   5.248  17.830  0.00  0.00    +0.000 A 
ATOM     11  C   UNL     1       6.247   6.451  17.198  0.00  0.00    +0.000 A 
BRANCH   6  13
ATOM     12  C   UNL     1       8.238   9.381  17.952  0.00  0.00    +0.000 C 
ATOM     13  O   UNL     1       7.786   8.359  17.065  0.00  0.00    +0.000 OA
ENDBRANCH   6  13
ENDBRANCH   5  10
ENDBRANCH   1   5
BRANCH   2  14
ATOM     14  C   UNL     1       1.119   4.280  18.278  0.00  0.00    +0.000 C 
BRANCH  14  15
ATOM     15  C   UNL     1       0.922   3.690  19.671  0.00  0.00    +0.000 C 
ATOM     16  C   UNL     1       1.576   2.308  19.908  0.00  0.00    +0.000 C 
ATOM     17  C   UNL     1       1.933   2.767  21.339  0.00  0.00    +0.000 C 
ATOM     18  F   UNL     1       3.169   2.424  21.764  0.00  0.00    +0.000 F 
ATOM     19  F   UNL     1       1.066   2.377  22.301  0.00  0.00    +0.000 F 
ATOM     20  C   UNL     1       1.772   4.226  20.853  0.00  0.00    +0.000 C 
ENDBRANCH  14  15
ENDBRANCH   2  14
TORSDOF 5
ENDMDL
MODEL 8
REMARK VINA RESULT:      -7.2      0.976      1.023
REMARK  Name = 
REMARK  6 active torsions:
REMARK  status: ('A' for Active; 'I' for Inactive)
REMARK    1  A    between atoms: C_1  and  O_2
REMARK    2  A    between atoms: O_2  and  C_3
REMARK    3  A    between atoms: C_7  and  C_8
REMARK    4  A    between atoms: C_8  and  N_9
REMARK    5  A    between atoms: C_10  and  C_12
REMARK    6  A    between atoms: C_12  and  C_13
REMARK                            x       y       z     vdW  Elec       q    Type
REMARK                         _______ _______ _______ _____ _____    ______ ____
ROOT
ATOM      1  N   UNL     1       5.768   4.781  16.784  0.00  0.00    +0.000 N 
ATOM      2  C   UNL     1       6.957   4.629  16.107  0.00  0.00    +0.000 C 
ATOM      3  O   UNL     1       7.994   4.226  16.643  0.00  0.00    +0.000 OA
ATOM      4  H   UNL     1       5.013   5.290  16.337  0.00  0.00    +0.000 HD
ENDROOT
BRANCH   1   5
ATOM      5  C   UNL     1       5.705   4.511  18.205  0.00  0.00    +0.000 C 
BRANCH   5  10
ATOM      6  C   UNL     1       2.606   4.722  20.436  0.00  0.00    +0.000 A 
ATOM      7  C   UNL     1       2.006   5.883  19.946  0.00  0.00    +0.000 A 
ATOM      8  C   UNL     1       2.610   6.607  18.920  0.00  0.00    +0.000 A 
ATOM      9  C   UNL     1       3.825   6.175  18.379  0.00  0.00    +0.000 A 
ATOM     10  C   UNL     1       4.448   5.022  18.862  0.00  0.00    +0.000 A 
ATOM     11  C   UNL     1       3.823   4.299  19.896  0.00  0.00    +0.000 A 
BRANCH   6  13
ATOM     12  C   UNL     1       1.528   2.715  21.132  0.00  0.00    +0.000 C 
ATOM     13  O   UNL     1       1.913   4.059  21.419  0.00  0.00    +0.000 OA
ENDBRANCH   6  13
ENDBRANCH   5  10
ENDBRANCH   1   5
BRANCH   2  14
ATOM     14  C   UNL     1       6.872   4.980  14.637  0.00  0.00    +0.000 C 
BRANCH  14  15
ATOM     15  C   UNL     1       6.503   3.807  13.733  0.00  0.00    +0.000 C 
ATOM     16  C   UNL     1       4.995   3.646  13.433  0.00  0.00    +0.000 C 
ATOM     17  C   UNL     1       5.367   3.229  11.992  0.00  0.00    +0.000 C 
ATOM     18  F   UNL     1       4.589   3.752  11.020  0.00  0.00    +0.000 F 
ATOM     19  F   UNL     1       5.419   1.894  11.776  0.00  0.00    +0.000 F 
ATOM     20  C   UNL     1       6.733   3.921  12.203  0.00  0.00    +0.000 C 
ENDBRANCH  14  15
ENDBRANCH   2  14
TORSDOF 5
ENDMDL
MODEL 9
REMARK VINA RESULT:      -7.1      1.448      1.856
REMARK  Name = 
REMARK  6 active torsions:
REMARK  status: ('A' for Active; 'I' for Inactive)
REMARK    1  A    between atoms: C_1  and  O_2
REMARK    2  A    between atoms: O_2  and  C_3
REMARK    3  A    between atoms: C_7  and  C_8
REMARK    4  A    between atoms: C_8  and  N_9
REMARK    5  A    between atoms: C_10  and  C_12
REMARK    6  A    between atoms: C_12  and  C_13
REMARK                            x       y       z     vdW  Elec       q    Type
REMARK                         _______ _______ _______ _____ _____    ______ ____
ROOT
ATOM      1  N   UNL     1       5.755   5.781  16.154  0.00  0.00    +0.000 N 
ATOM      2  C   UNL     1       6.920   5.157  15.768  0.00  0.00    +0.000 C 
ATOM      3  O   UNL     1       7.691   4.612  16.563  0.00  0.00    +0.000 OA
ATOM      4  H   UNL     1       5.269   6.368  15.485  0.00  0.00    +0.000 HD
ENDROOT
BRANCH   1   5
ATOM      5  C   UNL     1       5.409   5.862  17.558  0.00  0.00    +0.000 C 
BRANCH   5  10
ATOM      6  C   UNL     1       2.731   3.194  18.138  0.00  0.00    +0.000 A 
ATOM      7  C   UNL     1       3.303   2.469  19.185  0.00  0.00    +0.000 A 
ATOM      8  C   UNL     1       4.555   2.822  19.683  0.00  0.00    +0.000 A 
ATOM      9  C   UNL     1       5.249   3.905  19.132  0.00  0.00    +0.000 A 
ATOM     10  C   UNL     1       4.699   4.637  18.077  0.00  0.00    +0.000 A 
ATOM     11  C   UNL     1       3.432   4.270  17.588  0.00  0.00    +0.000 A 
BRANCH   6  13
ATOM     12  C   UNL     1       0.527   2.564  18.784  0.00  0.00    +0.000 C 
ATOM     13  O   UNL     1       1.478   2.791  17.745  0.00  0.00    +0.000 OA
ENDBRANCH   6  13
ENDBRANCH   5  10
ENDBRANCH   1   5
BRANCH   2  14
ATOM     14  C   UNL     1       7.159   5.183  14.273  0.00  0.00    +0.000 C 
BRANCH  14  15
ATOM     15  C   UNL     1       6.690   3.928  13.543  0.00  0.00    +0.000 C 
ATOM     16  C   UNL     1       5.157   3.762  13.421  0.00  0.00    +0.000 C 
ATOM     17  C   UNL     1       5.373   3.189  12.001  0.00  0.00    +0.000 C 
ATOM     18  F   UNL     1       4.499   3.620  11.065  0.00  0.00    +0.000 F 
ATOM     19  F   UNL     1       5.395   1.838  11.924  0.00  0.00    +0.000 F 
ATOM     20  C   UNL     1       6.758   3.877  11.994  0.00  0.00    +0.000 C 
ENDBRANCH  14  15
ENDBRANCH   2  14
TORSDOF 5
ENDMDL
