MODEL 1
REMARK VINA RESULT:      -5.8      0.000      0.000
REMARK  Name = 
REMARK  4 active torsions:
REMARK  status: ('A' for Active; 'I' for Inactive)
REMARK    1  A    between atoms: C_1  and  O_2
REMARK    2  A    between atoms: O_2  and  C_3
REMARK    3  A    between atoms: C_3  and  C_5
REMARK    4  A    between atoms: C_6  and  C_7
REMARK                            x       y       z     vdW  Elec       q    Type
REMARK                         _______ _______ _______ _____ _____    ______ ____
ROOT
ATOM      1  C   UNL     1       5.701   4.524  16.674  0.00  0.00    +0.000 C 
ATOM      2  C   UNL     1       5.262   3.883  17.770  0.00  0.00    +0.000 C 
ENDROOT
BRANCH   2   3
ATOM      3  C   UNL     1       3.851   3.556  18.016  0.00  0.00    +0.000 A 
ATOM      4  C   UNL     1       2.864   4.467  17.614  0.00  0.00    +0.000 A 
ATOM      5  C   UNL     1       1.512   4.206  17.860  0.00  0.00    +0.000 A 
ATOM      6  C   UNL     1       1.133   3.025  18.494  0.00  0.00    +0.000 A 
ATOM      7  C   UNL     1       2.102   2.100  18.873  0.00  0.00    +0.000 A 
ATOM      8  C   UNL     1       3.451   2.361  18.629  0.00  0.00    +0.000 A 
ENDBRANCH   2   3
BRANCH   1   9
ATOM      9  C   UNL     1       7.145   4.739  16.474  0.00  0.00    +0.000 C 
ATOM     10  O   UNL     1       8.026   4.360  17.229  0.00  0.00    +0.000 OA
BRANCH   9  12
ATOM     11  C   UNL     1       6.768   4.734  14.178  0.00  0.00    +0.000 C 
ATOM     12  O   UNL     1       7.315   5.411  15.308  0.00  0.00    +0.000 OA
ENDBRANCH   9  12
ENDBRANCH   1   9
TORSDOF 3
ENDMDL
MODEL 2
REMARK VINA RESULT:      -5.7      0.923      2.088
REMARK  Name = 
REMARK  4 active torsions:
REMARK  status: ('A' for Active; 'I' for Inactive)
REMARK    1  A    between atoms: C_1  and  O_2
REMARK    2  A    between atoms: O_2  and  C_3
REMARK    3  A    between atoms: C_3  and  C_5
REMARK    4  A    between atoms: C_6  and  C_7
REMARK                            x       y       z     vdW  Elec       q    Type
REMARK                         _______ _______ _______ _____ _____    ______ ____
ROOT
ATOM      1  C   UNL     1       5.570   3.974  16.202  0.00  0.00    +0.000 C 
ATOM      2  C   UNL     1       4.555   4.569  16.852  0.00  0.00    +0.000 C 
ENDROOT
BRANCH   2   3
ATOM      3  C   UNL     1       3.455   3.837  17.494  0.00  0.00    +0.000 A 
ATOM      4  C   UNL     1       3.683   2.531  17.947  0.00  0.00    +0.000 A 
ATOM      5  C   UNL     1       2.652   1.791  18.533  0.00  0.00    +0.000 A 
ATOM      6  C   UNL     1       1.388   2.355  18.689  0.00  0.00    +0.000 A 
ATOM      7  C   UNL     1       1.156   3.661  18.267  0.00  0.00    +0.000 A 
ATOM      8  C   UNL     1       2.185   4.400  17.680  0.00  0.00    +0.000 A 
ENDBRANCH   2   3
BRANCH   1   9
ATOM      9  C   UNL     1       6.674   4.785  15.657  0.00  0.00    +0.000 C 
ATOM     10  O   UNL     1       6.568   5.611  14.764  0.00  0.00    +0.000 OA
BRANCH   9  12
ATOM     11  C   UNL     1       7.692   4.616  17.742  0.00  0.00    +0.000 C 
ATOM     12  O   UNL     1       7.807   4.462  16.329  0.00  0.00    +0.000 OA
ENDBRANCH   9  12
ENDBRANCH   1   9
TORSDOF 3
ENDMDL
MODEL 3
REMARK VINA RESULT:      -5.7      0.766      1.502
REMARK  Name = 
REMARK  4 active torsions:
REMARK  status: ('A' for Active; 'I' for Inactive)
REMARK    1  A    between atoms: C_1  and  O_2
REMARK    2  A    between atoms: O_2  and  C_3
REMARK    3  A    between atoms: C_3  and  C_5
REMARK    4  A    between atoms: C_6  and  C_7
REMARK                            x       y       z     vdW  Elec       q    Type
REMARK                         _______ _______ _______ _____ _____    ______ ____
ROOT
ATOM      1  C   UNL     1       5.646   4.033  16.081  0.00  0.00    +0.000 C 
ATOM      2  C   UNL     1       4.986   4.494  17.157  0.00  0.00    +0.000 C 
ENDROOT
BRANCH   2   3
ATOM      3  C   UNL     1       3.698   3.957  17.618  0.00  0.00    +0.000 A 
ATOM      4  C   UNL     1       3.548   2.570  17.745  0.00  0.00    +0.000 A 
ATOM      5  C   UNL     1       2.328   2.019  18.150  0.00  0.00    +0.000 A 
ATOM      6  C   UNL     1       1.251   2.851  18.447  0.00  0.00    +0.000 A 
ATOM      7  C   UNL     1       1.395   4.233  18.350  0.00  0.00    +0.000 A 
ATOM      8  C   UNL     1       2.613   4.782  17.946  0.00  0.00    +0.000 A 
ENDBRANCH   2   3
BRANCH   1   9
ATOM      9  C   UNL     1       6.972   4.578  15.740  0.00  0.00    +0.000 C 
ATOM     10  O   UNL     1       7.930   4.626  16.495  0.00  0.00    +0.000 OA
BRANCH   9  12
ATOM     11  C   UNL     1       6.391   4.030  13.555  0.00  0.00    +0.000 C 
ATOM     12  O   UNL     1       6.938   4.996  14.450  0.00  0.00    +0.000 OA
ENDBRANCH   9  12
ENDBRANCH   1   9
TORSDOF 3
ENDMDL
MODEL 4
REMARK VINA RESULT:      -5.7      0.887      1.692
REMARK  Name = 
REMARK  4 active torsions:
REMARK  status: ('A' for Active; 'I' for Inactive)
REMARK    1  A    between atoms: C_1  and  O_2
REMARK    2  A    between atoms: O_2  and  C_3
REMARK    3  A    between atoms: C_3  and  C_5
REMARK    4  A    between atoms: C_6  and  C_7
REMARK                            x       y       z     vdW  Elec       q    Type
REMARK                         _______ _______ _______ _____ _____    ______ ____
ROOT
ATOM      1  C   UNL     1       5.874   4.436  17.623  0.00  0.00    +0.000 C 
ATOM      2  C   UNL     1       5.177   4.033  18.699  0.00  0.00    +0.000 C 
ENDROOT
BRANCH   2   3
ATOM      3  C   UNL     1       3.745   3.708  18.672  0.00  0.00    +0.000 A 
ATOM      4  C   UNL     1       3.272   2.663  19.477  0.00  0.00    +0.000 A 
ATOM      5  C   UNL     1       1.921   2.302  19.453  0.00  0.00    +0.000 A 
ATOM      6  C   UNL     1       1.027   2.993  18.638  0.00  0.00    +0.000 A 
ATOM      7  C   UNL     1       1.480   4.051  17.854  0.00  0.00    +0.000 A 
ATOM      8  C   UNL     1       2.829   4.410  17.877  0.00  0.00    +0.000 A 
ENDBRANCH   2   3
BRANCH   1   9
ATOM      9  C   UNL     1       7.326   4.663  17.726  0.00  0.00    +0.000 C 
ATOM     10  O   UNL     1       7.925   4.940  18.753  0.00  0.00    +0.000 OA
BRANCH   9  12
ATOM     11  C   UNL     1       6.933   4.672  15.433  0.00  0.00    +0.000 C 
ATOM     12  O   UNL     1       7.869   4.495  16.495  0.00  0.00    +0.000 OA
ENDBRANCH   9  12
ENDBRANCH   1   9
TORSDOF 3
ENDMDL
MODEL 5
REMARK VINA RESULT:      -5.7      1.473      2.311
REMARK  Name = 
REMARK  4 active torsions:
REMARK  status: ('A' for Active; 'I' for Inactive)
REMARK    1  A    between atoms: C_1  and  O_2
REMARK    2  A    between atoms: O_2  and  C_3
REMARK    3  A    between atoms: C_3  and  C_5
REMARK    4  A    between atoms: C_6  and  C_7
REMARK                            x       y       z     vdW  Elec       q    Type
REMARK                         _______ _______ _______ _____ _____    ______ ____
ROOT
ATOM      1  C   UNL     1       4.491   4.762  16.783  0.00  0.00    +0.000 C 
ATOM      2  C   UNL     1       3.531   5.336  17.527  0.00  0.00    +0.000 C 
ENDROOT
BRANCH   2   3
ATOM      3  C   UNL     1       2.597   4.585  18.377  0.00  0.00    +0.000 A 
ATOM      4  C   UNL     1       2.007   3.419  17.871  0.00  0.00    +0.000 A 
ATOM      5  C   UNL     1       1.088   2.696  18.638  0.00  0.00    +0.000 A 
ATOM      6  C   UNL     1       0.764   3.121  19.924  0.00  0.00    +0.000 A 
ATOM      7  C   UNL     1       1.364   4.262  20.448  0.00  0.00    +0.000 A 
ATOM      8  C   UNL     1       2.280   4.985  19.682  0.00  0.00    +0.000 A 
ENDBRANCH   2   3
BRANCH   1   9
ATOM      9  C   UNL     1       5.436   5.600  16.023  0.00  0.00    +0.000 C 
ATOM     10  O   UNL     1       5.194   6.713  15.583  0.00  0.00    +0.000 OA
BRANCH   9  12
ATOM     11  C   UNL     1       7.236   4.676  17.171  0.00  0.00    +0.000 C 
ATOM     12  O   UNL     1       6.608   4.925  15.915  0.00  0.00    +0.000 OA
ENDBRANCH   9  12
ENDBRANCH   1   9
TORSDOF 3
ENDMDL
MODEL 6
REMARK VINA RESULT:      -5.7      1.319      2.039
REMARK  Name = 
REMARK  4 active torsions:
REMARK  status: ('A' for Active; 'I' for Inactive)
REMARK    1  A    between atoms: C_1  and  O_2
REMARK    2  A    between atoms: O_2  and  C_3
REMARK    3  A    between atoms: C_3  and  C_5
REMARK    4  A    between atoms: C_6  and  C_7
REMARK                            x       y       z     vdW  Elec       q    Type
REMARK                         _______ _______ _______ _____ _____    ______ ____
ROOT
ATOM      1  C   UNL     1       5.110   4.450  16.771  0.00  0.00    +0.000 C 
ATOM      2  C   UNL     1       4.032   5.152  17.159  0.00  0.00    +0.000 C 
ENDROOT
BRANCH   2   3
ATOM      3  C   UNL     1       2.980   4.618  18.035  0.00  0.00    +0.000 A 
ATOM      4  C   UNL     1       2.753   5.232  19.274  0.00  0.00    +0.000 A 
ATOM      5  C   UNL     1       1.783   4.732  20.149  0.00  0.00    +0.000 A 
ATOM      6  C   UNL     1       1.020   3.625  19.787  0.00  0.00    +0.000 A 
ATOM      7  C   UNL     1       1.217   3.022  18.547  0.00  0.00    +0.000 A 
ATOM      8  C   UNL     1       2.186   3.521  17.674  0.00  0.00    +0.000 A 
ENDBRANCH   2   3
BRANCH   1   9
ATOM      9  C   UNL     1       6.156   5.094  15.956  0.00  0.00    +0.000 C 
ATOM     10  O   UNL     1       5.964   5.965  15.123  0.00  0.00    +0.000 OA
BRANCH   9  12
ATOM     11  C   UNL     1       7.624   4.646  17.705  0.00  0.00    +0.000 C 
ATOM     12  O   UNL     1       7.353   4.561  16.307  0.00  0.00    +0.000 OA
ENDBRANCH   9  12
ENDBRANCH   1   9
TORSDOF 3
ENDMDL
MODEL 7
REMARK VINA RESULT:      -5.7      2.090      2.625
REMARK  Name = 
REMARK  4 active torsions:
REMARK  status: ('A' for Active; 'I' for Inactive)
REMARK    1  A    between atoms: C_1  and  O_2
REMARK    2  A    between atoms: O_2  and  C_3
REMARK    3  A    between atoms: C_3  and  C_5
REMARK    4  A    between atoms: C_6  and  C_7
REMARK                            x       y       z     vdW  Elec       q    Type
REMARK                         _______ _______ _______ _____ _____    ______ ____
ROOT
ATOM      1  C   UNL     1       4.561   6.287  17.548  0.00  0.00    +0.000 C 
ATOM      2  C   UNL     1       3.764   5.218  17.385  0.00  0.00    +0.000 C 
ENDROOT
BRANCH   2   3
ATOM      3  C   UNL     1       2.781   4.772  18.381  0.00  0.00    +0.000 A 
ATOM      4  C   UNL     1       2.644   5.499  19.571  0.00  0.00    +0.000 A 
ATOM      5  C   UNL     1       1.742   5.087  20.557  0.00  0.00    +0.000 A 
ATOM      6  C   UNL     1       0.957   3.954  20.357  0.00  0.00    +0.000 A 
ATOM      7  C   UNL     1       1.064   3.238  19.167  0.00  0.00    +0.000 A 
ATOM      8  C   UNL     1       1.965   3.649  18.183  0.00  0.00    +0.000 A 
ENDBRANCH   2   3
BRANCH   1   9
ATOM      9  C   UNL     1       5.462   6.709  16.460  0.00  0.00    +0.000 C 
ATOM     10  O   UNL     1       5.270   6.513  15.270  0.00  0.00    +0.000 OA
BRANCH   9  12
ATOM     11  C   UNL     1       7.360   6.508  17.791  0.00  0.00    +0.000 C 
ATOM     12  O   UNL     1       6.518   7.356  17.013  0.00  0.00    +0.000 OA
ENDBRANCH   9  12
ENDBRANCH   1   9
TORSDOF 3
ENDMDL
MODEL 8
REMARK VINA RESULT:      -5.6      1.109      1.421
REMARK  Name = 
REMARK  4 active torsions:
REMARK  status: ('A' for Active; 'I' for Inactive)
REMARK    1  A    between atoms: C_1  and  O_2
REMARK    2  A    between atoms: O_2  and  C_3
REMARK    3  A    between atoms: C_3  and  C_5
REMARK    4  A    between atoms: C_6  and  C_7
REMARK                            x       y       z     vdW  Elec       q    Type
REMARK                         _______ _______ _______ _____ _____    ______ ____
ROOT
ATOM      1  C   UNL     1       5.831   4.700  17.000  0.00  0.00    +0.000 C 
ATOM      2  C   UNL     1       5.299   4.178  18.118  0.00  0.00    +0.000 C 
ENDROOT
BRANCH   2   3
ATOM      3  C   UNL     1       3.889   3.784  18.246  0.00  0.00    +0.000 A 
ATOM      4  C   UNL     1       2.975   4.701  18.780  0.00  0.00    +0.000 A 
ATOM      5  C   UNL     1       1.631   4.351  18.948  0.00  0.00    +0.000 A 
ATOM      6  C   UNL     1       1.186   3.087  18.569  0.00  0.00    +0.000 A 
ATOM      7  C   UNL     1       2.080   2.176  18.012  0.00  0.00    +0.000 A 
ATOM      8  C   UNL     1       3.421   2.525  17.845  0.00  0.00    +0.000 A 
ENDBRANCH   2   3
BRANCH   1   9
ATOM      9  C   UNL     1       7.274   4.992  16.936  0.00  0.00    +0.000 C 
ATOM     10  O   UNL     1       8.164   4.226  17.270  0.00  0.00    +0.000 OA
BRANCH   9  12
ATOM     11  C   UNL     1       7.439   7.259  17.431  0.00  0.00    +0.000 C 
ATOM     12  O   UNL     1       7.431   6.241  16.432  0.00  0.00    +0.000 OA
ENDBRANCH   9  12
ENDBRANCH   1   9
TORSDOF 3
ENDMDL
MODEL 9
REMARK VINA RESULT:      -5.5      0.976      1.563
REMARK  Name = 
REMARK  4 active torsions:
REMARK  status: ('A' for Active; 'I' for Inactive)
REMARK    1  A    between atoms: C_1  and  O_2
REMARK    2  A    between atoms: O_2  and  C_3
REMARK    3  A    between atoms: C_3  and  C_5
REMARK    4  A    between atoms: C_6  and  C_7
REMARK                            x       y       z     vdW  Elec       q    Type
REMARK                         _______ _______ _______ _____ _____    ______ ____
ROOT
ATOM      1  C   UNL     1       5.597   4.806  16.148  0.00  0.00    +0.000 C 
ATOM      2  C   UNL     1       5.202   4.442  17.380  0.00  0.00    +0.000 C 
ENDROOT
BRANCH   2   3
ATOM      3  C   UNL     1       3.878   3.882  17.682  0.00  0.00    +0.000 A 
ATOM      4  C   UNL     1       2.775   4.744  17.745  0.00  0.00    +0.000 A 
ATOM      5  C   UNL     1       1.505   4.254  18.062  0.00  0.00    +0.000 A 
ATOM      6  C   UNL     1       1.321   2.894  18.302  0.00  0.00    +0.000 A 
ATOM      7  C   UNL     1       2.404   2.023  18.216  0.00  0.00    +0.000 A 
ATOM      8  C   UNL     1       3.672   2.513  17.900  0.00  0.00    +0.000 A 
ENDBRANCH   2   3
BRANCH   1   9
ATOM      9  C   UNL     1       6.973   5.283  15.925  0.00  0.00    +0.000 C 
ATOM     10  O   UNL     1       7.527   5.357  14.840  0.00  0.00    +0.000 OA
BRANCH   9  12
ATOM     11  C   UNL     1       7.518   7.043  17.347  0.00  0.00    +0.000 C 
ATOM     12  O   UNL     1       7.498   5.634  17.126  0.00  0.00    +0.000 OA
ENDBRANCH   9  12
ENDBRANCH   1   9
TORSDOF 3
ENDMDL
