MODEL 1
REMARK VINA RESULT:      -8.8      0.000      0.000
REMARK  Name = 
REMARK  12 active torsions:
REMARK  status: ('A' for Active; 'I' for Inactive)
REMARK    1  A    between atoms: C_1  and  C_2
REMARK    2  A    between atoms: C_2  and  N_3
REMARK    3  A    between atoms: N_3  and  C_4
REMARK    4  A    between atoms: C_4  and  C_5
REMARK    5  A    between atoms: C_6  and  C_8
REMARK    6  A    between atoms: C_11  and  N_12
REMARK    7  A    between atoms: N_12  and  C_13
REMARK    8  A    between atoms: N_12  and  C_21
REMARK    9  A    between atoms: C_17  and  O_18
REMARK   10  A    between atoms: O_18  and  C_19
REMARK   11  A    between atoms: N_24  and  C_25
REMARK   12  A    between atoms: C_27  and  C_28
REMARK                            x       y       z     vdW  Elec       q    Type
REMARK                         _______ _______ _______ _____ _____    ______ ____
ROOT
ATOM      1  N   UNL     1       3.316   5.417  17.768  0.00  0.00    +0.000 N 
ENDROOT
BRANCH   1   2
ATOM      2  C   UNL     1       2.673   4.084  18.135  0.00  0.00    +0.000 C 
ATOM      3  C   UNL     1       1.211   4.134  18.604  0.00  0.00    +0.000 C 
ATOM      4  C   UNL     1       0.970   4.170  20.114  0.00  0.00    +0.000 C 
ATOM      5  N   UNL     1       1.969   3.564  20.988  0.00  0.00    +0.000 NA
ATOM      6  C   UNL     1       1.477   2.419  21.729  0.00  0.00    +0.000 C 
ATOM      7  C   UNL     1       3.338   3.439  20.499  0.00  0.00    +0.000 C 
ATOM      8  C   UNL     1       3.513   3.140  19.010  0.00  0.00    +0.000 C 
ATOM      9  C   UNL     1       3.144   1.665  18.734  0.00  0.00    +0.000 C 
ENDBRANCH   1   2
BRANCH   1  13
ATOM     10  C   UNL     1       1.305   8.933  19.276  0.00  0.00    +0.000 A 
ATOM     11  C   UNL     1       1.849   7.972  20.122  0.00  0.00    +0.000 A 
ATOM     12  C   UNL     1       2.513   6.829  19.620  0.00  0.00    +0.000 A 
ATOM     13  C   UNL     1       2.796   6.637  18.267  0.00  0.00    +0.000 A 
ATOM     14  C   UNL     1       2.428   7.715  17.461  0.00  0.00    +0.000 A 
ATOM     15  C   UNL     1       1.637   8.786  17.925  0.00  0.00    +0.000 A 
BRANCH  10  17
ATOM     16  N   UNL     1       0.130  10.555  20.937  0.00  0.00    +0.000 N 
ATOM     17  C   UNL     1       0.393  10.095  19.625  0.00  0.00    +0.000 C 
ATOM     18  O   UNL     1      -0.150  10.659  18.667  0.00  0.00    +0.000 OA
BRANCH  16  20
ATOM     19  C   UNL     1       0.036  13.009  21.410  0.00  0.00    +0.000 C 
ATOM     20  C   UNL     1      -0.731  11.743  21.051  0.00  0.00    +0.000 C 
ENDBRANCH  16  20
BRANCH  16  21
ATOM     21  C   UNL     1       0.695   9.959  22.142  0.00  0.00    +0.000 C 
ATOM     22  C   UNL     1      -0.216   9.466  23.253  0.00  0.00    +0.000 C 
ENDBRANCH  16  21
ENDBRANCH  10  17
ENDBRANCH   1  13
BRANCH   1  23
ATOM     23  C   UNL     1       4.574   5.267  17.069  0.00  0.00    +0.000 A 
ATOM     24  C   UNL     1       4.836   4.232  16.155  0.00  0.00    +0.000 A 
ATOM     25  C   UNL     1       6.017   4.162  15.405  0.00  0.00    +0.000 A 
ATOM     26  C   UNL     1       7.010   5.111  15.598  0.00  0.00    +0.000 A 
ATOM     27  C   UNL     1       6.847   6.100  16.555  0.00  0.00    +0.000 A 
ATOM     28  C   UNL     1       5.641   6.165  17.291  0.00  0.00    +0.000 A 
BRANCH  27  29
ATOM     29  O   UNL     1       7.908   6.947  16.667  0.00  0.00    +0.000 OA
ATOM     30  C   UNL     1       7.796   8.003  17.607  0.00  0.00    +0.000 C 
ENDBRANCH  27  29
ENDBRANCH   1  23
TORSDOF 7
ENDMDL
MODEL 2
REMARK VINA RESULT:      -8.7      1.423      2.191
REMARK  Name = 
REMARK  12 active torsions:
REMARK  status: ('A' for Active; 'I' for Inactive)
REMARK    1  A    between atoms: C_1  and  C_2
REMARK    2  A    between atoms: C_2  and  N_3
REMARK    3  A    between atoms: N_3  and  C_4
REMARK    4  A    between atoms: C_4  and  C_5
REMARK    5  A    between atoms: C_6  and  C_8
REMARK    6  A    between atoms: C_11  and  N_12
REMARK    7  A    between atoms: N_12  and  C_13
REMARK    8  A    between atoms: N_12  and  C_21
REMARK    9  A    between atoms: C_17  and  O_18
REMARK   10  A    between atoms: O_18  and  C_19
REMARK   11  A    between atoms: N_24  and  C_25
REMARK   12  A    between atoms: C_27  and  C_28
REMARK                            x       y       z     vdW  Elec       q    Type
REMARK                         _______ _______ _______ _____ _____    ______ ____
ROOT
ATOM      1  N   UNL     1       3.479   5.760  18.283  0.00  0.00    +0.000 N 
ENDROOT
BRANCH   1   2
ATOM      2  C   UNL     1       2.729   4.440  18.427  0.00  0.00    +0.000 C 
ATOM      3  C   UNL     1       1.276   4.527  18.917  0.00  0.00    +0.000 C 
ATOM      4  C   UNL     1       1.038   4.323  20.414  0.00  0.00    +0.000 C 
ATOM      5  N   UNL     1       1.984   3.499  21.158  0.00  0.00    +0.000 NA
ATOM      6  C   UNL     1       1.401   2.287  21.700  0.00  0.00    +0.000 C 
ATOM      7  C   UNL     1       3.338   3.349  20.636  0.00  0.00    +0.000 C 
ATOM      8  C   UNL     1       3.490   3.296  19.117  0.00  0.00    +0.000 C 
ATOM      9  C   UNL     1       3.001   1.925  18.598  0.00  0.00    +0.000 C 
ENDBRANCH   1   2
BRANCH   1  13
ATOM     10  C   UNL     1       1.098   9.294  19.008  0.00  0.00    +0.000 A 
ATOM     11  C   UNL     1       1.553   8.483  20.044  0.00  0.00    +0.000 A 
ATOM     12  C   UNL     1       2.339   7.334  19.797  0.00  0.00    +0.000 A 
ATOM     13  C   UNL     1       2.831   6.995  18.537  0.00  0.00    +0.000 A 
ATOM     14  C   UNL     1       2.539   7.938  17.551  0.00  0.00    +0.000 A 
ATOM     15  C   UNL     1       1.637   9.003  17.751  0.00  0.00    +0.000 A 
BRANCH  10  17
ATOM     16  N   UNL     1       0.414  11.795  19.214  0.00  0.00    +0.000 N 
ATOM     17  C   UNL     1       0.089  10.427  19.066  0.00  0.00    +0.000 C 
ATOM     18  O   UNL     1      -1.099  10.094  18.979  0.00  0.00    +0.000 OA
BRANCH  16  20
ATOM     19  C   UNL     1      -0.494  13.972  20.048  0.00  0.00    +0.000 C 
ATOM     20  C   UNL     1      -0.713  12.741  19.177  0.00  0.00    +0.000 C 
ENDBRANCH  16  20
BRANCH  16  21
ATOM     21  C   UNL     1       1.774  12.304  19.346  0.00  0.00    +0.000 C 
ATOM     22  C   UNL     1       2.561  12.718  18.114  0.00  0.00    +0.000 C 
ENDBRANCH  16  21
ENDBRANCH  10  17
ENDBRANCH   1  13
BRANCH   1  23
ATOM     23  C   UNL     1       4.901   5.586  18.082  0.00  0.00    +0.000 A 
ATOM     24  C   UNL     1       5.850   5.682  19.115  0.00  0.00    +0.000 A 
ATOM     25  C   UNL     1       7.209   5.404  18.925  0.00  0.00    +0.000 A 
ATOM     26  C   UNL     1       7.673   5.073  17.661  0.00  0.00    +0.000 A 
ATOM     27  C   UNL     1       6.799   5.056  16.585  0.00  0.00    +0.000 A 
ATOM     28  C   UNL     1       5.427   5.325  16.798  0.00  0.00    +0.000 A 
BRANCH  27  29
ATOM     29  O   UNL     1       7.387   4.750  15.394  0.00  0.00    +0.000 OA
ATOM     30  C   UNL     1       6.556   4.198  14.386  0.00  0.00    +0.000 C 
ENDBRANCH  27  29
ENDBRANCH   1  23
TORSDOF 7
ENDMDL
MODEL 3
REMARK VINA RESULT:      -8.6      0.962      1.564
REMARK  Name = 
REMARK  12 active torsions:
REMARK  status: ('A' for Active; 'I' for Inactive)
REMARK    1  A    between atoms: C_1  and  C_2
REMARK    2  A    between atoms: C_2  and  N_3
REMARK    3  A    between atoms: N_3  and  C_4
REMARK    4  A    between atoms: C_4  and  C_5
REMARK    5  A    between atoms: C_6  and  C_8
REMARK    6  A    between atoms: C_11  and  N_12
REMARK    7  A    between atoms: N_12  and  C_13
REMARK    8  A    between atoms: N_12  and  C_21
REMARK    9  A    between atoms: C_17  and  O_18
REMARK   10  A    between atoms: O_18  and  C_19
REMARK   11  A    between atoms: N_24  and  C_25
REMARK   12  A    between atoms: C_27  and  C_28
REMARK                            x       y       z     vdW  Elec       q    Type
REMARK                         _______ _______ _______ _____ _____    ______ ____
ROOT
ATOM      1  N   UNL     1       3.559   5.486  18.060  0.00  0.00    +0.000 N 
ENDROOT
BRANCH   1   2
ATOM      2  C   UNL     1       2.838   4.161  18.280  0.00  0.00    +0.000 C 
ATOM      3  C   UNL     1       1.350   4.243  18.650  0.00  0.00    +0.000 C 
ATOM      4  C   UNL     1       1.003   4.178  20.139  0.00  0.00    +0.000 C 
ATOM      5  N   UNL     1       1.912   3.466  21.030  0.00  0.00    +0.000 NA
ATOM      6  C   UNL     1       1.323   2.293  21.647  0.00  0.00    +0.000 C 
ATOM      7  C   UNL     1       3.306   3.315  20.627  0.00  0.00    +0.000 C 
ATOM      8  C   UNL     1       3.575   3.118  19.136  0.00  0.00    +0.000 C 
ATOM      9  C   UNL     1       3.167   1.685  18.724  0.00  0.00    +0.000 C 
ENDBRANCH   1   2
BRANCH   1  13
ATOM     10  C   UNL     1       1.314   9.006  19.181  0.00  0.00    +0.000 A 
ATOM     11  C   UNL     1       1.798   8.105  20.125  0.00  0.00    +0.000 A 
ATOM     12  C   UNL     1       2.539   6.961  19.749  0.00  0.00    +0.000 A 
ATOM     13  C   UNL     1       2.959   6.712  18.442  0.00  0.00    +0.000 A 
ATOM     14  C   UNL     1       2.643   7.736  17.549  0.00  0.00    +0.000 A 
ATOM     15  C   UNL     1       1.782   8.803  17.878  0.00  0.00    +0.000 A 
BRANCH  10  17
ATOM     16  N   UNL     1      -0.020  10.705  20.630  0.00  0.00    +0.000 N 
ATOM     17  C   UNL     1       0.341  10.154  19.378  0.00  0.00    +0.000 C 
ATOM     18  O   UNL     1      -0.161  10.617  18.347  0.00  0.00    +0.000 OA
BRANCH  16  20
ATOM     19  C   UNL     1      -0.224  13.187  20.859  0.00  0.00    +0.000 C 
ATOM     20  C   UNL     1      -0.928  11.862  20.595  0.00  0.00    +0.000 C 
ENDBRANCH  16  20
BRANCH  16  21
ATOM     21  C   UNL     1       0.490  10.231  21.911  0.00  0.00    +0.000 C 
ATOM     22  C   UNL     1      -0.418   9.474  22.865  0.00  0.00    +0.000 C 
ENDBRANCH  16  21
ENDBRANCH  10  17
ENDBRANCH   1  13
BRANCH   1  23
ATOM     23  C   UNL     1       4.934   5.321  17.640  0.00  0.00    +0.000 A 
ATOM     24  C   UNL     1       6.030   5.419  18.515  0.00  0.00    +0.000 A 
ATOM     25  C   UNL     1       7.345   5.151  18.116  0.00  0.00    +0.000 A 
ATOM     26  C   UNL     1       7.610   4.827  16.793  0.00  0.00    +0.000 A 
ATOM     27  C   UNL     1       6.580   4.809  15.866  0.00  0.00    +0.000 A 
ATOM     28  C   UNL     1       5.255   5.068  16.290  0.00  0.00    +0.000 A 
BRANCH  27  29
ATOM     29  O   UNL     1       6.978   4.511  14.597  0.00  0.00    +0.000 OA
ATOM     30  C   UNL     1       6.029   3.882  13.752  0.00  0.00    +0.000 C 
ENDBRANCH  27  29
ENDBRANCH   1  23
TORSDOF 7
ENDMDL
MODEL 4
REMARK VINA RESULT:      -8.6      1.837      2.896
REMARK  Name = 
REMARK  12 active torsions:
REMARK  status: ('A' for Active; 'I' for Inactive)
REMARK    1  A    between atoms: C_1  and  C_2
REMARK    2  A    between atoms: C_2  and  N_3
REMARK    3  A    between atoms: N_3  and  C_4
REMARK    4  A    between atoms: C_4  and  C_5
REMARK    5  A    between atoms: C_6  and  C_8
REMARK    6  A    between atoms: C_11  and  N_12
REMARK    7  A    between atoms: N_12  and  C_13
REMARK    8  A    between atoms: N_12  and  C_21
REMARK    9  A    between atoms: C_17  and  O_18
REMARK   10  A    between atoms: O_18  and  C_19
REMARK   11  A    between atoms: N_24  and  C_25
REMARK   12  A    between atoms: C_27  and  C_28
REMARK                            x       y       z     vdW  Elec       q    Type
REMARK                         _______ _______ _______ _____ _____    ______ ____
ROOT
ATOM      1  N   UNL     1       3.163   6.266  18.503  0.00  0.00    +0.000 N 
ENDROOT
BRANCH   1   2
ATOM      2  C   UNL     1       2.526   4.974  19.001  0.00  0.00    +0.000 C 
ATOM      3  C   UNL     1       3.245   4.253  20.151  0.00  0.00    +0.000 C 
ATOM      4  C   UNL     1       4.200   3.121  19.768  0.00  0.00    +0.000 C 
ATOM      5  N   UNL     1       3.947   2.393  18.529  0.00  0.00    +0.000 NA
ATOM      6  C   UNL     1       3.624   0.994  18.732  0.00  0.00    +0.000 C 
ATOM      7  C   UNL     1       3.184   3.054  17.476  0.00  0.00    +0.000 C 
ATOM      8  C   UNL     1       2.057   3.985  17.922  0.00  0.00    +0.000 C 
ATOM      9  C   UNL     1       0.866   3.143  18.432  0.00  0.00    +0.000 C 
ENDBRANCH   1   2
BRANCH   1  13
ATOM     10  C   UNL     1       0.878   9.883  19.117  0.00  0.00    +0.000 A 
ATOM     11  C   UNL     1       1.141   8.990  20.150  0.00  0.00    +0.000 A 
ATOM     12  C   UNL     1       1.897   7.813  19.942  0.00  0.00    +0.000 A 
ATOM     13  C   UNL     1       2.547   7.519  18.743  0.00  0.00    +0.000 A 
ATOM     14  C   UNL     1       2.445   8.533  17.789  0.00  0.00    +0.000 A 
ATOM     15  C   UNL     1       1.577   9.634  17.930  0.00  0.00    +0.000 A 
BRANCH  10  17
ATOM     16  N   UNL     1      -1.365  11.065  18.535  0.00  0.00    +0.000 N 
ATOM     17  C   UNL     1      -0.071  11.067  19.106  0.00  0.00    +0.000 C 
ATOM     18  O   UNL     1       0.351  12.100  19.641  0.00  0.00    +0.000 OA
BRANCH  16  20
ATOM     19  C   UNL     1      -3.445  12.091  19.471  0.00  0.00    +0.000 C 
ATOM     20  C   UNL     1      -2.151  12.299  18.695  0.00  0.00    +0.000 C 
ENDBRANCH  16  20
BRANCH  16  21
ATOM     21  C   UNL     1      -1.961   9.916  17.862  0.00  0.00    +0.000 C 
ATOM     22  C   UNL     1      -2.481  10.046  16.440  0.00  0.00    +0.000 C 
ENDBRANCH  16  21
ENDBRANCH  10  17
ENDBRANCH   1  13
BRANCH   1  23
ATOM     23  C   UNL     1       4.499   6.076  17.979  0.00  0.00    +0.000 A 
ATOM     24  C   UNL     1       5.637   5.928  18.790  0.00  0.00    +0.000 A 
ATOM     25  C   UNL     1       6.905   5.636  18.273  0.00  0.00    +0.000 A 
ATOM     26  C   UNL     1       7.082   5.540  16.900  0.00  0.00    +0.000 A 
ATOM     27  C   UNL     1       6.014   5.770  16.047  0.00  0.00    +0.000 A 
ATOM     28  C   UNL     1       4.737   6.048  16.588  0.00  0.00    +0.000 A 
BRANCH  27  29
ATOM     29  O   UNL     1       6.328   5.678  14.724  0.00  0.00    +0.000 OA
ATOM     30  C   UNL     1       6.616   4.386  14.216  0.00  0.00    +0.000 C 
ENDBRANCH  27  29
ENDBRANCH   1  23
TORSDOF 7
ENDMDL
MODEL 5
REMARK VINA RESULT:      -8.6      1.141      1.696
REMARK  Name = 
REMARK  12 active torsions:
REMARK  status: ('A' for Active; 'I' for Inactive)
REMARK    1  A    between atoms: C_1  and  C_2
REMARK    2  A    between atoms: C_2  and  N_3
REMARK    3  A    between atoms: N_3  and  C_4
REMARK    4  A    between atoms: C_4  and  C_5
REMARK    5  A    between atoms: C_6  and  C_8
REMARK    6  A    between atoms: C_11  and  N_12
REMARK    7  A    between atoms: N_12  and  C_13
REMARK    8  A    between atoms: N_12  and  C_21
REMARK    9  A    between atoms: C_17  and  O_18
REMARK   10  A    between atoms: O_18  and  C_19
REMARK   11  A    between atoms: N_24  and  C_25
REMARK   12  A    between atoms: C_27  and  C_28
REMARK                            x       y       z     vdW  Elec       q    Type
REMARK                         _______ _______ _______ _____ _____    ______ ____
ROOT
ATOM      1  N   UNL     1       3.294   5.492  17.786  0.00  0.00    +0.000 N 
ENDROOT
BRANCH   1   2
ATOM      2  C   UNL     1       2.629   4.165  18.137  0.00  0.00    +0.000 C 
ATOM      3  C   UNL     1       1.181   4.236  18.642  0.00  0.00    +0.000 C 
ATOM      4  C   UNL     1       0.977   4.239  20.158  0.00  0.00    +0.000 C 
ATOM      5  N   UNL     1       1.983   3.591  20.992  0.00  0.00    +0.000 NA
ATOM      6  C   UNL     1       1.483   2.438  21.717  0.00  0.00    +0.000 C 
ATOM      7  C   UNL     1       3.336   3.446  20.466  0.00  0.00    +0.000 C 
ATOM      8  C   UNL     1       3.469   3.181  18.967  0.00  0.00    +0.000 C 
ATOM      9  C   UNL     1       3.059   1.722  18.664  0.00  0.00    +0.000 C 
ENDBRANCH   1   2
BRANCH   1  13
ATOM     10  C   UNL     1       1.343   9.029  19.323  0.00  0.00    +0.000 A 
ATOM     11  C   UNL     1       1.818   8.023  20.159  0.00  0.00    +0.000 A 
ATOM     12  C   UNL     1       2.463   6.873  19.648  0.00  0.00    +0.000 A 
ATOM     13  C   UNL     1       2.795   6.713  18.302  0.00  0.00    +0.000 A 
ATOM     14  C   UNL     1       2.499   7.828  17.517  0.00  0.00    +0.000 A 
ATOM     15  C   UNL     1       1.726   8.911  17.983  0.00  0.00    +0.000 A 
BRANCH  10  17
ATOM     16  N   UNL     1      -0.767  10.523  19.037  0.00  0.00    +0.000 N 
ATOM     17  C   UNL     1       0.458  10.211  19.672  0.00  0.00    +0.000 C 
ATOM     18  O   UNL     1       0.870  10.942  20.581  0.00  0.00    +0.000 OA
BRANCH  16  20
ATOM     19  C   UNL     1      -1.025  13.011  19.015  0.00  0.00    +0.000 C 
ATOM     20  C   UNL     1      -1.505  11.677  19.574  0.00  0.00    +0.000 C 
ENDBRANCH  16  20
BRANCH  16  21
ATOM     21  C   UNL     1      -1.342   9.749  17.943  0.00  0.00    +0.000 C 
ATOM     22  C   UNL     1      -2.188  10.433  16.882  0.00  0.00    +0.000 C 
ENDBRANCH  16  21
ENDBRANCH  10  17
ENDBRANCH   1  13
BRANCH   1  23
ATOM     23  C   UNL     1       4.548   5.330  17.082  0.00  0.00    +0.000 A 
ATOM     24  C   UNL     1       4.803   4.283  16.179  0.00  0.00    +0.000 A 
ATOM     25  C   UNL     1       5.979   4.201  15.424  0.00  0.00    +0.000 A 
ATOM     26  C   UNL     1       6.976   5.150  15.599  0.00  0.00    +0.000 A 
ATOM     27  C   UNL     1       6.820   6.151  16.545  0.00  0.00    +0.000 A 
ATOM     28  C   UNL     1       5.618   6.227  17.287  0.00  0.00    +0.000 A 
BRANCH  27  29
ATOM     29  O   UNL     1       7.884   6.997  16.641  0.00  0.00    +0.000 OA
ATOM     30  C   UNL     1       7.815   8.012  17.630  0.00  0.00    +0.000 C 
ENDBRANCH  27  29
ENDBRANCH   1  23
TORSDOF 7
ENDMDL
MODEL 6
REMARK VINA RESULT:      -8.6      0.977      1.514
REMARK  Name = 
REMARK  12 active torsions:
REMARK  status: ('A' for Active; 'I' for Inactive)
REMARK    1  A    between atoms: C_1  and  C_2
REMARK    2  A    between atoms: C_2  and  N_3
REMARK    3  A    between atoms: N_3  and  C_4
REMARK    4  A    between atoms: C_4  and  C_5
REMARK    5  A    between atoms: C_6  and  C_8
REMARK    6  A    between atoms: C_11  and  N_12
REMARK    7  A    between atoms: N_12  and  C_13
REMARK    8  A    between atoms: N_12  and  C_21
REMARK    9  A    between atoms: C_17  and  O_18
REMARK   10  A    between atoms: O_18  and  C_19
REMARK   11  A    between atoms: N_24  and  C_25
REMARK   12  A    between atoms: C_27  and  C_28
REMARK                            x       y       z     vdW  Elec       q    Type
REMARK                         _______ _______ _______ _____ _____    ______ ____
ROOT
ATOM      1  N   UNL     1       3.319   5.426  17.762  0.00  0.00    +0.000 N 
ENDROOT
BRANCH   1   2
ATOM      2  C   UNL     1       2.676   4.094  18.132  0.00  0.00    +0.000 C 
ATOM      3  C   UNL     1       1.208   4.143  18.583  0.00  0.00    +0.000 C 
ATOM      4  C   UNL     1       0.949   4.188  20.090  0.00  0.00    +0.000 C 
ATOM      5  N   UNL     1       1.940   3.593  20.980  0.00  0.00    +0.000 NA
ATOM      6  C   UNL     1       1.444   2.451  21.723  0.00  0.00    +0.000 C 
ATOM      7  C   UNL     1       3.315   3.468  20.508  0.00  0.00    +0.000 C 
ATOM      8  C   UNL     1       3.509   3.160  19.024  0.00  0.00    +0.000 C 
ATOM      9  C   UNL     1       3.148   1.681  18.754  0.00  0.00    +0.000 C 
ENDBRANCH   1   2
BRANCH   1  13
ATOM     10  C   UNL     1       1.310   8.933  19.294  0.00  0.00    +0.000 A 
ATOM     11  C   UNL     1       1.937   8.016  20.131  0.00  0.00    +0.000 A 
ATOM     12  C   UNL     1       2.600   6.876  19.620  0.00  0.00    +0.000 A 
ATOM     13  C   UNL     1       2.797   6.647  18.258  0.00  0.00    +0.000 A 
ATOM     14  C   UNL     1       2.345   7.688  17.446  0.00  0.00    +0.000 A 
ATOM     15  C   UNL     1       1.555   8.751  17.929  0.00  0.00    +0.000 A 
BRANCH  10  17
ATOM     16  N   UNL     1       0.666  11.450  19.442  0.00  0.00    +0.000 N 
ATOM     17  C   UNL     1       0.390  10.081  19.668  0.00  0.00    +0.000 C 
ATOM     18  O   UNL     1      -0.673   9.762  20.215  0.00  0.00    +0.000 OA
BRANCH  16  20
ATOM     19  C   UNL     1      -0.200  12.995  21.207  0.00  0.00    +0.000 C 
ATOM     20  C   UNL     1      -0.393  12.400  19.818  0.00  0.00    +0.000 C 
ENDBRANCH  16  20
BRANCH  16  21
ATOM     21  C   UNL     1       1.890  11.946  18.824  0.00  0.00    +0.000 C 
ATOM     22  C   UNL     1       2.041  13.423  18.499  0.00  0.00    +0.000 C 
ENDBRANCH  16  21
ENDBRANCH  10  17
ENDBRANCH   1  13
BRANCH   1  23
ATOM     23  C   UNL     1       4.578   5.275  17.065  0.00  0.00    +0.000 A 
ATOM     24  C   UNL     1       4.848   4.228  16.167  0.00  0.00    +0.000 A 
ATOM     25  C   UNL     1       6.029   4.155  15.419  0.00  0.00    +0.000 A 
ATOM     26  C   UNL     1       7.015   5.115  15.596  0.00  0.00    +0.000 A 
ATOM     27  C   UNL     1       6.844   6.118  16.537  0.00  0.00    +0.000 A 
ATOM     28  C   UNL     1       5.637   6.185  17.273  0.00  0.00    +0.000 A 
BRANCH  27  29
ATOM     29  O   UNL     1       7.898   6.975  16.636  0.00  0.00    +0.000 OA
ATOM     30  C   UNL     1       7.779   8.043  17.561  0.00  0.00    +0.000 C 
ENDBRANCH  27  29
ENDBRANCH   1  23
TORSDOF 7
ENDMDL
MODEL 7
REMARK VINA RESULT:      -8.6      1.459      2.362
REMARK  Name = 
REMARK  12 active torsions:
REMARK  status: ('A' for Active; 'I' for Inactive)
REMARK    1  A    between atoms: C_1  and  C_2
REMARK    2  A    between atoms: C_2  and  N_3
REMARK    3  A    between atoms: N_3  and  C_4
REMARK    4  A    between atoms: C_4  and  C_5
REMARK    5  A    between atoms: C_6  and  C_8
REMARK    6  A    between atoms: C_11  and  N_12
REMARK    7  A    between atoms: N_12  and  C_13
REMARK    8  A    between atoms: N_12  and  C_21
REMARK    9  A    between atoms: C_17  and  O_18
REMARK   10  A    between atoms: O_18  and  C_19
REMARK   11  A    between atoms: N_24  and  C_25
REMARK   12  A    between atoms: C_27  and  C_28
REMARK                            x       y       z     vdW  Elec       q    Type
REMARK                         _______ _______ _______ _____ _____    ______ ____
ROOT
ATOM      1  N   UNL     1       3.441   5.516  18.363  0.00  0.00    +0.000 N 
ENDROOT
BRANCH   1   2
ATOM      2  C   UNL     1       2.841   4.130  18.568  0.00  0.00    +0.000 C 
ATOM      3  C   UNL     1       1.327   4.069  18.819  0.00  0.00    +0.000 C 
ATOM      4  C   UNL     1       0.870   4.004  20.278  0.00  0.00    +0.000 C 
ATOM      5  N   UNL     1       1.771   3.409  21.258  0.00  0.00    +0.000 NA
ATOM      6  C   UNL     1       1.255   2.197  21.864  0.00  0.00    +0.000 C 
ATOM      7  C   UNL     1       3.201   3.391  20.970  0.00  0.00    +0.000 C 
ATOM      8  C   UNL     1       3.607   3.188  19.511  0.00  0.00    +0.000 C 
ATOM      9  C   UNL     1       3.379   1.712  19.113  0.00  0.00    +0.000 C 
ENDBRANCH   1   2
BRANCH   1  13
ATOM     10  C   UNL     1       1.445   9.312  18.906  0.00  0.00    +0.000 A 
ATOM     11  C   UNL     1       1.691   8.779  17.645  0.00  0.00    +0.000 A 
ATOM     12  C   UNL     1       2.337   7.532  17.477  0.00  0.00    +0.000 A 
ATOM     13  C   UNL     1       2.654   6.682  18.537  0.00  0.00    +0.000 A 
ATOM     14  C   UNL     1       2.207   7.143  19.775  0.00  0.00    +0.000 A 
ATOM     15  C   UNL     1       1.699   8.443  19.973  0.00  0.00    +0.000 A 
BRANCH  10  17
ATOM     16  N   UNL     1      -0.382  11.141  19.195  0.00  0.00    +0.000 N 
ATOM     17  C   UNL     1       0.961  10.704  19.269  0.00  0.00    +0.000 C 
ATOM     18  O   UNL     1       1.833  11.494  19.648  0.00  0.00    +0.000 OA
BRANCH  16  20
ATOM     19  C   UNL     1      -0.517  13.555  18.557  0.00  0.00    +0.000 C 
ATOM     20  C   UNL     1      -0.648  12.511  19.659  0.00  0.00    +0.000 C 
ENDBRANCH  16  20
BRANCH  16  21
ATOM     21  C   UNL     1      -1.490  10.307  18.744  0.00  0.00    +0.000 C 
ATOM     22  C   UNL     1      -1.767  10.135  17.260  0.00  0.00    +0.000 C 
ENDBRANCH  16  21
ENDBRANCH  10  17
ENDBRANCH   1  13
BRANCH   1  23
ATOM     23  C   UNL     1       4.878   5.493  18.195  0.00  0.00    +0.000 A 
ATOM     24  C   UNL     1       5.787   5.744  19.238  0.00  0.00    +0.000 A 
ATOM     25  C   UNL     1       7.173   5.611  19.085  0.00  0.00    +0.000 A 
ATOM     26  C   UNL     1       7.699   5.275  17.847  0.00  0.00    +0.000 A 
ATOM     27  C   UNL     1       6.856   5.109  16.759  0.00  0.00    +0.000 A 
ATOM     28  C   UNL     1       5.458   5.232  16.935  0.00  0.00    +0.000 A 
BRANCH  27  29
ATOM     29  O   UNL     1       7.501   4.815  15.595  0.00  0.00    +0.000 OA
ATOM     30  C   UNL     1       6.706   4.698  14.426  0.00  0.00    +0.000 C 
ENDBRANCH  27  29
ENDBRANCH   1  23
TORSDOF 7
ENDMDL
MODEL 8
REMARK VINA RESULT:      -8.6      1.536      2.401
REMARK  Name = 
REMARK  12 active torsions:
REMARK  status: ('A' for Active; 'I' for Inactive)
REMARK    1  A    between atoms: C_1  and  C_2
REMARK    2  A    between atoms: C_2  and  N_3
REMARK    3  A    between atoms: N_3  and  C_4
REMARK    4  A    between atoms: C_4  and  C_5
REMARK    5  A    between atoms: C_6  and  C_8
REMARK    6  A    between atoms: C_11  and  N_12
REMARK    7  A    between atoms: N_12  and  C_13
REMARK    8  A    between atoms: N_12  and  C_21
REMARK    9  A    between atoms: C_17  and  O_18
REMARK   10  A    between atoms: O_18  and  C_19
REMARK   11  A    between atoms: N_24  and  C_25
REMARK   12  A    between atoms: C_27  and  C_28
REMARK                            x       y       z     vdW  Elec       q    Type
REMARK                         _______ _______ _______ _____ _____    ______ ____
ROOT
ATOM      1  N   UNL     1       3.481   5.527  17.764  0.00  0.00    +0.000 N 
ENDROOT
BRANCH   1   2
ATOM      2  C   UNL     1       2.798   4.198  18.068  0.00  0.00    +0.000 C 
ATOM      3  C   UNL     1       1.332   4.267  18.520  0.00  0.00    +0.000 C 
ATOM      4  C   UNL     1       1.072   4.247  20.027  0.00  0.00    +0.000 C 
ATOM      5  N   UNL     1       2.043   3.581  20.887  0.00  0.00    +0.000 NA
ATOM      6  C   UNL     1       1.512   2.419  21.575  0.00  0.00    +0.000 C 
ATOM      7  C   UNL     1       3.414   3.439  20.411  0.00  0.00    +0.000 C 
ATOM      8  C   UNL     1       3.602   3.197  18.914  0.00  0.00    +0.000 C 
ATOM      9  C   UNL     1       3.199   1.745  18.572  0.00  0.00    +0.000 C 
ENDBRANCH   1   2
BRANCH   1  13
ATOM     10  C   UNL     1       1.443   9.059  19.198  0.00  0.00    +0.000 A 
ATOM     11  C   UNL     1       1.835   8.032  20.052  0.00  0.00    +0.000 A 
ATOM     12  C   UNL     1       2.508   6.884  19.575  0.00  0.00    +0.000 A 
ATOM     13  C   UNL     1       2.952   6.745  18.260  0.00  0.00    +0.000 A 
ATOM     14  C   UNL     1       2.735   7.877  17.474  0.00  0.00    +0.000 A 
ATOM     15  C   UNL     1       1.937   8.961  17.893  0.00  0.00    +0.000 A 
BRANCH  10  17
ATOM     16  N   UNL     1      -0.643  10.559  18.791  0.00  0.00    +0.000 N 
ATOM     17  C   UNL     1       0.544  10.245  19.494  0.00  0.00    +0.000 C 
ATOM     18  O   UNL     1       0.907  10.978  20.421  0.00  0.00    +0.000 OA
BRANCH  16  20
ATOM     19  C   UNL     1      -0.936  13.040  18.692  0.00  0.00    +0.000 C 
ATOM     20  C   UNL     1      -1.406  11.717  19.283  0.00  0.00    +0.000 C 
ENDBRANCH  16  20
BRANCH  16  21
ATOM     21  C   UNL     1      -1.160   9.782  17.670  0.00  0.00    +0.000 C 
ATOM     22  C   UNL     1      -2.570  10.020  17.158  0.00  0.00    +0.000 C 
ENDBRANCH  16  21
ENDBRANCH  10  17
ENDBRANCH   1  13
BRANCH   1  23
ATOM     23  C   UNL     1       4.772   5.370  17.130  0.00  0.00    +0.000 A 
ATOM     24  C   UNL     1       5.943   5.999  17.588  0.00  0.00    +0.000 A 
ATOM     25  C   UNL     1       7.204   5.752  17.031  0.00  0.00    +0.000 A 
ATOM     26  C   UNL     1       7.320   4.899  15.943  0.00  0.00    +0.000 A 
ATOM     27  C   UNL     1       6.186   4.325  15.389  0.00  0.00    +0.000 A 
ATOM     28  C   UNL     1       4.922   4.573  15.975  0.00  0.00    +0.000 A 
BRANCH  27  29
ATOM     29  O   UNL     1       6.433   3.536  14.306  0.00  0.00    +0.000 OA
ATOM     30  C   UNL     1       5.712   3.823  13.119  0.00  0.00    +0.000 C 
ENDBRANCH  27  29
ENDBRANCH   1  23
TORSDOF 7
ENDMDL
MODEL 9
REMARK VINA RESULT:      -8.5      1.737      2.712
REMARK  Name = 
REMARK  12 active torsions:
REMARK  status: ('A' for Active; 'I' for Inactive)
REMARK    1  A    between atoms: C_1  and  C_2
REMARK    2  A    between atoms: C_2  and  N_3
REMARK    3  A    between atoms: N_3  and  C_4
REMARK    4  A    between atoms: C_4  and  C_5
REMARK    5  A    between atoms: C_6  and  C_8
REMARK    6  A    between atoms: C_11  and  N_12
REMARK    7  A    between atoms: N_12  and  C_13
REMARK    8  A    between atoms: N_12  and  C_21
REMARK    9  A    between atoms: C_17  and  O_18
REMARK   10  A    between atoms: O_18  and  C_19
REMARK   11  A    between atoms: N_24  and  C_25
REMARK   12  A    between atoms: C_27  and  C_28
REMARK                            x       y       z     vdW  Elec       q    Type
REMARK                         _______ _______ _______ _____ _____    ______ ____
ROOT
ATOM      1  N   UNL     1       3.197   6.214  18.518  0.00  0.00    +0.000 N 
ENDROOT
BRANCH   1   2
ATOM      2  C   UNL     1       2.591   4.913  19.034  0.00  0.00    +0.000 C 
ATOM      3  C   UNL     1       3.386   4.169  20.116  0.00  0.00    +0.000 C 
ATOM      4  C   UNL     1       4.308   3.043  19.645  0.00  0.00    +0.000 C 
ATOM      5  N   UNL     1       3.968   2.340  18.413  0.00  0.00    +0.000 NA
ATOM      6  C   UNL     1       3.655   0.938  18.610  0.00  0.00    +0.000 C 
ATOM      7  C   UNL     1       3.136   3.023  17.429  0.00  0.00    +0.000 C 
ATOM      8  C   UNL     1       2.045   3.947  17.970  0.00  0.00    +0.000 C 
ATOM      9  C   UNL     1       0.890   3.097  18.544  0.00  0.00    +0.000 C 
ENDBRANCH   1   2
BRANCH   1  13
ATOM     10  C   UNL     1       0.826   9.778  19.119  0.00  0.00    +0.000 A 
ATOM     11  C   UNL     1       1.169   8.932  20.169  0.00  0.00    +0.000 A 
ATOM     12  C   UNL     1       1.952   7.772  19.964  0.00  0.00    +0.000 A 
ATOM     13  C   UNL     1       2.552   7.455  18.745  0.00  0.00    +0.000 A 
ATOM     14  C   UNL     1       2.370   8.430  17.763  0.00  0.00    +0.000 A 
ATOM     15  C   UNL     1       1.474   9.508  17.908  0.00  0.00    +0.000 A 
BRANCH  10  17
ATOM     16  N   UNL     1       0.182  12.294  19.272  0.00  0.00    +0.000 N 
ATOM     17  C   UNL     1      -0.161  10.931  19.115  0.00  0.00    +0.000 C 
ATOM     18  O   UNL     1      -1.349  10.620  18.966  0.00  0.00    +0.000 OA
BRANCH  16  20
ATOM     19  C   UNL     1      -1.156  14.047  20.452  0.00  0.00    +0.000 C 
ATOM     20  C   UNL     1      -0.923  13.260  19.168  0.00  0.00    +0.000 C 
ENDBRANCH  16  20
BRANCH  16  21
ATOM     21  C   UNL     1       1.543  12.777  19.474  0.00  0.00    +0.000 C 
ATOM     22  C   UNL     1       2.426  13.101  18.281  0.00  0.00    +0.000 C 
ENDBRANCH  16  21
ENDBRANCH  10  17
ENDBRANCH   1  13
BRANCH   1  23
ATOM     23  C   UNL     1       4.535   6.049  17.993  0.00  0.00    +0.000 A 
ATOM     24  C   UNL     1       5.684   5.990  18.801  0.00  0.00    +0.000 A 
ATOM     25  C   UNL     1       6.959   5.721  18.287  0.00  0.00    +0.000 A 
ATOM     26  C   UNL     1       7.130   5.558  16.920  0.00  0.00    +0.000 A 
ATOM     27  C   UNL     1       6.048   5.699  16.066  0.00  0.00    +0.000 A 
ATOM     28  C   UNL     1       4.764   5.956  16.603  0.00  0.00    +0.000 A 
BRANCH  27  29
ATOM     29  O   UNL     1       6.356   5.549  14.747  0.00  0.00    +0.000 OA
ATOM     30  C   UNL     1       6.234   4.247  14.199  0.00  0.00    +0.000 C 
ENDBRANCH  27  29
ENDBRANCH   1  23
TORSDOF 7
ENDMDL
