MODEL 1
REMARK VINA RESULT:      -8.0      0.000      0.000
REMARK  Name = 
REMARK  6 active torsions:
REMARK  status: ('A' for Active; 'I' for Inactive)
REMARK    1  A    between atoms: C_1  and  C_2
REMARK    2  A    between atoms: C_2  and  C_3
REMARK    3  A    between atoms: C_2  and  N_9
REMARK    4  A    between atoms: C_3  and  N_4
REMARK    5  A    between atoms: C_12  and  N_13
REMARK    6  A    between atoms: C_15  and  C_16
REMARK                            x       y       z     vdW  Elec       q    Type
REMARK                         _______ _______ _______ _____ _____    ______ ____
ROOT
ATOM      1  N   UNL     1       4.454   5.178  17.865  0.00  0.00    +0.000 NA
ATOM      2  C   UNL     1       5.164   5.602  16.639  0.00  0.00    +0.000 C 
ATOM      3  C   UNL     1       6.638   5.193  16.602  0.00  0.00    +0.000 C 
ATOM      4  C   UNL     1       7.395   5.647  17.845  0.00  0.00    +0.000 C 
ATOM      5  C   UNL     1       6.675   5.134  19.084  0.00  0.00    +0.000 C 
ATOM      6  C   UNL     1       5.198   5.520  19.095  0.00  0.00    +0.000 C 
ENDROOT
BRANCH   4   7
ATOM      7  N   UNL     1       7.647   7.079  17.880  0.00  0.00    +0.000 N 
ATOM      8  C   UNL     1       8.539   7.739  18.669  0.00  0.00    +0.000 A 
ATOM      9  C   UNL     1       8.408   9.057  18.293  0.00  0.00    +0.000 A 
ATOM     10  N   UNL     1       7.437   9.160  17.337  0.00  0.00    +0.000 NA
ATOM     11  N   UNL     1       6.981   7.941  17.090  0.00  0.00    +0.000 NA
BRANCH   9  12
ATOM     12  C   UNL     1       9.154  10.173  18.825  0.00  0.00    +0.000 A 
ATOM     13  C   UNL     1       9.922  10.982  17.968  0.00  0.00    +0.000 A 
ATOM     14  C   UNL     1      10.665  12.042  18.481  0.00  0.00    +0.000 A 
ATOM     15  C   UNL     1      10.640  12.297  19.844  0.00  0.00    +0.000 A 
ATOM     16  F   UNL     1      11.365  13.310  20.338  0.00  0.00    +0.000 F 
ATOM     17  C   UNL     1       9.875  11.519  20.707  0.00  0.00    +0.000 A 
ATOM     18  C   UNL     1       9.123  10.457  20.195  0.00  0.00    +0.000 A 
ENDBRANCH   9  12
ENDBRANCH   4   7
BRANCH   1  20
ATOM     19  C   UNL     1       1.999   4.663  17.837  0.00  0.00    +0.000 C 
ATOM     20  C   UNL     1       3.065   5.774  17.904  0.00  0.00    +0.000 C 
BRANCH  20  21
ATOM     21  C   UNL     1       2.832   6.639  19.174  0.00  0.00    +0.000 C 
BRANCH  21  22
ATOM     22  N   UNL     1       2.255   7.944  18.939  0.00  0.00    +0.000 N 
ATOM     23  C   UNL     1       2.253   8.651  17.778  0.00  0.00    +0.000 A 
ATOM     24  N   UNL     1       1.513   9.727  17.920  0.00  0.00    +0.000 NA
ATOM     25  C   UNL     1       1.062   9.619  19.205  0.00  0.00    +0.000 A 
ATOM     26  N   UNL     1       1.482   8.538  19.867  0.00  0.00    +0.000 NA
ENDBRANCH  21  22
ENDBRANCH  20  21
ENDBRANCH   1  20
TORSDOF 5
ENDMDL
MODEL 2
REMARK VINA RESULT:      -7.9      0.556      1.028
REMARK  Name = 
REMARK  6 active torsions:
REMARK  status: ('A' for Active; 'I' for Inactive)
REMARK    1  A    between atoms: C_1  and  C_2
REMARK    2  A    between atoms: C_2  and  C_3
REMARK    3  A    between atoms: C_2  and  N_9
REMARK    4  A    between atoms: C_3  and  N_4
REMARK    5  A    between atoms: C_12  and  N_13
REMARK    6  A    between atoms: C_15  and  C_16
REMARK                            x       y       z     vdW  Elec       q    Type
REMARK                         _______ _______ _______ _____ _____    ______ ____
ROOT
ATOM      1  N   UNL     1       4.709   4.875  18.023  0.00  0.00    +0.000 NA
ATOM      2  C   UNL     1       5.508   5.173  16.814  0.00  0.00    +0.000 C 
ATOM      3  C   UNL     1       7.000   4.872  16.965  0.00  0.00    +0.000 C 
ATOM      4  C   UNL     1       7.606   5.550  18.190  0.00  0.00    +0.000 C 
ATOM      5  C   UNL     1       6.801   5.165  19.423  0.00  0.00    +0.000 C 
ATOM      6  C   UNL     1       5.310   5.440  19.250  0.00  0.00    +0.000 C 
ENDROOT
BRANCH   4   7
ATOM      7  N   UNL     1       7.768   6.987  18.036  0.00  0.00    +0.000 N 
ATOM      8  C   UNL     1       8.515   7.819  18.813  0.00  0.00    +0.000 A 
ATOM      9  C   UNL     1       8.355   9.055  18.229  0.00  0.00    +0.000 A 
ATOM     10  N   UNL     1       7.505   8.947  17.165  0.00  0.00    +0.000 NA
ATOM     11  N   UNL     1       7.154   7.674  17.055  0.00  0.00    +0.000 NA
BRANCH   9  12
ATOM     12  C   UNL     1       8.963  10.289  18.667  0.00  0.00    +0.000 A 
ATOM     13  C   UNL     1       9.523  10.382  19.954  0.00  0.00    +0.000 A 
ATOM     14  C   UNL     1      10.086  11.580  20.391  0.00  0.00    +0.000 A 
ATOM     15  C   UNL     1      10.093  12.679  19.546  0.00  0.00    +0.000 A 
ATOM     16  F   UNL     1      10.624  13.833  19.972  0.00  0.00    +0.000 F 
ATOM     17  C   UNL     1       9.559  12.604  18.263  0.00  0.00    +0.000 A 
ATOM     18  C   UNL     1       8.998  11.402  17.819  0.00  0.00    +0.000 A 
ENDBRANCH   9  12
ENDBRANCH   4   7
BRANCH   1  20
ATOM     19  C   UNL     1       2.342   4.190  17.557  0.00  0.00    +0.000 C 
ATOM     20  C   UNL     1       3.290   5.368  17.854  0.00  0.00    +0.000 C 
BRANCH  20  21
ATOM     21  C   UNL     1       2.783   6.139  19.104  0.00  0.00    +0.000 C 
BRANCH  21  22
ATOM     22  N   UNL     1       2.345   7.497  18.861  0.00  0.00    +0.000 N 
ATOM     23  C   UNL     1       2.339   8.164  17.676  0.00  0.00    +0.000 A 
ATOM     24  N   UNL     1       1.741   9.324  17.830  0.00  0.00    +0.000 NA
ATOM     25  C   UNL     1       1.378   9.308  19.146  0.00  0.00    +0.000 A 
ATOM     26  N   UNL     1       1.717   8.205  19.817  0.00  0.00    +0.000 NA
ENDBRANCH  21  22
ENDBRANCH  20  21
ENDBRANCH   1  20
TORSDOF 5
ENDMDL
MODEL 3
REMARK VINA RESULT:      -7.9      1.685      2.822
REMARK  Name = 
REMARK  6 active torsions:
REMARK  status: ('A' for Active; 'I' for Inactive)
REMARK    1  A    between atoms: C_1  and  C_2
REMARK    2  A    between atoms: C_2  and  C_3
REMARK    3  A    between atoms: C_2  and  N_9
REMARK    4  A    between atoms: C_3  and  N_4
REMARK    5  A    between atoms: C_12  and  N_13
REMARK    6  A    between atoms: C_15  and  C_16
REMARK                            x       y       z     vdW  Elec       q    Type
REMARK                         _______ _______ _______ _____ _____    ______ ____
ROOT
ATOM      1  N   UNL     1       4.432   5.468  18.239  0.00  0.00    +0.000 NA
ATOM      2  C   UNL     1       4.999   5.876  16.935  0.00  0.00    +0.000 C 
ATOM      3  C   UNL     1       6.438   5.408  16.710  0.00  0.00    +0.000 C 
ATOM      4  C   UNL     1       7.365   5.818  17.850  0.00  0.00    +0.000 C 
ATOM      5  C   UNL     1       6.785   5.322  19.167  0.00  0.00    +0.000 C 
ATOM      6  C   UNL     1       5.339   5.768  19.367  0.00  0.00    +0.000 C 
ENDROOT
BRANCH   4   7
ATOM      7  N   UNL     1       7.678   7.238  17.860  0.00  0.00    +0.000 N 
ATOM      8  C   UNL     1       8.522   7.888  18.708  0.00  0.00    +0.000 A 
ATOM      9  C   UNL     1       8.488   9.195  18.276  0.00  0.00    +0.000 A 
ATOM     10  N   UNL     1       7.617   9.304  17.229  0.00  0.00    +0.000 NA
ATOM     11  N   UNL     1       7.129   8.097  16.981  0.00  0.00    +0.000 NA
BRANCH   9  12
ATOM     12  C   UNL     1       9.232  10.298  18.838  0.00  0.00    +0.000 A 
ATOM     13  C   UNL     1       9.976  11.148  18.000  0.00  0.00    +0.000 A 
ATOM     14  C   UNL     1      10.717  12.196  18.541  0.00  0.00    +0.000 A 
ATOM     15  C   UNL     1      10.714  12.396  19.913  0.00  0.00    +0.000 A 
ATOM     16  F   UNL     1      11.437  13.398  20.434  0.00  0.00    +0.000 F 
ATOM     17  C   UNL     1       9.973  11.577  20.759  0.00  0.00    +0.000 A 
ATOM     18  C   UNL     1       9.223  10.528  20.219  0.00  0.00    +0.000 A 
ENDBRANCH   9  12
ENDBRANCH   4   7
BRANCH   1  20
ATOM     19  C   UNL     1       3.062   7.530  17.836  0.00  0.00    +0.000 C 
ATOM     20  C   UNL     1       3.085   6.120  18.456  0.00  0.00    +0.000 C 
BRANCH  20  21
ATOM     21  C   UNL     1       1.922   5.275  17.866  0.00  0.00    +0.000 C 
BRANCH  21  22
ATOM     22  N   UNL     1       1.621   4.050  18.576  0.00  0.00    +0.000 N 
ATOM     23  C   UNL     1       1.142   3.925  19.842  0.00  0.00    +0.000 A 
ATOM     24  N   UNL     1       0.865   2.664  20.082  0.00  0.00    +0.000 NA
ATOM     25  C   UNL     1       1.182   2.051  18.903  0.00  0.00    +0.000 A 
ATOM     26  N   UNL     1       1.640   2.862  17.946  0.00  0.00    +0.000 NA
ENDBRANCH  21  22
ENDBRANCH  20  21
ENDBRANCH   1  20
TORSDOF 5
ENDMDL
MODEL 4
REMARK VINA RESULT:      -7.8      2.059      3.158
REMARK  Name = 
REMARK  6 active torsions:
REMARK  status: ('A' for Active; 'I' for Inactive)
REMARK    1  A    between atoms: C_1  and  C_2
REMARK    2  A    between atoms: C_2  and  C_3
REMARK    3  A    between atoms: C_2  and  N_9
REMARK    4  A    between atoms: C_3  and  N_4
REMARK    5  A    between atoms: C_12  and  N_13
REMARK    6  A    between atoms: C_15  and  C_16
REMARK                            x       y       z     vdW  Elec       q    Type
REMARK                         _______ _______ _______ _____ _____    ______ ____
ROOT
ATOM      1  N   UNL     1       4.024   5.436  17.622  0.00  0.00    +0.000 NA
ATOM      2  C   UNL     1       4.436   6.593  16.799  0.00  0.00    +0.000 C 
ATOM      3  C   UNL     1       5.634   6.314  15.889  0.00  0.00    +0.000 C 
ATOM      4  C   UNL     1       6.825   5.750  16.658  0.00  0.00    +0.000 C 
ATOM      5  C   UNL     1       6.379   4.521  17.437  0.00  0.00    +0.000 C 
ATOM      6  C   UNL     1       5.165   4.803  18.317  0.00  0.00    +0.000 C 
ENDROOT
BRANCH   4   7
ATOM      7  N   UNL     1       7.502   6.738  17.483  0.00  0.00    +0.000 N 
ATOM      8  C   UNL     1       7.693   8.056  17.199  0.00  0.00    +0.000 A 
ATOM      9  C   UNL     1       8.350   8.545  18.305  0.00  0.00    +0.000 A 
ATOM     10  N   UNL     1       8.568   7.526  19.189  0.00  0.00    +0.000 NA
ATOM     11  N   UNL     1       8.041   6.425  18.675  0.00  0.00    +0.000 NA
BRANCH   9  12
ATOM     12  C   UNL     1       8.771   9.911  18.512  0.00  0.00    +0.000 A 
ATOM     13  C   UNL     1       9.552  10.247  19.632  0.00  0.00    +0.000 A 
ATOM     14  C   UNL     1       9.936  11.568  19.850  0.00  0.00    +0.000 A 
ATOM     15  C   UNL     1       9.546  12.550  18.951  0.00  0.00    +0.000 A 
ATOM     16  F   UNL     1       9.907  13.822  19.168  0.00  0.00    +0.000 F 
ATOM     17  C   UNL     1       8.788  12.236  17.828  0.00  0.00    +0.000 A 
ATOM     18  C   UNL     1       8.404  10.910  17.603  0.00  0.00    +0.000 A 
ENDBRANCH   9  12
ENDBRANCH   4   7
BRANCH   1  20
ATOM     19  C   UNL     1       2.389   7.230  18.252  0.00  0.00    +0.000 C 
ATOM     20  C   UNL     1       2.961   5.846  18.616  0.00  0.00    +0.000 C 
BRANCH  20  21
ATOM     21  C   UNL     1       1.803   4.812  18.698  0.00  0.00    +0.000 C 
BRANCH  21  22
ATOM     22  N   UNL     1       1.788   3.990  19.889  0.00  0.00    +0.000 N 
ATOM     23  C   UNL     1       1.578   2.649  19.965  0.00  0.00    +0.000 A 
ATOM     24  N   UNL     1       1.779   2.243  21.198  0.00  0.00    +0.000 NA
ATOM     25  C   UNL     1       2.135   3.393  21.844  0.00  0.00    +0.000 A 
ATOM     26  N   UNL     1       2.164   4.488  21.080  0.00  0.00    +0.000 NA
ENDBRANCH  21  22
ENDBRANCH  20  21
ENDBRANCH   1  20
TORSDOF 5
ENDMDL
MODEL 5
REMARK VINA RESULT:      -7.8      1.742      2.908
REMARK  Name = 
REMARK  6 active torsions:
REMARK  status: ('A' for Active; 'I' for Inactive)
REMARK    1  A    between atoms: C_1  and  C_2
REMARK    2  A    between atoms: C_2  and  C_3
REMARK    3  A    between atoms: C_2  and  N_9
REMARK    4  A    between atoms: C_3  and  N_4
REMARK    5  A    between atoms: C_12  and  N_13
REMARK    6  A    between atoms: C_15  and  C_16
REMARK                            x       y       z     vdW  Elec       q    Type
REMARK                         _______ _______ _______ _____ _____    ______ ____
ROOT
ATOM      1  N   UNL     1       4.571   5.288  18.239  0.00  0.00    +0.000 NA
ATOM      2  C   UNL     1       5.136   5.719  16.942  0.00  0.00    +0.000 C 
ATOM      3  C   UNL     1       6.600   5.320  16.739  0.00  0.00    +0.000 C 
ATOM      4  C   UNL     1       7.489   5.777  17.890  0.00  0.00    +0.000 C 
ATOM      5  C   UNL     1       6.915   5.257  19.201  0.00  0.00    +0.000 C 
ATOM      6  C   UNL     1       5.447   5.633  19.379  0.00  0.00    +0.000 C 
ENDROOT
BRANCH   4   7
ATOM      7  N   UNL     1       7.734   7.211  17.900  0.00  0.00    +0.000 N 
ATOM      8  C   UNL     1       8.549   7.900  18.746  0.00  0.00    +0.000 A 
ATOM      9  C   UNL     1       8.451   9.204  18.315  0.00  0.00    +0.000 A 
ATOM     10  N   UNL     1       7.570   9.271  17.272  0.00  0.00    +0.000 NA
ATOM     11  N   UNL     1       7.141   8.043  17.025  0.00  0.00    +0.000 NA
BRANCH   9  12
ATOM     12  C   UNL     1       9.143  10.341  18.875  0.00  0.00    +0.000 A 
ATOM     13  C   UNL     1       9.316  10.446  20.267  0.00  0.00    +0.000 A 
ATOM     14  C   UNL     1       9.959  11.554  20.814  0.00  0.00    +0.000 A 
ATOM     15  C   UNL     1      10.430  12.553  19.975  0.00  0.00    +0.000 A 
ATOM     16  F   UNL     1      11.038  13.624  20.503  0.00  0.00    +0.000 F 
ATOM     17  C   UNL     1      10.283  12.461  18.594  0.00  0.00    +0.000 A 
ATOM     18  C   UNL     1       9.644  11.347  18.041  0.00  0.00    +0.000 A 
ENDBRANCH   9  12
ENDBRANCH   4   7
BRANCH   1  20
ATOM     19  C   UNL     1       3.091   7.254  17.757  0.00  0.00    +0.000 C 
ATOM     20  C   UNL     1       3.191   5.874  18.435  0.00  0.00    +0.000 C 
BRANCH  20  21
ATOM     21  C   UNL     1       2.074   4.944  17.886  0.00  0.00    +0.000 C 
BRANCH  21  22
ATOM     22  N   UNL     1       1.596   3.937  18.808  0.00  0.00    +0.000 N 
ATOM     23  C   UNL     1       1.341   2.628  18.544  0.00  0.00    +0.000 A 
ATOM     24  N   UNL     1       1.056   2.002  19.663  0.00  0.00    +0.000 NA
ATOM     25  C   UNL     1       1.171   2.987  20.602  0.00  0.00    +0.000 A 
ATOM     26  N   UNL     1       1.509   4.189  20.127  0.00  0.00    +0.000 NA
ENDBRANCH  21  22
ENDBRANCH  20  21
ENDBRANCH   1  20
TORSDOF 5
ENDMDL
MODEL 6
REMARK VINA RESULT:      -7.7      2.081      3.048
REMARK  Name = 
REMARK  6 active torsions:
REMARK  status: ('A' for Active; 'I' for Inactive)
REMARK    1  A    between atoms: C_1  and  C_2
REMARK    2  A    between atoms: C_2  and  C_3
REMARK    3  A    between atoms: C_2  and  N_9
REMARK    4  A    between atoms: C_3  and  N_4
REMARK    5  A    between atoms: C_12  and  N_13
REMARK    6  A    between atoms: C_15  and  C_16
REMARK                            x       y       z     vdW  Elec       q    Type
REMARK                         _______ _______ _______ _____ _____    ______ ____
ROOT
ATOM      1  N   UNL     1       3.766   5.777  17.943  0.00  0.00    +0.000 NA
ATOM      2  C   UNL     1       4.197   6.898  17.079  0.00  0.00    +0.000 C 
ATOM      3  C   UNL     1       5.304   6.530  16.089  0.00  0.00    +0.000 C 
ATOM      4  C   UNL     1       6.505   5.889  16.777  0.00  0.00    +0.000 C 
ATOM      5  C   UNL     1       6.032   4.698  17.599  0.00  0.00    +0.000 C 
ATOM      6  C   UNL     1       4.907   5.070  18.561  0.00  0.00    +0.000 C 
ENDROOT
BRANCH   4   7
ATOM      7  N   UNL     1       7.307   6.831  17.539  0.00  0.00    +0.000 N 
ATOM      8  C   UNL     1       7.462   8.163  17.300  0.00  0.00    +0.000 A 
ATOM      9  C   UNL     1       8.284   8.592  18.317  0.00  0.00    +0.000 A 
ATOM     10  N   UNL     1       8.627   7.528  19.102  0.00  0.00    +0.000 NA
ATOM     11  N   UNL     1       8.020   6.455  18.617  0.00  0.00    +0.000 NA
BRANCH   9  12
ATOM     12  C   UNL     1       8.741   9.945  18.530  0.00  0.00    +0.000 A 
ATOM     13  C   UNL     1       8.355  10.968  17.644  0.00  0.00    +0.000 A 
ATOM     14  C   UNL     1       8.816  12.269  17.829  0.00  0.00    +0.000 A 
ATOM     15  C   UNL     1       9.657  12.550  18.895  0.00  0.00    +0.000 A 
ATOM     16  F   UNL     1      10.109  13.800  19.065  0.00  0.00    +0.000 F 
ATOM     17  C   UNL     1      10.038  11.557  19.792  0.00  0.00    +0.000 A 
ATOM     18  C   UNL     1       9.573  10.251  19.613  0.00  0.00    +0.000 A 
ENDBRANCH   9  12
ENDBRANCH   4   7
BRANCH   1  20
ATOM     19  C   UNL     1       2.407   7.730  18.736  0.00  0.00    +0.000 C 
ATOM     20  C   UNL     1       2.808   6.268  19.006  0.00  0.00    +0.000 C 
BRANCH  20  21
ATOM     21  C   UNL     1       1.531   5.387  19.096  0.00  0.00    +0.000 C 
BRANCH  21  22
ATOM     22  N   UNL     1       1.584   4.313  20.064  0.00  0.00    +0.000 N 
ATOM     23  C   UNL     1       1.210   3.018  19.884  0.00  0.00    +0.000 A 
ATOM     24  N   UNL     1       1.536   2.316  20.945  0.00  0.00    +0.000 NA
ATOM     25  C   UNL     1       2.135   3.242  21.751  0.00  0.00    +0.000 A 
ATOM     26  N   UNL     1       2.197   4.478  21.250  0.00  0.00    +0.000 NA
ENDBRANCH  21  22
ENDBRANCH  20  21
ENDBRANCH   1  20
TORSDOF 5
ENDMDL
MODEL 7
REMARK VINA RESULT:      -7.6      1.871      3.299
REMARK  Name = 
REMARK  6 active torsions:
REMARK  status: ('A' for Active; 'I' for Inactive)
REMARK    1  A    between atoms: C_1  and  C_2
REMARK    2  A    between atoms: C_2  and  C_3
REMARK    3  A    between atoms: C_2  and  N_9
REMARK    4  A    between atoms: C_3  and  N_4
REMARK    5  A    between atoms: C_12  and  N_13
REMARK    6  A    between atoms: C_15  and  C_16
REMARK                            x       y       z     vdW  Elec       q    Type
REMARK                         _______ _______ _______ _____ _____    ______ ____
ROOT
ATOM      1  N   UNL     1       3.955   5.586  18.479  0.00  0.00    +0.000 NA
ATOM      2  C   UNL     1       4.151   6.810  17.673  0.00  0.00    +0.000 C 
ATOM      3  C   UNL     1       5.101   6.628  16.487  0.00  0.00    +0.000 C 
ATOM      4  C   UNL     1       6.444   6.040  16.906  0.00  0.00    +0.000 C 
ATOM      5  C   UNL     1       6.205   4.746  17.672  0.00  0.00    +0.000 C 
ATOM      6  C   UNL     1       5.233   4.933  18.833  0.00  0.00    +0.000 C 
ENDROOT
BRANCH   4   7
ATOM      7  N   UNL     1       7.291   6.982  17.621  0.00  0.00    +0.000 N 
ATOM      8  C   UNL     1       7.432   8.313  17.374  0.00  0.00    +0.000 A 
ATOM      9  C   UNL     1       8.314   8.741  18.340  0.00  0.00    +0.000 A 
ATOM     10  N   UNL     1       8.703   7.676  19.102  0.00  0.00    +0.000 NA
ATOM     11  N   UNL     1       8.067   6.604  18.653  0.00  0.00    +0.000 NA
BRANCH   9  12
ATOM     12  C   UNL     1       8.783  10.094  18.526  0.00  0.00    +0.000 A 
ATOM     13  C   UNL     1       9.581  10.418  19.638  0.00  0.00    +0.000 A 
ATOM     14  C   UNL     1      10.013  11.727  19.835  0.00  0.00    +0.000 A 
ATOM     15  C   UNL     1       9.653  12.710  18.926  0.00  0.00    +0.000 A 
ATOM     16  F   UNL     1      10.059  13.971  19.124  0.00  0.00    +0.000 F 
ATOM     17  C   UNL     1       8.878  12.408  17.811  0.00  0.00    +0.000 A 
ATOM     18  C   UNL     1       8.447  11.093  17.606  0.00  0.00    +0.000 A 
ENDBRANCH   9  12
ENDBRANCH   4   7
BRANCH   1  20
ATOM     19  C   UNL     1       2.330   7.182  19.528  0.00  0.00    +0.000 C 
ATOM     20  C   UNL     1       3.156   5.896  19.724  0.00  0.00    +0.000 C 
BRANCH  20  21
ATOM     21  C   UNL     1       2.210   4.728  20.121  0.00  0.00    +0.000 C 
BRANCH  21  22
ATOM     22  N   UNL     1       2.256   3.570  19.255  0.00  0.00    +0.000 N 
ATOM     23  C   UNL     1       1.782   3.469  17.984  0.00  0.00    +0.000 A 
ATOM     24  N   UNL     1       2.132   2.309  17.478  0.00  0.00    +0.000 NA
ATOM     25  C   UNL     1       2.847   1.736  18.491  0.00  0.00    +0.000 A 
ATOM     26  N   UNL     1       2.959   2.476  19.597  0.00  0.00    +0.000 NA
ENDBRANCH  21  22
ENDBRANCH  20  21
ENDBRANCH   1  20
TORSDOF 5
ENDMDL
MODEL 8
REMARK VINA RESULT:      -7.5      3.090      6.560
REMARK  Name = 
REMARK  6 active torsions:
REMARK  status: ('A' for Active; 'I' for Inactive)
REMARK    1  A    between atoms: C_1  and  C_2
REMARK    2  A    between atoms: C_2  and  C_3
REMARK    3  A    between atoms: C_2  and  N_9
REMARK    4  A    between atoms: C_3  and  N_4
REMARK    5  A    between atoms: C_12  and  N_13
REMARK    6  A    between atoms: C_15  and  C_16
REMARK                            x       y       z     vdW  Elec       q    Type
REMARK                         _______ _______ _______ _____ _____    ______ ____
ROOT
ATOM      1  N   UNL     1       5.218   3.837  17.139  0.00  0.00    +0.000 NA
ATOM      2  C   UNL     1       5.347   3.899  18.611  0.00  0.00    +0.000 C 
ATOM      3  C   UNL     1       4.246   3.149  19.364  0.00  0.00    +0.000 C 
ATOM      4  C   UNL     1       2.850   3.582  18.929  0.00  0.00    +0.000 C 
ATOM      5  C   UNL     1       2.731   3.439  17.418  0.00  0.00    +0.000 C 
ATOM      6  C   UNL     1       3.852   4.165  16.679  0.00  0.00    +0.000 C 
ENDROOT
BRANCH   4   7
ATOM      7  N   UNL     1       2.476   4.902  19.412  0.00  0.00    +0.000 N 
ATOM      8  C   UNL     1       2.386   6.049  18.684  0.00  0.00    +0.000 A 
ATOM      9  C   UNL     1       1.968   6.992  19.597  0.00  0.00    +0.000 A 
ATOM     10  N   UNL     1       1.858   6.411  20.829  0.00  0.00    +0.000 NA
ATOM     11  N   UNL     1       2.168   5.129  20.702  0.00  0.00    +0.000 NA
BRANCH   9  12
ATOM     12  C   UNL     1       1.703   8.384  19.322  0.00  0.00    +0.000 A 
ATOM     13  C   UNL     1       2.143   8.962  18.118  0.00  0.00    +0.000 A 
ATOM     14  C   UNL     1       1.913  10.312  17.861  0.00  0.00    +0.000 A 
ATOM     15  C   UNL     1       1.245  11.082  18.801  0.00  0.00    +0.000 A 
ATOM     16  F   UNL     1       1.035  12.383  18.558  0.00  0.00    +0.000 F 
ATOM     17  C   UNL     1       0.787  10.526  19.992  0.00  0.00    +0.000 A 
ATOM     18  C   UNL     1       1.011   9.170  20.251  0.00  0.00    +0.000 A 
ENDBRANCH   9  12
ENDBRANCH   4   7
BRANCH   1  20
ATOM     19  C   UNL     1       6.334   4.439  14.975  0.00  0.00    +0.000 C 
ATOM     20  C   UNL     1       6.230   4.747  16.481  0.00  0.00    +0.000 C 
BRANCH  20  21
ATOM     21  C   UNL     1       5.886   6.250  16.680  0.00  0.00    +0.000 C 
BRANCH  21  22
ATOM     22  N   UNL     1       6.849   7.011  17.445  0.00  0.00    +0.000 N 
ATOM     23  C   UNL     1       7.672   6.555  18.427  0.00  0.00    +0.000 A 
ATOM     24  N   UNL     1       8.498   7.511  18.786  0.00  0.00    +0.000 NA
ATOM     25  C   UNL     1       8.145   8.544  17.965  0.00  0.00    +0.000 A 
ATOM     26  N   UNL     1       7.146   8.282  17.119  0.00  0.00    +0.000 NA
ENDBRANCH  21  22
ENDBRANCH  20  21
ENDBRANCH   1  20
TORSDOF 5
ENDMDL
MODEL 9
REMARK VINA RESULT:      -7.5      4.963      7.218
REMARK  Name = 
REMARK  6 active torsions:
REMARK  status: ('A' for Active; 'I' for Inactive)
REMARK    1  A    between atoms: C_1  and  C_2
REMARK    2  A    between atoms: C_2  and  C_3
REMARK    3  A    between atoms: C_2  and  N_9
REMARK    4  A    between atoms: C_3  and  N_4
REMARK    5  A    between atoms: C_12  and  N_13
REMARK    6  A    between atoms: C_15  and  C_16
REMARK                            x       y       z     vdW  Elec       q    Type
REMARK                         _______ _______ _______ _____ _____    ______ ____
ROOT
ATOM      1  N   UNL     1       5.022   4.017  16.998  0.00  0.00    +0.000 NA
ATOM      2  C   UNL     1       5.526   4.613  18.254  0.00  0.00    +0.000 C 
ATOM      3  C   UNL     1       5.109   3.851  19.514  0.00  0.00    +0.000 C 
ATOM      4  C   UNL     1       3.600   3.638  19.588  0.00  0.00    +0.000 C 
ATOM      5  C   UNL     1       3.129   2.961  18.309  0.00  0.00    +0.000 C 
ATOM      6  C   UNL     1       3.578   3.711  17.058  0.00  0.00    +0.000 C 
ENDROOT
BRANCH   4   7
ATOM      7  N   UNL     1       2.858   4.849  19.903  0.00  0.00    +0.000 N 
ATOM      8  C   UNL     1       2.915   6.042  19.250  0.00  0.00    +0.000 A 
ATOM      9  C   UNL     1       2.008   6.833  19.919  0.00  0.00    +0.000 A 
ATOM     10  N   UNL     1       1.470   6.125  20.957  0.00  0.00    +0.000 NA
ATOM     11  N   UNL     1       1.996   4.910  20.934  0.00  0.00    +0.000 NA
BRANCH   9  12
ATOM     12  C   UNL     1       1.677   8.202  19.604  0.00  0.00    +0.000 A 
ATOM     13  C   UNL     1       2.004   8.736  18.344  0.00  0.00    +0.000 A 
ATOM     14  C   UNL     1       1.711  10.065  18.047  0.00  0.00    +0.000 A 
ATOM     15  C   UNL     1       1.092  10.858  19.001  0.00  0.00    +0.000 A 
ATOM     16  F   UNL     1       0.821  12.139  18.717  0.00  0.00    +0.000 F 
ATOM     17  C   UNL     1       0.745  10.346  20.247  0.00  0.00    +0.000 A 
ATOM     18  C   UNL     1       1.032   9.010  20.548  0.00  0.00    +0.000 A 
ENDBRANCH   9  12
ENDBRANCH   4   7
BRANCH   1  20
ATOM     19  C   UNL     1       5.012   6.389  16.184  0.00  0.00    +0.000 C 
ATOM     20  C   UNL     1       5.323   4.923  15.825  0.00  0.00    +0.000 C 
BRANCH  20  21
ATOM     21  C   UNL     1       6.800   4.807  15.357  0.00  0.00    +0.000 C 
BRANCH  21  22
ATOM     22  N   UNL     1       6.985   4.542  13.946  0.00  0.00    +0.000 N 
ATOM     23  C   UNL     1       6.333   3.624  13.184  0.00  0.00    +0.000 A 
ATOM     24  N   UNL     1       6.674   3.778  11.925  0.00  0.00    +0.000 NA
ATOM     25  C   UNL     1       7.538   4.835  11.969  0.00  0.00    +0.000 A 
ATOM     26  N   UNL     1       7.752   5.344  13.185  0.00  0.00    +0.000 NA
ENDBRANCH  21  22
ENDBRANCH  20  21
ENDBRANCH   1  20
TORSDOF 5
ENDMDL
