MODEL 1
REMARK VINA RESULT:      -6.1      0.000      0.000
REMARK  Name = 
REMARK  14 active torsions:
REMARK  status: ('A' for Active; 'I' for Inactive)
REMARK    1  A    between atoms: C_1  and  C_2
REMARK    2  A    between atoms: C_2  and  C_3
REMARK    3  A    between atoms: C_3  and  C_4
REMARK    4  A    between atoms: C_4  and  C_5
REMARK    5  A    between atoms: C_5  and  C_6
REMARK    6  A    between atoms: C_6  and  C_7
REMARK    7  A    between atoms: C_7  and  C_8
REMARK    8  A    between atoms: C_8  and  C_9
REMARK    9  A    between atoms: C_9  and  C_10
REMARK   10  A    between atoms: C_10  and  C_11
REMARK   11  A    between atoms: C_11  and  C_12
REMARK   12  A    between atoms: C_12  and  N_13
REMARK   13  A    between atoms: C_16  and  C_17
REMARK   14  A    between atoms: N_20  and  C_21
REMARK                            x       y       z     vdW  Elec       q    Type
REMARK                         _______ _______ _______ _____ _____    ______ ____
ROOT
ATOM      1  N   UNL     1       2.179   8.153  18.676  0.00  0.00    +0.000 N 
ATOM      2  C   UNL     1       1.467   9.130  18.070  0.00  0.00    +0.000 A 
ATOM      3  C   UNL     1       0.643   9.948  18.829  0.00  0.00    +0.000 A 
ATOM      4  C   UNL     1       0.406   9.649  20.180  0.00  0.00    +0.000 A 
ATOM      5  C   UNL     1       0.988   8.498  20.690  0.00  0.00    +0.000 A 
ATOM      6  C   UNL     1       1.931   7.804  19.956  0.00  0.00    +0.000 A 
ENDROOT
BRANCH   4   7
ATOM      7  C   UNL     1      -0.410  10.541  21.025  0.00  0.00    +0.000 A 
ATOM      8  C   UNL     1      -0.449  10.403  22.408  0.00  0.00    +0.000 A 
ATOM      9  C   UNL     1      -1.376  11.099  23.162  0.00  0.00    +0.000 A 
ATOM     10  N   UNL     1      -2.153  12.045  22.591  0.00  0.00    +0.000 N 
ATOM     11  C   UNL     1      -3.189  12.717  23.396  0.00  0.00    +0.000 C 
ATOM     12  C   UNL     1      -2.011  12.348  21.290  0.00  0.00    +0.000 A 
ATOM     13  C   UNL     1      -1.206  11.551  20.463  0.00  0.00    +0.000 A 
ENDBRANCH   4   7
BRANCH   1  14
ATOM     14  C   UNL     1       3.306   7.523  17.964  0.00  0.00    +0.000 C 
BRANCH  14  15
ATOM     15  C   UNL     1       3.369   6.050  18.315  0.00  0.00    +0.000 C 
BRANCH  15  16
ATOM     16  C   UNL     1       4.617   5.753  19.144  0.00  0.00    +0.000 C 
BRANCH  16  17
ATOM     17  C   UNL     1       5.314   4.495  18.649  0.00  0.00    +0.000 C 
BRANCH  17  18
ATOM     18  C   UNL     1       4.482   3.271  18.961  0.00  0.00    +0.000 C 
BRANCH  18  19
ATOM     19  C   UNL     1       4.112   2.564  17.670  0.00  0.00    +0.000 C 
BRANCH  19  20
ATOM     20  C   UNL     1       2.724   1.949  17.805  0.00  0.00    +0.000 C 
BRANCH  20  21
ATOM     21  C   UNL     1       1.676   3.046  17.799  0.00  0.00    +0.000 C 
BRANCH  21  22
ATOM     22  C   UNL     1       0.603   2.731  18.825  0.00  0.00    +0.000 C 
BRANCH  22  23
ATOM     23  C   UNL     1       0.750   3.645  20.028  0.00  0.00    +0.000 C 
BRANCH  23  25
ATOM     24  C   UNL     1       2.433   3.612  21.861  0.00  0.00    +0.000 C 
ATOM     25  C   UNL     1       1.278   2.868  21.225  0.00  0.00    +0.000 C 
ENDBRANCH  23  25
ENDBRANCH  22  23
ENDBRANCH  21  22
ENDBRANCH  20  21
ENDBRANCH  19  20
ENDBRANCH  18  19
ENDBRANCH  17  18
ENDBRANCH  16  17
ENDBRANCH  15  16
ENDBRANCH  14  15
ENDBRANCH   1  14
TORSDOF 12
ENDMDL
MODEL 2
REMARK VINA RESULT:      -6.0      0.804      1.681
REMARK  Name = 
REMARK  14 active torsions:
REMARK  status: ('A' for Active; 'I' for Inactive)
REMARK    1  A    between atoms: C_1  and  C_2
REMARK    2  A    between atoms: C_2  and  C_3
REMARK    3  A    between atoms: C_3  and  C_4
REMARK    4  A    between atoms: C_4  and  C_5
REMARK    5  A    between atoms: C_5  and  C_6
REMARK    6  A    between atoms: C_6  and  C_7
REMARK    7  A    between atoms: C_7  and  C_8
REMARK    8  A    between atoms: C_8  and  C_9
REMARK    9  A    between atoms: C_9  and  C_10
REMARK   10  A    between atoms: C_10  and  C_11
REMARK   11  A    between atoms: C_11  and  C_12
REMARK   12  A    between atoms: C_12  and  N_13
REMARK   13  A    between atoms: C_16  and  C_17
REMARK   14  A    between atoms: N_20  and  C_21
REMARK                            x       y       z     vdW  Elec       q    Type
REMARK                         _______ _______ _______ _____ _____    ______ ____
ROOT
ATOM      1  N   UNL     1       2.112   7.876  18.661  0.00  0.00    +0.000 N 
ATOM      2  C   UNL     1       1.995   7.679  19.994  0.00  0.00    +0.000 A 
ATOM      3  C   UNL     1       1.218   8.544  20.749  0.00  0.00    +0.000 A 
ATOM      4  C   UNL     1       0.709   9.718  20.173  0.00  0.00    +0.000 A 
ATOM      5  C   UNL     1       1.052   9.982  18.856  0.00  0.00    +0.000 A 
ATOM      6  C   UNL     1       1.684   9.022  18.089  0.00  0.00    +0.000 A 
ENDROOT
BRANCH   4   7
ATOM      7  C   UNL     1      -0.177  10.618  20.935  0.00  0.00    +0.000 A 
ATOM      8  C   UNL     1      -0.823  11.690  20.331  0.00  0.00    +0.000 A 
ATOM      9  C   UNL     1      -1.473  12.645  21.092  0.00  0.00    +0.000 A 
ATOM     10  N   UNL     1      -1.628  12.471  22.423  0.00  0.00    +0.000 N 
ATOM     11  C   UNL     1      -2.251  13.538  23.227  0.00  0.00    +0.000 C 
ATOM     12  C   UNL     1      -1.187  11.351  23.019  0.00  0.00    +0.000 A 
ATOM     13  C   UNL     1      -0.380  10.446  22.313  0.00  0.00    +0.000 A 
ENDBRANCH   4   7
BRANCH   1  14
ATOM     14  C   UNL     1       2.623   6.791  17.805  0.00  0.00    +0.000 C 
BRANCH  14  15
ATOM     15  C   UNL     1       4.096   7.014  17.527  0.00  0.00    +0.000 C 
BRANCH  15  16
ATOM     16  C   UNL     1       4.901   5.767  17.888  0.00  0.00    +0.000 C 
BRANCH  16  17
ATOM     17  C   UNL     1       4.677   4.660  16.868  0.00  0.00    +0.000 C 
BRANCH  17  18
ATOM     18  C   UNL     1       4.171   3.407  17.549  0.00  0.00    +0.000 C 
BRANCH  18  19
ATOM     19  C   UNL     1       2.678   3.270  17.318  0.00  0.00    +0.000 C 
BRANCH  19  20
ATOM     20  C   UNL     1       2.180   1.976  17.951  0.00  0.00    +0.000 C 
BRANCH  20  21
ATOM     21  C   UNL     1       0.837   2.214  18.614  0.00  0.00    +0.000 C 
BRANCH  21  22
ATOM     22  C   UNL     1       0.965   3.325  19.640  0.00  0.00    +0.000 C 
BRANCH  22  23
ATOM     23  C   UNL     1       1.271   2.739  21.006  0.00  0.00    +0.000 C 
BRANCH  23  25
ATOM     24  C   UNL     1       2.963   4.549  20.774  0.00  0.00    +0.000 C 
ATOM     25  C   UNL     1       2.283   3.605  21.743  0.00  0.00    +0.000 C 
ENDBRANCH  23  25
ENDBRANCH  22  23
ENDBRANCH  21  22
ENDBRANCH  20  21
ENDBRANCH  19  20
ENDBRANCH  18  19
ENDBRANCH  17  18
ENDBRANCH  16  17
ENDBRANCH  15  16
ENDBRANCH  14  15
ENDBRANCH   1  14
TORSDOF 12
ENDMDL
MODEL 3
REMARK VINA RESULT:      -5.9      0.906      1.364
REMARK  Name = 
REMARK  14 active torsions:
REMARK  status: ('A' for Active; 'I' for Inactive)
REMARK    1  A    between atoms: C_1  and  C_2
REMARK    2  A    between atoms: C_2  and  C_3
REMARK    3  A    between atoms: C_3  and  C_4
REMARK    4  A    between atoms: C_4  and  C_5
REMARK    5  A    between atoms: C_5  and  C_6
REMARK    6  A    between atoms: C_6  and  C_7
REMARK    7  A    between atoms: C_7  and  C_8
REMARK    8  A    between atoms: C_8  and  C_9
REMARK    9  A    between atoms: C_9  and  C_10
REMARK   10  A    between atoms: C_10  and  C_11
REMARK   11  A    between atoms: C_11  and  C_12
REMARK   12  A    between atoms: C_12  and  N_13
REMARK   13  A    between atoms: C_16  and  C_17
REMARK   14  A    between atoms: N_20  and  C_21
REMARK                            x       y       z     vdW  Elec       q    Type
REMARK                         _______ _______ _______ _____ _____    ______ ____
ROOT
ATOM      1  N   UNL     1       2.072   8.655  18.590  0.00  0.00    +0.000 N 
ATOM      2  C   UNL     1       1.864   8.229  19.856  0.00  0.00    +0.000 A 
ATOM      3  C   UNL     1       1.009   8.939  20.685  0.00  0.00    +0.000 A 
ATOM      4  C   UNL     1       0.510  10.187  20.280  0.00  0.00    +0.000 A 
ATOM      5  C   UNL     1       0.941  10.679  19.057  0.00  0.00    +0.000 A 
ATOM      6  C   UNL     1       1.655   9.875  18.190  0.00  0.00    +0.000 A 
ENDROOT
BRANCH   4   7
ATOM      7  C   UNL     1      -0.456  10.928  21.113  0.00  0.00    +0.000 A 
ATOM      8  C   UNL     1      -0.558  10.709  22.482  0.00  0.00    +0.000 A 
ATOM      9  C   UNL     1      -1.605  11.248  23.208  0.00  0.00    +0.000 A 
ATOM     10  N   UNL     1      -2.457  12.125  22.634  0.00  0.00    +0.000 N 
ATOM     11  C   UNL     1      -3.613  12.623  23.403  0.00  0.00    +0.000 C 
ATOM     12  C   UNL     1      -2.279  12.514  21.361  0.00  0.00    +0.000 A 
ATOM     13  C   UNL     1      -1.336  11.866  20.550  0.00  0.00    +0.000 A 
ENDBRANCH   4   7
BRANCH   1  14
ATOM     14  C   UNL     1       2.677   7.741  17.603  0.00  0.00    +0.000 C 
BRANCH  14  15
ATOM     15  C   UNL     1       3.261   6.538  18.316  0.00  0.00    +0.000 C 
BRANCH  15  16
ATOM     16  C   UNL     1       4.679   6.261  17.818  0.00  0.00    +0.000 C 
BRANCH  16  17
ATOM     17  C   UNL     1       4.659   5.355  16.596  0.00  0.00    +0.000 C 
BRANCH  17  18
ATOM     18  C   UNL     1       4.616   3.901  17.016  0.00  0.00    +0.000 C 
BRANCH  18  19
ATOM     19  C   UNL     1       3.173   3.450  17.142  0.00  0.00    +0.000 C 
BRANCH  19  20
ATOM     20  C   UNL     1       3.100   2.222  18.041  0.00  0.00    +0.000 C 
BRANCH  20  21
ATOM     21  C   UNL     1       1.662   1.982  18.463  0.00  0.00    +0.000 C 
BRANCH  21  22
ATOM     22  C   UNL     1       1.171   3.158  19.287  0.00  0.00    +0.000 C 
BRANCH  22  23
ATOM     23  C   UNL     1       1.027   2.749  20.742  0.00  0.00    +0.000 C 
BRANCH  23  25
ATOM     24  C   UNL     1       2.329   4.828  21.163  0.00  0.00    +0.000 C 
ATOM     25  C   UNL     1       2.121   3.388  21.585  0.00  0.00    +0.000 C 
ENDBRANCH  23  25
ENDBRANCH  22  23
ENDBRANCH  21  22
ENDBRANCH  20  21
ENDBRANCH  19  20
ENDBRANCH  18  19
ENDBRANCH  17  18
ENDBRANCH  16  17
ENDBRANCH  15  16
ENDBRANCH  14  15
ENDBRANCH   1  14
TORSDOF 12
ENDMDL
MODEL 4
REMARK VINA RESULT:      -5.9      1.867      3.807
REMARK  Name = 
REMARK  14 active torsions:
REMARK  status: ('A' for Active; 'I' for Inactive)
REMARK    1  A    between atoms: C_1  and  C_2
REMARK    2  A    between atoms: C_2  and  C_3
REMARK    3  A    between atoms: C_3  and  C_4
REMARK    4  A    between atoms: C_4  and  C_5
REMARK    5  A    between atoms: C_5  and  C_6
REMARK    6  A    between atoms: C_6  and  C_7
REMARK    7  A    between atoms: C_7  and  C_8
REMARK    8  A    between atoms: C_8  and  C_9
REMARK    9  A    between atoms: C_9  and  C_10
REMARK   10  A    between atoms: C_10  and  C_11
REMARK   11  A    between atoms: C_11  and  C_12
REMARK   12  A    between atoms: C_12  and  N_13
REMARK   13  A    between atoms: C_16  and  C_17
REMARK   14  A    between atoms: N_20  and  C_21
REMARK                            x       y       z     vdW  Elec       q    Type
REMARK                         _______ _______ _______ _____ _____    ______ ____
ROOT
ATOM      1  N   UNL     1       2.012   7.143  20.049  0.00  0.00    +0.000 N 
ATOM      2  C   UNL     1       1.481   7.544  21.226  0.00  0.00    +0.000 A 
ATOM      3  C   UNL     1       0.721   8.702  21.277  0.00  0.00    +0.000 A 
ATOM      4  C   UNL     1       0.657   9.551  20.160  0.00  0.00    +0.000 A 
ATOM      5  C   UNL     1       1.409   9.201  19.050  0.00  0.00    +0.000 A 
ATOM      6  C   UNL     1       2.017   7.962  18.976  0.00  0.00    +0.000 A 
ENDROOT
BRANCH   4   7
ATOM      7  C   UNL     1      -0.200  10.752  20.165  0.00  0.00    +0.000 A 
ATOM      8  C   UNL     1       0.032  11.811  21.035  0.00  0.00    +0.000 A 
ATOM      9  C   UNL     1      -0.897  12.825  21.178  0.00  0.00    +0.000 A 
ATOM     10  N   UNL     1      -1.972  12.890  20.362  0.00  0.00    +0.000 N 
ATOM     11  C   UNL     1      -2.991  13.932  20.585  0.00  0.00    +0.000 C 
ATOM     12  C   UNL     1      -2.134  11.992  19.377  0.00  0.00    +0.000 A 
ATOM     13  C   UNL     1      -1.307  10.860  19.310  0.00  0.00    +0.000 A 
ENDBRANCH   4   7
BRANCH   1  14
ATOM     14  C   UNL     1       2.507   5.763  19.903  0.00  0.00    +0.000 C 
BRANCH  14  15
ATOM     15  C   UNL     1       1.519   4.800  20.531  0.00  0.00    +0.000 C 
BRANCH  15  16
ATOM     16  C   UNL     1       1.092   3.739  19.517  0.00  0.00    +0.000 C 
BRANCH  16  17
ATOM     17  C   UNL     1       1.690   4.022  18.148  0.00  0.00    +0.000 C 
BRANCH  17  18
ATOM     18  C   UNL     1       2.369   2.786  17.600  0.00  0.00    +0.000 C 
BRANCH  18  19
ATOM     19  C   UNL     1       3.874   2.937  17.715  0.00  0.00    +0.000 C 
BRANCH  19  20
ATOM     20  C   UNL     1       4.291   4.306  17.191  0.00  0.00    +0.000 C 
BRANCH  20  21
ATOM     21  C   UNL     1       5.062   4.144  15.894  0.00  0.00    +0.000 C 
BRANCH  21  22
ATOM     22  C   UNL     1       5.700   5.467  15.513  0.00  0.00    +0.000 C 
BRANCH  22  23
ATOM     23  C   UNL     1       6.803   5.815  16.496  0.00  0.00    +0.000 C 
BRANCH  23  25
ATOM     24  C   UNL     1       7.756   7.811  17.637  0.00  0.00    +0.000 C 
ATOM     25  C   UNL     1       6.479   7.112  17.223  0.00  0.00    +0.000 C 
ENDBRANCH  23  25
ENDBRANCH  22  23
ENDBRANCH  21  22
ENDBRANCH  20  21
ENDBRANCH  19  20
ENDBRANCH  18  19
ENDBRANCH  17  18
ENDBRANCH  16  17
ENDBRANCH  15  16
ENDBRANCH  14  15
ENDBRANCH   1  14
TORSDOF 12
ENDMDL
MODEL 5
REMARK VINA RESULT:      -5.9      4.338      7.007
REMARK  Name = 
REMARK  14 active torsions:
REMARK  status: ('A' for Active; 'I' for Inactive)
REMARK    1  A    between atoms: C_1  and  C_2
REMARK    2  A    between atoms: C_2  and  C_3
REMARK    3  A    between atoms: C_3  and  C_4
REMARK    4  A    between atoms: C_4  and  C_5
REMARK    5  A    between atoms: C_5  and  C_6
REMARK    6  A    between atoms: C_6  and  C_7
REMARK    7  A    between atoms: C_7  and  C_8
REMARK    8  A    between atoms: C_8  and  C_9
REMARK    9  A    between atoms: C_9  and  C_10
REMARK   10  A    between atoms: C_10  and  C_11
REMARK   11  A    between atoms: C_11  and  C_12
REMARK   12  A    between atoms: C_12  and  N_13
REMARK   13  A    between atoms: C_16  and  C_17
REMARK   14  A    between atoms: N_20  and  C_21
REMARK                            x       y       z     vdW  Elec       q    Type
REMARK                         _______ _______ _______ _____ _____    ______ ____
ROOT
ATOM      1  N   UNL     1       4.608   5.534  17.178  0.00  0.00    +0.000 N 
ATOM      2  C   UNL     1       4.663   6.829  16.794  0.00  0.00    +0.000 A 
ATOM      3  C   UNL     1       3.796   7.750  17.363  0.00  0.00    +0.000 A 
ATOM      4  C   UNL     1       2.749   7.313  18.189  0.00  0.00    +0.000 A 
ATOM      5  C   UNL     1       2.604   5.946  18.366  0.00  0.00    +0.000 A 
ATOM      6  C   UNL     1       3.580   5.074  17.923  0.00  0.00    +0.000 A 
ENDROOT
BRANCH   4   7
ATOM      7  C   UNL     1       1.857   8.277  18.862  0.00  0.00    +0.000 A 
ATOM      8  C   UNL     1       1.276   9.336  18.175  0.00  0.00    +0.000 A 
ATOM      9  C   UNL     1       0.623  10.348  18.855  0.00  0.00    +0.000 A 
ATOM     10  N   UNL     1       0.400  10.247  20.184  0.00  0.00    +0.000 N 
ATOM     11  C   UNL     1      -0.225  11.372  20.903  0.00  0.00    +0.000 C 
ATOM     12  C   UNL     1       0.776   9.146  20.856  0.00  0.00    +0.000 A 
ATOM     13  C   UNL     1       1.585   8.182  20.236  0.00  0.00    +0.000 A 
ENDBRANCH   4   7
BRANCH   1  14
ATOM     14  C   UNL     1       5.728   4.630  16.861  0.00  0.00    +0.000 C 
BRANCH  14  15
ATOM     15  C   UNL     1       7.031   5.404  16.897  0.00  0.00    +0.000 C 
BRANCH  15  16
ATOM     16  C   UNL     1       7.578   5.461  18.323  0.00  0.00    +0.000 C 
BRANCH  16  17
ATOM     17  C   UNL     1       7.949   6.885  18.708  0.00  0.00    +0.000 C 
BRANCH  17  18
ATOM     18  C   UNL     1       8.039   7.761  17.477  0.00  0.00    +0.000 C 
BRANCH  18  19
ATOM     19  C   UNL     1       7.744   9.200  17.854  0.00  0.00    +0.000 C 
BRANCH  19  20
ATOM     20  C   UNL     1       8.844   9.724  18.769  0.00  0.00    +0.000 C 
BRANCH  20  21
ATOM     21  C   UNL     1       9.739  10.678  18.001  0.00  0.00    +0.000 C 
BRANCH  21  22
ATOM     22  C   UNL     1       9.031  12.010  17.827  0.00  0.00    +0.000 C 
BRANCH  22  23
ATOM     23  C   UNL     1       8.929  12.723  19.163  0.00  0.00    +0.000 C 
BRANCH  23  25
ATOM     24  C   UNL     1      10.094  13.112  21.327  0.00  0.00    +0.000 C 
ATOM     25  C   UNL     1      10.270  12.700  19.881  0.00  0.00    +0.000 C 
ENDBRANCH  23  25
ENDBRANCH  22  23
ENDBRANCH  21  22
ENDBRANCH  20  21
ENDBRANCH  19  20
ENDBRANCH  18  19
ENDBRANCH  17  18
ENDBRANCH  16  17
ENDBRANCH  15  16
ENDBRANCH  14  15
ENDBRANCH   1  14
TORSDOF 12
ENDMDL
MODEL 6
REMARK VINA RESULT:      -5.8      3.107      8.910
REMARK  Name = 
REMARK  14 active torsions:
REMARK  status: ('A' for Active; 'I' for Inactive)
REMARK    1  A    between atoms: C_1  and  C_2
REMARK    2  A    between atoms: C_2  and  C_3
REMARK    3  A    between atoms: C_3  and  C_4
REMARK    4  A    between atoms: C_4  and  C_5
REMARK    5  A    between atoms: C_5  and  C_6
REMARK    6  A    between atoms: C_6  and  C_7
REMARK    7  A    between atoms: C_7  and  C_8
REMARK    8  A    between atoms: C_8  and  C_9
REMARK    9  A    between atoms: C_9  and  C_10
REMARK   10  A    between atoms: C_10  and  C_11
REMARK   11  A    between atoms: C_11  and  C_12
REMARK   12  A    between atoms: C_12  and  N_13
REMARK   13  A    between atoms: C_16  and  C_17
REMARK   14  A    between atoms: N_20  and  C_21
REMARK                            x       y       z     vdW  Elec       q    Type
REMARK                         _______ _______ _______ _____ _____    ______ ____
ROOT
ATOM      1  N   UNL     1       1.346   8.672  20.385  0.00  0.00    +0.000 N 
ATOM      2  C   UNL     1       1.572   7.379  20.712  0.00  0.00    +0.000 A 
ATOM      3  C   UNL     1       2.313   6.576  19.858  0.00  0.00    +0.000 A 
ATOM      4  C   UNL     1       2.668   7.043  18.583  0.00  0.00    +0.000 A 
ATOM      5  C   UNL     1       2.211   8.299  18.214  0.00  0.00    +0.000 A 
ATOM      6  C   UNL     1       1.621   9.132  19.146  0.00  0.00    +0.000 A 
ENDROOT
BRANCH   4   7
ATOM      7  C   UNL     1       3.515   6.235  17.685  0.00  0.00    +0.000 A 
ATOM      8  C   UNL     1       3.322   4.867  17.534  0.00  0.00    +0.000 A 
ATOM      9  C   UNL     1       4.250   4.092  16.863  0.00  0.00    +0.000 A 
ATOM     10  N   UNL     1       5.279   4.670  16.205  0.00  0.00    +0.000 N 
ATOM     11  C   UNL     1       6.301   3.821  15.566  0.00  0.00    +0.000 C 
ATOM     12  C   UNL     1       5.394   6.007  16.163  0.00  0.00    +0.000 A 
ATOM     13  C   UNL     1       4.574   6.813  16.967  0.00  0.00    +0.000 A 
ENDBRANCH   4   7
BRANCH   1  14
ATOM     14  C   UNL     1       0.882   9.615  21.417  0.00  0.00    +0.000 C 
BRANCH  14  15
ATOM     15  C   UNL     1      -0.541  10.041  21.115  0.00  0.00    +0.000 C 
BRANCH  15  16
ATOM     16  C   UNL     1      -0.583  11.516  20.719  0.00  0.00    +0.000 C 
BRANCH  16  17
ATOM     17  C   UNL     1      -1.590  11.752  19.603  0.00  0.00    +0.000 C 
BRANCH  17  18
ATOM     18  C   UNL     1      -1.161  11.035  18.342  0.00  0.00    +0.000 C 
BRANCH  18  19
ATOM     19  C   UNL     1      -2.270  10.110  17.879  0.00  0.00    +0.000 C 
BRANCH  19  20
ATOM     20  C   UNL     1      -2.485  10.280  16.380  0.00  0.00    +0.000 C 
BRANCH  20  21
ATOM     21  C   UNL     1      -3.763  11.059  16.131  0.00  0.00    +0.000 C 
BRANCH  21  22
ATOM     22  C   UNL     1      -4.644  10.999  17.366  0.00  0.00    +0.000 C 
BRANCH  22  23
ATOM     23  C   UNL     1      -5.627  12.155  17.360  0.00  0.00    +0.000 C 
BRANCH  23  25
ATOM     24  C   UNL     1      -6.728  10.575  18.936  0.00  0.00    +0.000 C 
ATOM     25  C   UNL     1      -6.948  11.734  17.987  0.00  0.00    +0.000 C 
ENDBRANCH  23  25
ENDBRANCH  22  23
ENDBRANCH  21  22
ENDBRANCH  20  21
ENDBRANCH  19  20
ENDBRANCH  18  19
ENDBRANCH  17  18
ENDBRANCH  16  17
ENDBRANCH  15  16
ENDBRANCH  14  15
ENDBRANCH   1  14
TORSDOF 12
ENDMDL
MODEL 7
REMARK VINA RESULT:      -5.8      1.047      1.782
REMARK  Name = 
REMARK  14 active torsions:
REMARK  status: ('A' for Active; 'I' for Inactive)
REMARK    1  A    between atoms: C_1  and  C_2
REMARK    2  A    between atoms: C_2  and  C_3
REMARK    3  A    between atoms: C_3  and  C_4
REMARK    4  A    between atoms: C_4  and  C_5
REMARK    5  A    between atoms: C_5  and  C_6
REMARK    6  A    between atoms: C_6  and  C_7
REMARK    7  A    between atoms: C_7  and  C_8
REMARK    8  A    between atoms: C_8  and  C_9
REMARK    9  A    between atoms: C_9  and  C_10
REMARK   10  A    between atoms: C_10  and  C_11
REMARK   11  A    between atoms: C_11  and  C_12
REMARK   12  A    between atoms: C_12  and  N_13
REMARK   13  A    between atoms: C_16  and  C_17
REMARK   14  A    between atoms: N_20  and  C_21
REMARK                            x       y       z     vdW  Elec       q    Type
REMARK                         _______ _______ _______ _____ _____    ______ ____
ROOT
ATOM      1  N   UNL     1       1.586   8.384  20.244  0.00  0.00    +0.000 N 
ATOM      2  C   UNL     1       1.283   8.459  21.560  0.00  0.00    +0.000 A 
ATOM      3  C   UNL     1       0.353   9.390  21.997  0.00  0.00    +0.000 A 
ATOM      4  C   UNL     1      -0.132  10.368  21.115  0.00  0.00    +0.000 A 
ATOM      5  C   UNL     1       0.389  10.382  19.830  0.00  0.00    +0.000 A 
ATOM      6  C   UNL     1       1.183   9.343  19.384  0.00  0.00    +0.000 A 
ENDROOT
BRANCH   4   7
ATOM      7  C   UNL     1      -1.173  11.324  21.537  0.00  0.00    +0.000 A 
ATOM      8  C   UNL     1      -1.511  11.493  22.874  0.00  0.00    +0.000 A 
ATOM      9  C   UNL     1      -2.627  12.226  23.235  0.00  0.00    +0.000 A 
ATOM     10  N   UNL     1      -3.318  12.923  22.307  0.00  0.00    +0.000 N 
ATOM     11  C   UNL     1      -4.550  13.631  22.699  0.00  0.00    +0.000 C 
ATOM     12  C   UNL     1      -2.910  12.944  21.027  0.00  0.00    +0.000 A 
ATOM     13  C   UNL     1      -1.889  12.083  20.597  0.00  0.00    +0.000 A 
ENDBRANCH   4   7
BRANCH   1  14
ATOM     14  C   UNL     1       2.282   7.194  19.722  0.00  0.00    +0.000 C 
BRANCH  14  15
ATOM     15  C   UNL     1       2.366   7.277  18.211  0.00  0.00    +0.000 C 
BRANCH  15  16
ATOM     16  C   UNL     1       3.822   7.404  17.765  0.00  0.00    +0.000 C 
BRANCH  16  17
ATOM     17  C   UNL     1       4.263   6.174  16.987  0.00  0.00    +0.000 C 
BRANCH  17  18
ATOM     18  C   UNL     1       4.206   4.943  17.865  0.00  0.00    +0.000 C 
BRANCH  18  19
ATOM     19  C   UNL     1       3.355   3.880  17.197  0.00  0.00    +0.000 C 
BRANCH  19  20
ATOM     20  C   UNL     1       3.612   2.531  17.858  0.00  0.00    +0.000 C 
BRANCH  20  21
ATOM     21  C   UNL     1       2.331   2.018  18.489  0.00  0.00    +0.000 C 
BRANCH  21  22
ATOM     22  C   UNL     1       1.238   3.061  18.341  0.00  0.00    +0.000 C 
BRANCH  22  23
ATOM     23  C   UNL     1       0.998   3.755  19.670  0.00  0.00    +0.000 C 
BRANCH  23  25
ATOM     24  C   UNL     1       2.206   3.383  21.813  0.00  0.00    +0.000 C 
ATOM     25  C   UNL     1       1.227   2.789  20.823  0.00  0.00    +0.000 C 
ENDBRANCH  23  25
ENDBRANCH  22  23
ENDBRANCH  21  22
ENDBRANCH  20  21
ENDBRANCH  19  20
ENDBRANCH  18  19
ENDBRANCH  17  18
ENDBRANCH  16  17
ENDBRANCH  15  16
ENDBRANCH  14  15
ENDBRANCH   1  14
TORSDOF 12
ENDMDL
MODEL 8
REMARK VINA RESULT:      -5.8      1.296      1.443
REMARK  Name = 
REMARK  14 active torsions:
REMARK  status: ('A' for Active; 'I' for Inactive)
REMARK    1  A    between atoms: C_1  and  C_2
REMARK    2  A    between atoms: C_2  and  C_3
REMARK    3  A    between atoms: C_3  and  C_4
REMARK    4  A    between atoms: C_4  and  C_5
REMARK    5  A    between atoms: C_5  and  C_6
REMARK    6  A    between atoms: C_6  and  C_7
REMARK    7  A    between atoms: C_7  and  C_8
REMARK    8  A    between atoms: C_8  and  C_9
REMARK    9  A    between atoms: C_9  and  C_10
REMARK   10  A    between atoms: C_10  and  C_11
REMARK   11  A    between atoms: C_11  and  C_12
REMARK   12  A    between atoms: C_12  and  N_13
REMARK   13  A    between atoms: C_16  and  C_17
REMARK   14  A    between atoms: N_20  and  C_21
REMARK                            x       y       z     vdW  Elec       q    Type
REMARK                         _______ _______ _______ _____ _____    ______ ____
ROOT
ATOM      1  N   UNL     1       1.550   9.042  18.627  0.00  0.00    +0.000 N 
ATOM      2  C   UNL     1       0.852  10.121  18.204  0.00  0.00    +0.000 A 
ATOM      3  C   UNL     1       0.304  10.990  19.135  0.00  0.00    +0.000 A 
ATOM      4  C   UNL     1       0.311  10.656  20.499  0.00  0.00    +0.000 A 
ATOM      5  C   UNL     1       0.841   9.425  20.851  0.00  0.00    +0.000 A 
ATOM      6  C   UNL     1       1.525   8.664  19.923  0.00  0.00    +0.000 A 
ENDROOT
BRANCH   4   7
ATOM      7  C   UNL     1      -0.203  11.595  21.515  0.00  0.00    +0.000 A 
ATOM      8  C   UNL     1      -1.032  11.172  22.546  0.00  0.00    +0.000 A 
ATOM      9  C   UNL     1      -1.676  12.088  23.358  0.00  0.00    +0.000 A 
ATOM     10  N   UNL     1      -1.389  13.405  23.266  0.00  0.00    +0.000 N 
ATOM     11  C   UNL     1      -2.145  14.372  24.083  0.00  0.00    +0.000 C 
ATOM     12  C   UNL     1      -0.448  13.839  22.412  0.00  0.00    +0.000 A 
ATOM     13  C   UNL     1       0.101  12.964  21.462  0.00  0.00    +0.000 A 
ENDBRANCH   4   7
BRANCH   1  14
ATOM     14  C   UNL     1       2.424   8.323  17.683  0.00  0.00    +0.000 C 
BRANCH  14  15
ATOM     15  C   UNL     1       3.175   7.231  18.417  0.00  0.00    +0.000 C 
BRANCH  15  16
ATOM     16  C   UNL     1       4.217   6.592  17.500  0.00  0.00    +0.000 C 
BRANCH  16  17
ATOM     17  C   UNL     1       5.215   5.769  18.300  0.00  0.00    +0.000 C 
BRANCH  17  18
ATOM     18  C   UNL     1       5.162   4.316  17.881  0.00  0.00    +0.000 C 
BRANCH  18  19
ATOM     19  C   UNL     1       4.077   4.127  16.837  0.00  0.00    +0.000 C 
BRANCH  19  20
ATOM     20  C   UNL     1       3.008   3.184  17.376  0.00  0.00    +0.000 C 
BRANCH  20  21
ATOM     21  C   UNL     1       1.724   3.954  17.622  0.00  0.00    +0.000 C 
BRANCH  21  22
ATOM     22  C   UNL     1       1.187   3.621  19.002  0.00  0.00    +0.000 C 
BRANCH  22  23
ATOM     23  C   UNL     1       2.104   4.193  20.069  0.00  0.00    +0.000 C 
BRANCH  23  25
ATOM     24  C   UNL     1       1.503   2.556  21.845  0.00  0.00    +0.000 C 
ATOM     25  C   UNL     1       2.623   3.085  20.974  0.00  0.00    +0.000 C 
ENDBRANCH  23  25
ENDBRANCH  22  23
ENDBRANCH  21  22
ENDBRANCH  20  21
ENDBRANCH  19  20
ENDBRANCH  18  19
ENDBRANCH  17  18
ENDBRANCH  16  17
ENDBRANCH  15  16
ENDBRANCH  14  15
ENDBRANCH   1  14
TORSDOF 12
ENDMDL
MODEL 9
REMARK VINA RESULT:      -5.8      1.442      3.562
REMARK  Name = 
REMARK  14 active torsions:
REMARK  status: ('A' for Active; 'I' for Inactive)
REMARK    1  A    between atoms: C_1  and  C_2
REMARK    2  A    between atoms: C_2  and  C_3
REMARK    3  A    between atoms: C_3  and  C_4
REMARK    4  A    between atoms: C_4  and  C_5
REMARK    5  A    between atoms: C_5  and  C_6
REMARK    6  A    between atoms: C_6  and  C_7
REMARK    7  A    between atoms: C_7  and  C_8
REMARK    8  A    between atoms: C_8  and  C_9
REMARK    9  A    between atoms: C_9  and  C_10
REMARK   10  A    between atoms: C_10  and  C_11
REMARK   11  A    between atoms: C_11  and  C_12
REMARK   12  A    between atoms: C_12  and  N_13
REMARK   13  A    between atoms: C_16  and  C_17
REMARK   14  A    between atoms: N_20  and  C_21
REMARK                            x       y       z     vdW  Elec       q    Type
REMARK                         _______ _______ _______ _____ _____    ______ ____
ROOT
ATOM      1  N   UNL     1       2.145   8.011  19.058  0.00  0.00    +0.000 N 
ATOM      2  C   UNL     1       1.891   7.828  20.374  0.00  0.00    +0.000 A 
ATOM      3  C   UNL     1       0.996   8.666  21.023  0.00  0.00    +0.000 A 
ATOM      4  C   UNL     1       0.501   9.806  20.371  0.00  0.00    +0.000 A 
ATOM      5  C   UNL     1       0.975  10.067  19.094  0.00  0.00    +0.000 A 
ATOM      6  C   UNL     1       1.731   9.127  18.421  0.00  0.00    +0.000 A 
ENDROOT
BRANCH   4   7
ATOM      7  C   UNL     1      -0.504  10.674  21.013  0.00  0.00    +0.000 A 
ATOM      8  C   UNL     1      -1.273  11.569  20.279  0.00  0.00    +0.000 A 
ATOM      9  C   UNL     1      -2.050  12.521  20.913  0.00  0.00    +0.000 A 
ATOM     10  N   UNL     1      -2.202  12.498  22.256  0.00  0.00    +0.000 N 
ATOM     11  C   UNL     1      -2.968  13.569  22.918  0.00  0.00    +0.000 C 
ATOM     12  C   UNL     1      -1.630  11.529  22.989  0.00  0.00    +0.000 A 
ATOM     13  C   UNL     1      -0.704  10.653  22.403  0.00  0.00    +0.000 A 
ENDBRANCH   4   7
BRANCH   1  14
ATOM     14  C   UNL     1       2.797   6.939  18.285  0.00  0.00    +0.000 C 
BRANCH  14  15
ATOM     15  C   UNL     1       1.802   5.828  18.017  0.00  0.00    +0.000 C 
BRANCH  15  16
ATOM     16  C   UNL     1       2.215   4.554  18.752  0.00  0.00    +0.000 C 
BRANCH  16  17
ATOM     17  C   UNL     1       1.783   3.316  17.981  0.00  0.00    +0.000 C 
BRANCH  17  18
ATOM     18  C   UNL     1       2.979   2.447  17.659  0.00  0.00    +0.000 C 
BRANCH  18  19
ATOM     19  C   UNL     1       4.252   3.262  17.796  0.00  0.00    +0.000 C 
BRANCH  19  20
ATOM     20  C   UNL     1       4.755   3.658  16.413  0.00  0.00    +0.000 C 
BRANCH  20  21
ATOM     21  C   UNL     1       5.466   4.997  16.492  0.00  0.00    +0.000 C 
BRANCH  21  22
ATOM     22  C   UNL     1       6.963   4.787  16.356  0.00  0.00    +0.000 C 
BRANCH  22  23
ATOM     23  C   UNL     1       7.601   4.691  17.731  0.00  0.00    +0.000 C 
BRANCH  23  25
ATOM     24  C   UNL     1       7.880   7.134  18.117  0.00  0.00    +0.000 C 
ATOM     25  C   UNL     1       7.186   5.875  18.593  0.00  0.00    +0.000 C 
ENDBRANCH  23  25
ENDBRANCH  22  23
ENDBRANCH  21  22
ENDBRANCH  20  21
ENDBRANCH  19  20
ENDBRANCH  18  19
ENDBRANCH  17  18
ENDBRANCH  16  17
ENDBRANCH  15  16
ENDBRANCH  14  15
ENDBRANCH   1  14
TORSDOF 12
ENDMDL
