MODEL 1
REMARK VINA RESULT:      -8.8      0.000      0.000
REMARK  Name = 
REMARK  5 active torsions:
REMARK  status: ('A' for Active; 'I' for Inactive)
REMARK    1  A    between atoms: C_1  and  O_2
REMARK    2  A    between atoms: O_2  and  C_3
REMARK    3  A    between atoms: C_8  and  C_9
REMARK    4  A    between atoms: C_11  and  C_12
REMARK    5  A    between atoms: C_18  and  C_19
REMARK                            x       y       z     vdW  Elec       q    Type
REMARK                         _______ _______ _______ _____ _____    ______ ____
ROOT
ATOM      1  C   UNL     1       4.672   5.107  16.578  0.00  0.00    +0.000 A 
ATOM      2  N   UNL     1       4.261   4.207  17.453  0.00  0.00    +0.000 NA
ATOM      3  C   UNL     1       3.376   4.847  18.296  0.00  0.00    +0.000 A 
ATOM      4  C   UNL     1       3.296   6.202  17.991  0.00  0.00    +0.000 A 
ATOM      5  N   UNL     1       4.132   6.328  16.901  0.00  0.00    +0.000 N 
ATOM      6  H   UNL     1       4.324   7.177  16.388  0.00  0.00    +0.000 HD
ENDROOT
BRANCH   1  12
ATOM      7  C   UNL     1       6.865   5.394  15.304  0.00  0.00    +0.000 A 
ATOM      8  C   UNL     1       7.636   5.082  14.171  0.00  0.00    +0.000 A 
ATOM      9  C   UNL     1       7.114   4.291  13.146  0.00  0.00    +0.000 A 
ATOM     10  C   UNL     1       5.820   3.792  13.245  0.00  0.00    +0.000 A 
ATOM     11  C   UNL     1       5.059   4.071  14.378  0.00  0.00    +0.000 A 
ATOM     12  C   UNL     1       5.561   4.861  15.430  0.00  0.00    +0.000 A 
BRANCH   7  14
ATOM     13  C   UNL     1       7.581   5.513  17.561  0.00  0.00    +0.000 C 
ATOM     14  O   UNL     1       7.345   6.185  16.324  0.00  0.00    +0.000 OA
ENDBRANCH   7  14
ENDBRANCH   1  12
BRANCH   3  15
ATOM     15  C   UNL     1       2.638   4.119  19.320  0.00  0.00    +0.000 A 
ATOM     16  C   UNL     1       1.295   3.782  19.108  0.00  0.00    +0.000 A 
ATOM     17  C   UNL     1       0.575   3.077  20.078  0.00  0.00    +0.000 A 
ATOM     18  C   UNL     1       1.190   2.703  21.271  0.00  0.00    +0.000 A 
ATOM     19  C   UNL     1       2.520   3.048  21.503  0.00  0.00    +0.000 A 
ATOM     20  C   UNL     1       3.232   3.766  20.540  0.00  0.00    +0.000 A 
ENDBRANCH   3  15
BRANCH   4  21
ATOM     21  C   UNL     1       2.560   7.335  18.558  0.00  0.00    +0.000 A 
ATOM     22  C   UNL     1       2.171   7.345  19.906  0.00  0.00    +0.000 A 
ATOM     23  C   UNL     1       1.400   8.389  20.423  0.00  0.00    +0.000 A 
ATOM     24  C   UNL     1       1.037   9.457  19.608  0.00  0.00    +0.000 A 
ATOM     25  C   UNL     1       1.445   9.481  18.277  0.00  0.00    +0.000 A 
ATOM     26  C   UNL     1       2.197   8.424  17.754  0.00  0.00    +0.000 A 
ENDBRANCH   4  21
TORSDOF 4
ENDMDL
MODEL 2
REMARK VINA RESULT:      -8.7      0.151      1.361
REMARK  Name = 
REMARK  5 active torsions:
REMARK  status: ('A' for Active; 'I' for Inactive)
REMARK    1  A    between atoms: C_1  and  O_2
REMARK    2  A    between atoms: O_2  and  C_3
REMARK    3  A    between atoms: C_8  and  C_9
REMARK    4  A    between atoms: C_11  and  C_12
REMARK    5  A    between atoms: C_18  and  C_19
REMARK                            x       y       z     vdW  Elec       q    Type
REMARK                         _______ _______ _______ _____ _____    ______ ____
ROOT
ATOM      1  C   UNL     1       4.663   5.099  16.626  0.00  0.00    +0.000 A 
ATOM      2  N   UNL     1       4.282   4.192  17.507  0.00  0.00    +0.000 NA
ATOM      3  C   UNL     1       3.376   4.808  18.345  0.00  0.00    +0.000 A 
ATOM      4  C   UNL     1       3.251   6.157  18.030  0.00  0.00    +0.000 A 
ATOM      5  N   UNL     1       4.083   6.304  16.939  0.00  0.00    +0.000 N 
ATOM      6  H   UNL     1       4.248   7.155  16.420  0.00  0.00    +0.000 HD
ENDROOT
BRANCH   1  12
ATOM      7  C   UNL     1       6.858   5.423  15.364  0.00  0.00    +0.000 A 
ATOM      8  C   UNL     1       7.639   5.131  14.232  0.00  0.00    +0.000 A 
ATOM      9  C   UNL     1       7.130   4.345  13.197  0.00  0.00    +0.000 A 
ATOM     10  C   UNL     1       5.841   3.831  13.285  0.00  0.00    +0.000 A 
ATOM     11  C   UNL     1       5.072   4.090  14.417  0.00  0.00    +0.000 A 
ATOM     12  C   UNL     1       5.560   4.874  15.479  0.00  0.00    +0.000 A 
BRANCH   7  14
ATOM     13  C   UNL     1       7.581   5.524  17.621  0.00  0.00    +0.000 C 
ATOM     14  O   UNL     1       7.325   6.209  16.395  0.00  0.00    +0.000 OA
ENDBRANCH   7  14
ENDBRANCH   1  12
BRANCH   3  15
ATOM     15  C   UNL     1       2.663   4.063  19.374  0.00  0.00    +0.000 A 
ATOM     16  C   UNL     1       3.373   3.459  20.420  0.00  0.00    +0.000 A 
ATOM     17  C   UNL     1       2.701   2.746  21.419  0.00  0.00    +0.000 A 
ATOM     18  C   UNL     1       1.312   2.629  21.381  0.00  0.00    +0.000 A 
ATOM     19  C   UNL     1       0.596   3.210  20.337  0.00  0.00    +0.000 A 
ATOM     20  C   UNL     1       1.270   3.906  19.331  0.00  0.00    +0.000 A 
ENDBRANCH   3  15
BRANCH   4  21
ATOM     21  C   UNL     1       2.478   7.270  18.590  0.00  0.00    +0.000 A 
ATOM     22  C   UNL     1       2.076   8.349  17.788  0.00  0.00    +0.000 A 
ATOM     23  C   UNL     1       1.410   9.445  18.341  0.00  0.00    +0.000 A 
ATOM     24  C   UNL     1       1.103   9.462  19.698  0.00  0.00    +0.000 A 
ATOM     25  C   UNL     1       1.462   8.382  20.502  0.00  0.00    +0.000 A 
ATOM     26  C   UNL     1       2.150   7.296  19.952  0.00  0.00    +0.000 A 
ENDBRANCH   4  21
TORSDOF 4
ENDMDL
MODEL 3
REMARK VINA RESULT:      -8.3      0.221      3.861
REMARK  Name = 
REMARK  5 active torsions:
REMARK  status: ('A' for Active; 'I' for Inactive)
REMARK    1  A    between atoms: C_1  and  O_2
REMARK    2  A    between atoms: O_2  and  C_3
REMARK    3  A    between atoms: C_8  and  C_9
REMARK    4  A    between atoms: C_11  and  C_12
REMARK    5  A    between atoms: C_18  and  C_19
REMARK                            x       y       z     vdW  Elec       q    Type
REMARK                         _______ _______ _______ _____ _____    ______ ____
ROOT
ATOM      1  C   UNL     1       4.566   5.156  16.522  0.00  0.00    +0.000 A 
ATOM      2  N   UNL     1       3.989   6.311  16.806  0.00  0.00    +0.000 NA
ATOM      3  C   UNL     1       3.211   6.100  17.926  0.00  0.00    +0.000 A 
ATOM      4  C   UNL     1       3.238   4.761  18.301  0.00  0.00    +0.000 A 
ATOM      5  N   UNL     1       4.103   4.196  17.388  0.00  0.00    +0.000 N 
ATOM      6  H   UNL     1       4.384   3.226  17.347  0.00  0.00    +0.000 HD
ENDROOT
BRANCH   1  12
ATOM      7  C   UNL     1       6.877   5.419  15.473  0.00  0.00    +0.000 A 
ATOM      8  C   UNL     1       7.747   5.118  14.410  0.00  0.00    +0.000 A 
ATOM      9  C   UNL     1       7.307   4.370  13.316  0.00  0.00    +0.000 A 
ATOM     10  C   UNL     1       5.998   3.903  13.277  0.00  0.00    +0.000 A 
ATOM     11  C   UNL     1       5.138   4.171  14.339  0.00  0.00    +0.000 A 
ATOM     12  C   UNL     1       5.555   4.918  15.457  0.00  0.00    +0.000 A 
BRANCH   7  14
ATOM     13  C   UNL     1       7.558   5.429  17.744  0.00  0.00    +0.000 C 
ATOM     14  O   UNL     1       7.275   6.170  16.557  0.00  0.00    +0.000 OA
ENDBRANCH   7  14
ENDBRANCH   1  12
BRANCH   3  15
ATOM     15  C   UNL     1       2.516   7.197  18.586  0.00  0.00    +0.000 A 
ATOM     16  C   UNL     1       2.152   8.336  17.855  0.00  0.00    +0.000 A 
ATOM     17  C   UNL     1       1.479   9.395  18.474  0.00  0.00    +0.000 A 
ATOM     18  C   UNL     1       1.163   9.326  19.830  0.00  0.00    +0.000 A 
ATOM     19  C   UNL     1       1.536   8.208  20.572  0.00  0.00    +0.000 A 
ATOM     20  C   UNL     1       2.223   7.160  19.957  0.00  0.00    +0.000 A 
ENDBRANCH   3  15
BRANCH   4  21
ATOM     21  C   UNL     1       2.594   3.985  19.365  0.00  0.00    +0.000 A 
ATOM     22  C   UNL     1       1.213   3.741  19.350  0.00  0.00    +0.000 A 
ATOM     23  C   UNL     1       0.590   3.072  20.407  0.00  0.00    +0.000 A 
ATOM     24  C   UNL     1       1.346   2.603  21.477  0.00  0.00    +0.000 A 
ATOM     25  C   UNL     1       2.725   2.804  21.490  0.00  0.00    +0.000 A 
ATOM     26  C   UNL     1       3.343   3.496  20.444  0.00  0.00    +0.000 A 
ENDBRANCH   4  21
TORSDOF 4
ENDMDL
MODEL 4
REMARK VINA RESULT:      -8.1      0.238      3.894
REMARK  Name = 
REMARK  5 active torsions:
REMARK  status: ('A' for Active; 'I' for Inactive)
REMARK    1  A    between atoms: C_1  and  O_2
REMARK    2  A    between atoms: O_2  and  C_3
REMARK    3  A    between atoms: C_8  and  C_9
REMARK    4  A    between atoms: C_11  and  C_12
REMARK    5  A    between atoms: C_18  and  C_19
REMARK                            x       y       z     vdW  Elec       q    Type
REMARK                         _______ _______ _______ _____ _____    ______ ____
ROOT
ATOM      1  C   UNL     1       4.543   5.291  16.598  0.00  0.00    +0.000 A 
ATOM      2  N   UNL     1       3.965   6.454  16.843  0.00  0.00    +0.000 NA
ATOM      3  C   UNL     1       3.168   6.273  17.954  0.00  0.00    +0.000 A 
ATOM      4  C   UNL     1       3.184   4.944  18.363  0.00  0.00    +0.000 A 
ATOM      5  N   UNL     1       4.063   4.354  17.479  0.00  0.00    +0.000 N 
ATOM      6  H   UNL     1       4.342   3.383  17.467  0.00  0.00    +0.000 HD
ENDROOT
BRANCH   1  12
ATOM      7  C   UNL     1       6.877   5.511  15.587  0.00  0.00    +0.000 A 
ATOM      8  C   UNL     1       7.763   5.182  14.547  0.00  0.00    +0.000 A 
ATOM      9  C   UNL     1       7.335   4.421  13.458  0.00  0.00    +0.000 A 
ATOM     10  C   UNL     1       6.022   3.968  13.401  0.00  0.00    +0.000 A 
ATOM     11  C   UNL     1       5.145   4.263  14.443  0.00  0.00    +0.000 A 
ATOM     12  C   UNL     1       5.550   5.024  15.555  0.00  0.00    +0.000 A 
BRANCH   7  14
ATOM     13  C   UNL     1       7.577   5.545  17.853  0.00  0.00    +0.000 C 
ATOM     14  O   UNL     1       7.263   6.275  16.667  0.00  0.00    +0.000 OA
ENDBRANCH   7  14
ENDBRANCH   1  12
BRANCH   3  15
ATOM     15  C   UNL     1       2.465   7.388  18.575  0.00  0.00    +0.000 A 
ATOM     16  C   UNL     1       2.126   7.332  19.934  0.00  0.00    +0.000 A 
ATOM     17  C   UNL     1       1.458   8.397  20.547  0.00  0.00    +0.000 A 
ATOM     18  C   UNL     1       1.121   9.529  19.807  0.00  0.00    +0.000 A 
ATOM     19  C   UNL     1       1.435   9.590  18.451  0.00  0.00    +0.000 A 
ATOM     20  C   UNL     1       2.087   8.519  17.837  0.00  0.00    +0.000 A 
ENDBRANCH   3  15
BRANCH   4  21
ATOM     21  C   UNL     1       2.521   4.196  19.435  0.00  0.00    +0.000 A 
ATOM     22  C   UNL     1       3.202   3.863  20.616  0.00  0.00    +0.000 A 
ATOM     23  C   UNL     1       2.592   3.082  21.600  0.00  0.00    +0.000 A 
ATOM     24  C   UNL     1       1.279   2.652  21.435  0.00  0.00    +0.000 A 
ATOM     25  C   UNL     1       0.575   3.004  20.285  0.00  0.00    +0.000 A 
ATOM     26  C   UNL     1       1.195   3.766  19.289  0.00  0.00    +0.000 A 
ENDBRANCH   4  21
TORSDOF 4
ENDMDL
MODEL 5
REMARK VINA RESULT:      -8.0      2.613      7.246
REMARK  Name = 
REMARK  5 active torsions:
REMARK  status: ('A' for Active; 'I' for Inactive)
REMARK    1  A    between atoms: C_1  and  O_2
REMARK    2  A    between atoms: O_2  and  C_3
REMARK    3  A    between atoms: C_8  and  C_9
REMARK    4  A    between atoms: C_11  and  C_12
REMARK    5  A    between atoms: C_18  and  C_19
REMARK                            x       y       z     vdW  Elec       q    Type
REMARK                         _______ _______ _______ _____ _____    ______ ____
ROOT
ATOM      1  C   UNL     1       1.666   8.553  19.533  0.00  0.00    +0.000 A 
ATOM      2  N   UNL     1       2.574   8.275  18.614  0.00  0.00    +0.000 NA
ATOM      3  C   UNL     1       2.770   6.910  18.650  0.00  0.00    +0.000 A 
ATOM      4  C   UNL     1       2.026   6.332  19.674  0.00  0.00    +0.000 A 
ATOM      5  N   UNL     1       1.344   7.404  20.211  0.00  0.00    +0.000 N 
ATOM      6  H   UNL     1       0.688   7.373  20.978  0.00  0.00    +0.000 HD
ENDROOT
BRANCH   1  12
ATOM      7  C   UNL     1       0.812  10.385  21.093  0.00  0.00    +0.000 A 
ATOM      8  C   UNL     1       0.260  11.670  21.235  0.00  0.00    +0.000 A 
ATOM      9  C   UNL     1      -0.074  12.432  20.114  0.00  0.00    +0.000 A 
ATOM     10  C   UNL     1       0.150  11.926  18.839  0.00  0.00    +0.000 A 
ATOM     11  C   UNL     1       0.724  10.666  18.689  0.00  0.00    +0.000 A 
ATOM     12  C   UNL     1       1.076   9.877  19.799  0.00  0.00    +0.000 A 
BRANCH   7  14
ATOM     13  C   UNL     1       0.115   9.471  23.167  0.00  0.00    +0.000 C 
ATOM     14  O   UNL     1       1.136   9.600  22.178  0.00  0.00    +0.000 OA
ENDBRANCH   7  14
ENDBRANCH   1  12
BRANCH   3  15
ATOM     15  C   UNL     1       3.629   6.239  17.684  0.00  0.00    +0.000 A 
ATOM     16  C   UNL     1       4.475   6.993  16.859  0.00  0.00    +0.000 A 
ATOM     17  C   UNL     1       5.311   6.362  15.931  0.00  0.00    +0.000 A 
ATOM     18  C   UNL     1       5.309   4.973  15.818  0.00  0.00    +0.000 A 
ATOM     19  C   UNL     1       4.459   4.214  16.619  0.00  0.00    +0.000 A 
ATOM     20  C   UNL     1       3.613   4.846  17.533  0.00  0.00    +0.000 A 
ENDBRANCH   3  15
BRANCH   4  21
ATOM     21  C   UNL     1       1.873   4.964  20.178  0.00  0.00    +0.000 A 
ATOM     22  C   UNL     1       1.079   4.026  19.502  0.00  0.00    +0.000 A 
ATOM     23  C   UNL     1       0.870   2.749  20.028  0.00  0.00    +0.000 A 
ATOM     24  C   UNL     1       1.483   2.379  21.221  0.00  0.00    +0.000 A 
ATOM     25  C   UNL     1       2.305   3.285  21.887  0.00  0.00    +0.000 A 
ATOM     26  C   UNL     1       2.494   4.571  21.372  0.00  0.00    +0.000 A 
ENDBRANCH   4  21
TORSDOF 4
ENDMDL
MODEL 6
REMARK VINA RESULT:      -8.0      2.650      7.222
REMARK  Name = 
REMARK  5 active torsions:
REMARK  status: ('A' for Active; 'I' for Inactive)
REMARK    1  A    between atoms: C_1  and  O_2
REMARK    2  A    between atoms: O_2  and  C_3
REMARK    3  A    between atoms: C_8  and  C_9
REMARK    4  A    between atoms: C_11  and  C_12
REMARK    5  A    between atoms: C_18  and  C_19
REMARK                            x       y       z     vdW  Elec       q    Type
REMARK                         _______ _______ _______ _____ _____    ______ ____
ROOT
ATOM      1  C   UNL     1       1.646   8.584  19.586  0.00  0.00    +0.000 A 
ATOM      2  N   UNL     1       2.555   8.295  18.672  0.00  0.00    +0.000 NA
ATOM      3  C   UNL     1       2.739   6.929  18.712  0.00  0.00    +0.000 A 
ATOM      4  C   UNL     1       1.986   6.359  19.734  0.00  0.00    +0.000 A 
ATOM      5  N   UNL     1       1.310   7.438  20.265  0.00  0.00    +0.000 N 
ATOM      6  H   UNL     1       0.650   7.416  21.030  0.00  0.00    +0.000 HD
ENDROOT
BRANCH   1  12
ATOM      7  C   UNL     1       0.773  10.415  21.136  0.00  0.00    +0.000 A 
ATOM      8  C   UNL     1       0.234  11.706  21.273  0.00  0.00    +0.000 A 
ATOM      9  C   UNL     1      -0.060  12.481  20.149  0.00  0.00    +0.000 A 
ATOM     10  C   UNL     1       0.192  11.981  18.876  0.00  0.00    +0.000 A 
ATOM     11  C   UNL     1       0.754  10.714  18.732  0.00  0.00    +0.000 A 
ATOM     12  C   UNL     1       1.066   9.913  19.846  0.00  0.00    +0.000 A 
BRANCH   7  14
ATOM     13  C   UNL     1       0.017   9.512  23.194  0.00  0.00    +0.000 C 
ATOM     14  O   UNL     1       1.058   9.619  22.223  0.00  0.00    +0.000 OA
ENDBRANCH   7  14
ENDBRANCH   1  12
BRANCH   3  15
ATOM     15  C   UNL     1       3.597   6.248  17.752  0.00  0.00    +0.000 A 
ATOM     16  C   UNL     1       3.613   4.848  17.697  0.00  0.00    +0.000 A 
ATOM     17  C   UNL     1       4.426   4.180  16.776  0.00  0.00    +0.000 A 
ATOM     18  C   UNL     1       5.233   4.905  15.900  0.00  0.00    +0.000 A 
ATOM     19  C   UNL     1       5.241   6.297  15.958  0.00  0.00    +0.000 A 
ATOM     20  C   UNL     1       4.442   6.962  16.889  0.00  0.00    +0.000 A 
ENDBRANCH   3  15
BRANCH   4  21
ATOM     21  C   UNL     1       1.819   4.995  20.241  0.00  0.00    +0.000 A 
ATOM     22  C   UNL     1       2.470   4.571  21.410  0.00  0.00    +0.000 A 
ATOM     23  C   UNL     1       2.373   3.248  21.846  0.00  0.00    +0.000 A 
ATOM     24  C   UNL     1       1.595   2.336  21.139  0.00  0.00    +0.000 A 
ATOM     25  C   UNL     1       0.912   2.748  19.997  0.00  0.00    +0.000 A 
ATOM     26  C   UNL     1       1.029   4.067  19.548  0.00  0.00    +0.000 A 
ENDBRANCH   4  21
TORSDOF 4
ENDMDL
MODEL 7
REMARK VINA RESULT:      -7.9      2.639      7.207
REMARK  Name = 
REMARK  5 active torsions:
REMARK  status: ('A' for Active; 'I' for Inactive)
REMARK    1  A    between atoms: C_1  and  O_2
REMARK    2  A    between atoms: O_2  and  C_3
REMARK    3  A    between atoms: C_8  and  C_9
REMARK    4  A    between atoms: C_11  and  C_12
REMARK    5  A    between atoms: C_18  and  C_19
REMARK                            x       y       z     vdW  Elec       q    Type
REMARK                         _______ _______ _______ _____ _____    ______ ____
ROOT
ATOM      1  C   UNL     1       1.701   8.491  19.477  0.00  0.00    +0.000 A 
ATOM      2  N   UNL     1       2.616   8.190  18.572  0.00  0.00    +0.000 NA
ATOM      3  C   UNL     1       2.794   6.824  18.627  0.00  0.00    +0.000 A 
ATOM      4  C   UNL     1       2.030   6.267  19.648  0.00  0.00    +0.000 A 
ATOM      5  N   UNL     1       1.355   7.354  20.164  0.00  0.00    +0.000 N 
ATOM      6  H   UNL     1       0.689   7.342  20.923  0.00  0.00    +0.000 HD
ENDROOT
BRANCH   1  12
ATOM      7  C   UNL     1       0.426  10.188  20.894  0.00  0.00    +0.000 A 
ATOM      8  C   UNL     1      -0.070  11.496  21.031  0.00  0.00    +0.000 A 
ATOM      9  C   UNL     1       0.077  12.428  20.002  0.00  0.00    +0.000 A 
ATOM     10  C   UNL     1       0.732  12.069  18.830  0.00  0.00    +0.000 A 
ATOM     11  C   UNL     1       1.254  10.784  18.698  0.00  0.00    +0.000 A 
ATOM     12  C   UNL     1       1.125   9.825  19.720  0.00  0.00    +0.000 A 
BRANCH   7  14
ATOM     13  C   UNL     1      -0.237   9.723  23.123  0.00  0.00    +0.000 C 
ATOM     14  O   UNL     1       0.282   9.241  21.884  0.00  0.00    +0.000 OA
ENDBRANCH   7  14
ENDBRANCH   1  12
BRANCH   3  15
ATOM     15  C   UNL     1       3.656   6.130  17.680  0.00  0.00    +0.000 A 
ATOM     16  C   UNL     1       4.545   6.860  16.879  0.00  0.00    +0.000 A 
ATOM     17  C   UNL     1       5.385   6.207  15.969  0.00  0.00    +0.000 A 
ATOM     18  C   UNL     1       5.343   4.819  15.851  0.00  0.00    +0.000 A 
ATOM     19  C   UNL     1       4.451   4.084  16.627  0.00  0.00    +0.000 A 
ATOM     20  C   UNL     1       3.601   4.738  17.522  0.00  0.00    +0.000 A 
ENDBRANCH   3  15
BRANCH   4  21
ATOM     21  C   UNL     1       1.853   4.908  20.167  0.00  0.00    +0.000 A 
ATOM     22  C   UNL     1       2.494   4.492  21.343  0.00  0.00    +0.000 A 
ATOM     23  C   UNL     1       2.388   3.173  21.791  0.00  0.00    +0.000 A 
ATOM     24  C   UNL     1       1.609   2.259  21.088  0.00  0.00    +0.000 A 
ATOM     25  C   UNL     1       0.936   2.664  19.937  0.00  0.00    +0.000 A 
ATOM     26  C   UNL     1       1.062   3.978  19.477  0.00  0.00    +0.000 A 
ENDBRANCH   4  21
TORSDOF 4
ENDMDL
MODEL 8
REMARK VINA RESULT:      -7.9      2.820      6.971
REMARK  Name = 
REMARK  5 active torsions:
REMARK  status: ('A' for Active; 'I' for Inactive)
REMARK    1  A    between atoms: C_1  and  O_2
REMARK    2  A    between atoms: O_2  and  C_3
REMARK    3  A    between atoms: C_8  and  C_9
REMARK    4  A    between atoms: C_11  and  C_12
REMARK    5  A    between atoms: C_18  and  C_19
REMARK                            x       y       z     vdW  Elec       q    Type
REMARK                         _______ _______ _______ _____ _____    ______ ____
ROOT
ATOM      1  C   UNL     1       1.193   8.109  20.642  0.00  0.00    +0.000 A 
ATOM      2  N   UNL     1       0.866   6.853  20.889  0.00  0.00    +0.000 NA
ATOM      3  C   UNL     1       1.767   6.067  20.201  0.00  0.00    +0.000 A 
ATOM      4  C   UNL     1       2.627   6.851  19.440  0.00  0.00    +0.000 A 
ATOM      5  N   UNL     1       2.230   8.137  19.743  0.00  0.00    +0.000 N 
ATOM      6  H   UNL     1       2.635   8.990  19.384  0.00  0.00    +0.000 HD
ENDROOT
BRANCH   1  12
ATOM      7  C   UNL     1       0.578  10.587  20.639  0.00  0.00    +0.000 A 
ATOM      8  C   UNL     1      -0.070  11.657  21.281  0.00  0.00    +0.000 A 
ATOM      9  C   UNL     1      -0.686  11.479  22.521  0.00  0.00    +0.000 A 
ATOM     10  C   UNL     1      -0.674  10.228  23.128  0.00  0.00    +0.000 A 
ATOM     11  C   UNL     1      -0.062   9.155  22.485  0.00  0.00    +0.000 A 
ATOM     12  C   UNL     1       0.563   9.303  21.233  0.00  0.00    +0.000 A 
BRANCH   7  14
ATOM     13  C   UNL     1       1.454  12.080  19.018  0.00  0.00    +0.000 C 
ATOM     14  O   UNL     1       1.210  10.733  19.424  0.00  0.00    +0.000 OA
ENDBRANCH   7  14
ENDBRANCH   1  12
BRANCH   3  15
ATOM     15  C   UNL     1       1.771   4.616  20.339  0.00  0.00    +0.000 A 
ATOM     16  C   UNL     1       1.318   3.812  19.285  0.00  0.00    +0.000 A 
ATOM     17  C   UNL     1       1.322   2.418  19.400  0.00  0.00    +0.000 A 
ATOM     18  C   UNL     1       1.779   1.813  20.571  0.00  0.00    +0.000 A 
ATOM     19  C   UNL     1       2.214   2.603  21.633  0.00  0.00    +0.000 A 
ATOM     20  C   UNL     1       2.193   3.994  21.523  0.00  0.00    +0.000 A 
ENDBRANCH   3  15
BRANCH   4  21
ATOM     21  C   UNL     1       3.728   6.561  18.517  0.00  0.00    +0.000 A 
ATOM     22  C   UNL     1       3.816   7.197  17.270  0.00  0.00    +0.000 A 
ATOM     23  C   UNL     1       4.821   6.858  16.361  0.00  0.00    +0.000 A 
ATOM     24  C   UNL     1       5.775   5.904  16.700  0.00  0.00    +0.000 A 
ATOM     25  C   UNL     1       5.725   5.288  17.949  0.00  0.00    +0.000 A 
ATOM     26  C   UNL     1       4.704   5.611  18.849  0.00  0.00    +0.000 A 
ENDBRANCH   4  21
TORSDOF 4
ENDMDL
MODEL 9
REMARK VINA RESULT:      -7.9      2.275      6.904
REMARK  Name = 
REMARK  5 active torsions:
REMARK  status: ('A' for Active; 'I' for Inactive)
REMARK    1  A    between atoms: C_1  and  O_2
REMARK    2  A    between atoms: O_2  and  C_3
REMARK    3  A    between atoms: C_8  and  C_9
REMARK    4  A    between atoms: C_11  and  C_12
REMARK    5  A    between atoms: C_18  and  C_19
REMARK                            x       y       z     vdW  Elec       q    Type
REMARK                         _______ _______ _______ _____ _____    ______ ____
ROOT
ATOM      1  C   UNL     1       2.453   8.061  18.550  0.00  0.00    +0.000 A 
ATOM      2  N   UNL     1       3.624   7.848  17.975  0.00  0.00    +0.000 NA
ATOM      3  C   UNL     1       3.756   6.482  17.838  0.00  0.00    +0.000 A 
ATOM      4  C   UNL     1       2.678   5.821  18.418  0.00  0.00    +0.000 A 
ATOM      5  N   UNL     1       1.877   6.854  18.860  0.00  0.00    +0.000 N 
ATOM      6  H   UNL     1       0.988   6.764  19.330  0.00  0.00    +0.000 HD
ENDROOT
BRANCH   1  12
ATOM      7  C   UNL     1       0.947   9.634  19.882  0.00  0.00    +0.000 A 
ATOM      8  C   UNL     1       0.434  10.930  20.059  0.00  0.00    +0.000 A 
ATOM      9  C   UNL     1       0.760  11.955  19.169  0.00  0.00    +0.000 A 
ATOM     10  C   UNL     1       1.613  11.701  18.100  0.00  0.00    +0.000 A 
ATOM     11  C   UNL     1       2.150  10.426  17.935  0.00  0.00    +0.000 A 
ATOM     12  C   UNL     1       1.843   9.375  18.819  0.00  0.00    +0.000 A 
BRANCH   7  14
ATOM     13  C   UNL     1      -0.255   8.929  21.801  0.00  0.00    +0.000 C 
ATOM     14  O   UNL     1       0.631   8.597  20.732  0.00  0.00    +0.000 OA
ENDBRANCH   7  14
ENDBRANCH   1  12
BRANCH   3  15
ATOM     15  C   UNL     1       4.888   5.894  17.134  0.00  0.00    +0.000 A 
ATOM     16  C   UNL     1       5.914   5.271  17.857  0.00  0.00    +0.000 A 
ATOM     17  C   UNL     1       7.003   4.695  17.194  0.00  0.00    +0.000 A 
ATOM     18  C   UNL     1       7.079   4.739  15.803  0.00  0.00    +0.000 A 
ATOM     19  C   UNL     1       6.075   5.373  15.074  0.00  0.00    +0.000 A 
ATOM     20  C   UNL     1       4.997   5.961  15.738  0.00  0.00    +0.000 A 
ENDBRANCH   3  15
BRANCH   4  21
ATOM     21  C   UNL     1       2.316   4.412  18.590  0.00  0.00    +0.000 A 
ATOM     22  C   UNL     1       1.684   3.963  19.759  0.00  0.00    +0.000 A 
ATOM     23  C   UNL     1       1.415   2.606  19.954  0.00  0.00    +0.000 A 
ATOM     24  C   UNL     1       1.739   1.682  18.966  0.00  0.00    +0.000 A 
ATOM     25  C   UNL     1       2.334   2.115  17.783  0.00  0.00    +0.000 A 
ATOM     26  C   UNL     1       2.626   3.470  17.599  0.00  0.00    +0.000 A 
ENDBRANCH   4  21
TORSDOF 4
ENDMDL
