MODEL 1
REMARK VINA RESULT:      -8.2      0.000      0.000
REMARK  Name = 
REMARK  5 active torsions:
REMARK  status: ('A' for Active; 'I' for Inactive)
REMARK    1  A    between atoms: C_1  and  C_2
REMARK    2  A    between atoms: C_6  and  N_7
REMARK    3  A    between atoms: N_7  and  S_8
REMARK    4  A    between atoms: S_8  and  C_11
REMARK    5  A    between atoms: C_13  and  C_14
REMARK                            x       y       z     vdW  Elec       q    Type
REMARK                         _______ _______ _______ _____ _____    ______ ____
ROOT
ATOM      1  C   UNL     1       2.673   3.956  19.212  0.00  0.00    +0.000 A 
ATOM      2  C   UNL     1       3.927   4.415  18.756  0.00  0.00    +0.000 A 
ATOM      3  C   UNL     1       4.578   3.745  17.709  0.00  0.00    +0.000 A 
ATOM      4  C   UNL     1       3.939   2.668  17.089  0.00  0.00    +0.000 A 
ATOM      5  C   UNL     1       2.717   2.196  17.566  0.00  0.00    +0.000 A 
ATOM      6  C   UNL     1       2.075   2.837  18.628  0.00  0.00    +0.000 A 
ATOM      7 CL   UNL     1       0.551   2.176  19.102  0.00  0.00    +0.000 Cl
ENDROOT
BRANCH   3   8
ATOM      8  C   UNL     1       5.920   4.221  17.238  0.00  0.00    +0.000 C 
ATOM      9  O   UNL     1       6.804   4.357  18.075  0.00  0.00    +0.000 OA
ATOM     10  N   UNL     1       6.109   4.481  15.889  0.00  0.00    +0.000 N 
ATOM     11  C   UNL     1       5.216   4.212  14.771  0.00  0.00    +0.000 C 
ATOM     12  C   UNL     1       6.152   3.937  13.611  0.00  0.00    +0.000 C 
ATOM     13  C   UNL     1       7.309   4.891  13.874  0.00  0.00    +0.000 C 
ATOM     14  C   UNL     1       7.379   4.999  15.399  0.00  0.00    +0.000 C 
ENDBRANCH   3   8
BRANCH   1  15
ATOM     15  S   UNL     1       1.899   4.784  20.579  0.00  0.00    +0.000 S 
ATOM     16  O   UNL     1       2.206   4.055  21.787  0.00  0.00    +0.000 OA
ATOM     17  O   UNL     1       0.522   5.032  20.200  0.00  0.00    +0.000 OA
BRANCH  15  18
ATOM     18  N   UNL     1       2.676   6.279  20.615  0.00  0.00    +0.000 N 
ATOM     19  H   UNL     1       3.691   6.204  20.656  0.00  0.00    +0.000 HD
BRANCH  18  25
ATOM     20  C   UNL     1      -0.051  10.384  20.740  0.00  0.00    +0.000 C 
ATOM     21  C   UNL     1       0.793   9.410  19.973  0.00  0.00    +0.000 A 
ATOM     22  C   UNL     1       1.065   9.601  18.611  0.00  0.00    +0.000 A 
ATOM     23  C   UNL     1       1.853   8.687  17.915  0.00  0.00    +0.000 A 
ATOM     24  C   UNL     1       2.380   7.573  18.570  0.00  0.00    +0.000 A 
ATOM     25  C   UNL     1       2.112   7.378  19.925  0.00  0.00    +0.000 A 
ATOM     26  C   UNL     1       1.319   8.289  20.625  0.00  0.00    +0.000 A 
ENDBRANCH  18  25
ENDBRANCH  15  18
ENDBRANCH   1  15
TORSDOF 4
ENDMDL
MODEL 2
REMARK VINA RESULT:      -7.9      2.352      6.314
REMARK  Name = 
REMARK  5 active torsions:
REMARK  status: ('A' for Active; 'I' for Inactive)
REMARK    1  A    between atoms: C_1  and  C_2
REMARK    2  A    between atoms: C_6  and  N_7
REMARK    3  A    between atoms: N_7  and  S_8
REMARK    4  A    between atoms: S_8  and  C_11
REMARK    5  A    between atoms: C_13  and  C_14
REMARK                            x       y       z     vdW  Elec       q    Type
REMARK                         _______ _______ _______ _____ _____    ______ ____
ROOT
ATOM      1  C   UNL     1       2.476   4.489  18.847  0.00  0.00    +0.000 A 
ATOM      2  C   UNL     1       2.424   5.755  18.225  0.00  0.00    +0.000 A 
ATOM      3  C   UNL     1       2.231   6.908  19.000  0.00  0.00    +0.000 A 
ATOM      4  C   UNL     1       2.158   6.789  20.390  0.00  0.00    +0.000 A 
ATOM      5  C   UNL     1       2.174   5.534  20.998  0.00  0.00    +0.000 A 
ATOM      6  C   UNL     1       2.336   4.378  20.232  0.00  0.00    +0.000 A 
ATOM      7 CL   UNL     1       2.373   2.888  21.108  0.00  0.00    +0.000 Cl
ENDROOT
BRANCH   3   8
ATOM      8  C   UNL     1       2.155   8.250  18.336  0.00  0.00    +0.000 C 
ATOM      9  O   UNL     1       2.705   8.382  17.249  0.00  0.00    +0.000 OA
ATOM     10  N   UNL     1       1.471   9.279  18.967  0.00  0.00    +0.000 N 
ATOM     11  C   UNL     1       0.642   9.229  20.163  0.00  0.00    +0.000 C 
ATOM     12  C   UNL     1      -0.405  10.299  19.929  0.00  0.00    +0.000 C 
ATOM     13  C   UNL     1       0.373  11.379  19.189  0.00  0.00    +0.000 C 
ATOM     14  C   UNL     1       1.424  10.612  18.383  0.00  0.00    +0.000 C 
ENDBRANCH   3   8
BRANCH   1  15
ATOM     15  S   UNL     1       2.660   3.040  17.837  0.00  0.00    +0.000 S 
ATOM     16  O   UNL     1       2.160   3.339  16.516  0.00  0.00    +0.000 OA
ATOM     17  O   UNL     1       2.122   1.926  18.593  0.00  0.00    +0.000 OA
BRANCH  15  18
ATOM     18  N   UNL     1       4.331   2.827  17.769  0.00  0.00    +0.000 N 
ATOM     19  H   UNL     1       4.605   1.881  17.509  0.00  0.00    +0.000 HD
BRANCH  18  25
ATOM     20  C   UNL     1       7.804   6.136  18.905  0.00  0.00    +0.000 C 
ATOM     21  C   UNL     1       6.880   5.520  17.898  0.00  0.00    +0.000 A 
ATOM     22  C   UNL     1       6.861   5.958  16.566  0.00  0.00    +0.000 A 
ATOM     23  C   UNL     1       5.997   5.371  15.643  0.00  0.00    +0.000 A 
ATOM     24  C   UNL     1       5.144   4.341  16.039  0.00  0.00    +0.000 A 
ATOM     25  C   UNL     1       5.157   3.902  17.363  0.00  0.00    +0.000 A 
ATOM     26  C   UNL     1       6.017   4.489  18.291  0.00  0.00    +0.000 A 
ENDBRANCH  18  25
ENDBRANCH  15  18
ENDBRANCH   1  15
TORSDOF 4
ENDMDL
MODEL 3
REMARK VINA RESULT:      -7.8      0.573      1.363
REMARK  Name = 
REMARK  5 active torsions:
REMARK  status: ('A' for Active; 'I' for Inactive)
REMARK    1  A    between atoms: C_1  and  C_2
REMARK    2  A    between atoms: C_6  and  N_7
REMARK    3  A    between atoms: N_7  and  S_8
REMARK    4  A    between atoms: S_8  and  C_11
REMARK    5  A    between atoms: C_13  and  C_14
REMARK                            x       y       z     vdW  Elec       q    Type
REMARK                         _______ _______ _______ _____ _____    ______ ____
ROOT
ATOM      1  C   UNL     1       2.551   3.757  19.372  0.00  0.00    +0.000 A 
ATOM      2  C   UNL     1       3.808   4.272  18.990  0.00  0.00    +0.000 A 
ATOM      3  C   UNL     1       4.482   3.727  17.887  0.00  0.00    +0.000 A 
ATOM      4  C   UNL     1       3.864   2.720  17.142  0.00  0.00    +0.000 A 
ATOM      5  C   UNL     1       2.638   2.189  17.544  0.00  0.00    +0.000 A 
ATOM      6  C   UNL     1       1.974   2.705  18.658  0.00  0.00    +0.000 A 
ATOM      7 CL   UNL     1       0.448   1.983  19.030  0.00  0.00    +0.000 Cl
ENDROOT
BRANCH   3   8
ATOM      8  C   UNL     1       5.827   4.262  17.495  0.00  0.00    +0.000 C 
ATOM      9  O   UNL     1       6.664   4.408  18.377  0.00  0.00    +0.000 OA
ATOM     10  N   UNL     1       6.071   4.563  16.163  0.00  0.00    +0.000 N 
ATOM     11  C   UNL     1       5.244   4.293  14.996  0.00  0.00    +0.000 C 
ATOM     12  C   UNL     1       6.244   4.081  13.878  0.00  0.00    +0.000 C 
ATOM     13  C   UNL     1       7.352   5.068  14.221  0.00  0.00    +0.000 C 
ATOM     14  C   UNL     1       7.343   5.139  15.749  0.00  0.00    +0.000 C 
ENDBRANCH   3   8
BRANCH   1  15
ATOM     15  S   UNL     1       1.747   4.424  20.808  0.00  0.00    +0.000 S 
ATOM     16  O   UNL     1       2.002   3.543  21.923  0.00  0.00    +0.000 OA
ATOM     17  O   UNL     1       0.388   4.746  20.421  0.00  0.00    +0.000 OA
BRANCH  15  18
ATOM     18  N   UNL     1       2.548   5.886  21.055  0.00  0.00    +0.000 N 
ATOM     19  H   UNL     1       3.561   5.808  20.977  0.00  0.00    +0.000 HD
BRANCH  18  25
ATOM     20  C   UNL     1       1.896   9.338  17.596  0.00  0.00    +0.000 C 
ATOM     21  C   UNL     1       1.585   8.790  18.958  0.00  0.00    +0.000 A 
ATOM     22  C   UNL     1       0.671   9.431  19.806  0.00  0.00    +0.000 A 
ATOM     23  C   UNL     1       0.394   8.906  21.067  0.00  0.00    +0.000 A 
ATOM     24  C   UNL     1       1.024   7.737  21.495  0.00  0.00    +0.000 A 
ATOM     25  C   UNL     1       1.935   7.096  20.654  0.00  0.00    +0.000 A 
ATOM     26  C   UNL     1       2.220   7.620  19.393  0.00  0.00    +0.000 A 
ENDBRANCH  18  25
ENDBRANCH  15  18
ENDBRANCH   1  15
TORSDOF 4
ENDMDL
MODEL 4
REMARK VINA RESULT:      -7.8      2.412      7.056
REMARK  Name = 
REMARK  5 active torsions:
REMARK  status: ('A' for Active; 'I' for Inactive)
REMARK    1  A    between atoms: C_1  and  C_2
REMARK    2  A    between atoms: C_6  and  N_7
REMARK    3  A    between atoms: N_7  and  S_8
REMARK    4  A    between atoms: S_8  and  C_11
REMARK    5  A    between atoms: C_13  and  C_14
REMARK                            x       y       z     vdW  Elec       q    Type
REMARK                         _______ _______ _______ _____ _____    ______ ____
ROOT
ATOM      1  C   UNL     1       4.931   5.570  18.962  0.00  0.00    +0.000 A 
ATOM      2  C   UNL     1       4.267   6.784  18.686  0.00  0.00    +0.000 A 
ATOM      3  C   UNL     1       2.866   6.844  18.740  0.00  0.00    +0.000 A 
ATOM      4  C   UNL     1       2.152   5.709  19.133  0.00  0.00    +0.000 A 
ATOM      5  C   UNL     1       2.809   4.502  19.370  0.00  0.00    +0.000 A 
ATOM      6  C   UNL     1       4.201   4.425  19.289  0.00  0.00    +0.000 A 
ATOM      7 CL   UNL     1       4.896   2.882  19.638  0.00  0.00    +0.000 Cl
ENDROOT
BRANCH   3   8
ATOM      8  C   UNL     1       2.160   8.129  18.428  0.00  0.00    +0.000 C 
ATOM      9  O   UNL     1       2.172   8.520  17.267  0.00  0.00    +0.000 OA
ATOM     10  N   UNL     1       1.523   8.816  19.450  0.00  0.00    +0.000 N 
ATOM     11  C   UNL     1       1.287   8.400  20.825  0.00  0.00    +0.000 C 
ATOM     12  C   UNL     1      -0.021   9.071  21.193  0.00  0.00    +0.000 C 
ATOM     13  C   UNL     1       0.062  10.403  20.459  0.00  0.00    +0.000 C 
ATOM     14  C   UNL     1       0.877  10.097  19.199  0.00  0.00    +0.000 C 
ENDBRANCH   3   8
BRANCH   1  15
ATOM     15  S   UNL     1       6.700   5.506  18.826  0.00  0.00    +0.000 S 
ATOM     16  O   UNL     1       7.247   5.198  20.126  0.00  0.00    +0.000 OA
ATOM     17  O   UNL     1       7.114   6.702  18.118  0.00  0.00    +0.000 OA
BRANCH  15  18
ATOM     18  N   UNL     1       6.960   4.205  17.787  0.00  0.00    +0.000 N 
ATOM     19  H   UNL     1       6.893   3.300  18.250  0.00  0.00    +0.000 HD
BRANCH  18  25
ATOM     20  C   UNL     1       8.051   5.424  13.136  0.00  0.00    +0.000 C 
ATOM     21  C   UNL     1       7.083   4.870  14.139  0.00  0.00    +0.000 A 
ATOM     22  C   UNL     1       5.819   4.405  13.748  0.00  0.00    +0.000 A 
ATOM     23  C   UNL     1       4.934   3.893  14.694  0.00  0.00    +0.000 A 
ATOM     24  C   UNL     1       5.300   3.836  16.039  0.00  0.00    +0.000 A 
ATOM     25  C   UNL     1       6.557   4.297  16.434  0.00  0.00    +0.000 A 
ATOM     26  C   UNL     1       7.444   4.816  15.491  0.00  0.00    +0.000 A 
ENDBRANCH  18  25
ENDBRANCH  15  18
ENDBRANCH   1  15
TORSDOF 4
ENDMDL
MODEL 5
REMARK VINA RESULT:      -7.8      2.683      7.722
REMARK  Name = 
REMARK  5 active torsions:
REMARK  status: ('A' for Active; 'I' for Inactive)
REMARK    1  A    between atoms: C_1  and  C_2
REMARK    2  A    between atoms: C_6  and  N_7
REMARK    3  A    between atoms: N_7  and  S_8
REMARK    4  A    between atoms: S_8  and  C_11
REMARK    5  A    between atoms: C_13  and  C_14
REMARK                            x       y       z     vdW  Elec       q    Type
REMARK                         _______ _______ _______ _____ _____    ______ ____
ROOT
ATOM      1  C   UNL     1       4.479   6.060  17.862  0.00  0.00    +0.000 A 
ATOM      2  C   UNL     1       3.749   7.265  17.779  0.00  0.00    +0.000 A 
ATOM      3  C   UNL     1       2.573   7.424  18.528  0.00  0.00    +0.000 A 
ATOM      4  C   UNL     1       2.178   6.404  19.398  0.00  0.00    +0.000 A 
ATOM      5  C   UNL     1       2.882   5.201  19.450  0.00  0.00    +0.000 A 
ATOM      6  C   UNL     1       4.037   5.023  18.686  0.00  0.00    +0.000 A 
ATOM      7 CL   UNL     1       4.836   3.501  18.865  0.00  0.00    +0.000 Cl
ENDROOT
BRANCH   3   8
ATOM      8  C   UNL     1       1.787   8.697  18.425  0.00  0.00    +0.000 C 
ATOM      9  O   UNL     1       1.688   9.219  17.321  0.00  0.00    +0.000 OA
ATOM     10  N   UNL     1       1.205   9.226  19.567  0.00  0.00    +0.000 N 
ATOM     11  C   UNL     1       1.100   8.641  20.896  0.00  0.00    +0.000 C 
ATOM     12  C   UNL     1      -0.203   9.194  21.438  0.00  0.00    +0.000 C 
ATOM     13  C   UNL     1      -0.239  10.604  20.864  0.00  0.00    +0.000 C 
ATOM     14  C   UNL     1       0.484  10.490  19.520  0.00  0.00    +0.000 C 
ENDBRANCH   3   8
BRANCH   1  15
ATOM     15  S   UNL     1       5.930   5.862  16.857  0.00  0.00    +0.000 S 
ATOM     16  O   UNL     1       7.063   5.658  17.728  0.00  0.00    +0.000 OA
ATOM     17  O   UNL     1       5.928   6.944  15.893  0.00  0.00    +0.000 OA
BRANCH  15  18
ATOM     18  N   UNL     1       5.617   4.443  16.004  0.00  0.00    +0.000 N 
ATOM     19  H   UNL     1       4.742   3.995  16.275  0.00  0.00    +0.000 HD
BRANCH  18  25
ATOM     20  C   UNL     1       4.700   2.908  11.409  0.00  0.00    +0.000 C 
ATOM     21  C   UNL     1       5.599   3.598  12.391  0.00  0.00    +0.000 A 
ATOM     22  C   UNL     1       6.818   4.161  11.988  0.00  0.00    +0.000 A 
ATOM     23  C   UNL     1       7.640   4.799  12.914  0.00  0.00    +0.000 A 
ATOM     24  C   UNL     1       7.255   4.884  14.253  0.00  0.00    +0.000 A 
ATOM     25  C   UNL     1       6.043   4.325  14.660  0.00  0.00    +0.000 A 
ATOM     26  C   UNL     1       5.219   3.681  13.737  0.00  0.00    +0.000 A 
ENDBRANCH  18  25
ENDBRANCH  15  18
ENDBRANCH   1  15
TORSDOF 4
ENDMDL
MODEL 6
REMARK VINA RESULT:      -7.7      3.236      7.535
REMARK  Name = 
REMARK  5 active torsions:
REMARK  status: ('A' for Active; 'I' for Inactive)
REMARK    1  A    between atoms: C_1  and  C_2
REMARK    2  A    between atoms: C_6  and  N_7
REMARK    3  A    between atoms: N_7  and  S_8
REMARK    4  A    between atoms: S_8  and  C_11
REMARK    5  A    between atoms: C_13  and  C_14
REMARK                            x       y       z     vdW  Elec       q    Type
REMARK                         _______ _______ _______ _____ _____    ______ ____
ROOT
ATOM      1  C   UNL     1       5.419   5.643  17.241  0.00  0.00    +0.000 A 
ATOM      2  C   UNL     1       4.340   4.781  17.526  0.00  0.00    +0.000 A 
ATOM      3  C   UNL     1       3.121   5.310  17.976  0.00  0.00    +0.000 A 
ATOM      4  C   UNL     1       2.977   6.697  18.073  0.00  0.00    +0.000 A 
ATOM      5  C   UNL     1       4.057   7.543  17.825  0.00  0.00    +0.000 A 
ATOM      6  C   UNL     1       5.282   7.023  17.405  0.00  0.00    +0.000 A 
ATOM      7 CL   UNL     1       6.530   8.179  17.099  0.00  0.00    +0.000 Cl
ENDROOT
BRANCH   3   8
ATOM      8  C   UNL     1       1.980   4.392  18.298  0.00  0.00    +0.000 C 
ATOM      9  O   UNL     1       1.232   4.067  17.383  0.00  0.00    +0.000 OA
ATOM     10  N   UNL     1       1.819   3.945  19.601  0.00  0.00    +0.000 N 
ATOM     11  C   UNL     1       2.708   4.110  20.742  0.00  0.00    +0.000 C 
ATOM     12  C   UNL     1       2.484   2.859  21.567  0.00  0.00    +0.000 C 
ATOM     13  C   UNL     1       0.997   2.588  21.376  0.00  0.00    +0.000 C 
ATOM     14  C   UNL     1       0.691   3.099  19.966  0.00  0.00    +0.000 C 
ENDBRANCH   3   8
BRANCH   1  15
ATOM     15  S   UNL     1       6.970   4.942  16.731  0.00  0.00    +0.000 S 
ATOM     16  O   UNL     1       7.627   4.396  17.895  0.00  0.00    +0.000 OA
ATOM     17  O   UNL     1       7.634   5.935  15.910  0.00  0.00    +0.000 OA
BRANCH  15  18
ATOM     18  N   UNL     1       6.507   3.686  15.708  0.00  0.00    +0.000 N 
ATOM     19  H   UNL     1       5.786   3.087  16.106  0.00  0.00    +0.000 HD
BRANCH  18  25
ATOM     20  C   UNL     1       4.253   3.141  11.357  0.00  0.00    +0.000 C 
ATOM     21  C   UNL     1       5.412   3.646  12.163  0.00  0.00    +0.000 A 
ATOM     22  C   UNL     1       6.467   4.345  11.558  0.00  0.00    +0.000 A 
ATOM     23  C   UNL     1       7.535   4.808  12.324  0.00  0.00    +0.000 A 
ATOM     24  C   UNL     1       7.563   4.581  13.700  0.00  0.00    +0.000 A 
ATOM     25  C   UNL     1       6.516   3.885  14.307  0.00  0.00    +0.000 A 
ATOM     26  C   UNL     1       5.447   3.415  13.544  0.00  0.00    +0.000 A 
ENDBRANCH  18  25
ENDBRANCH  15  18
ENDBRANCH   1  15
TORSDOF 4
ENDMDL
MODEL 7
REMARK VINA RESULT:      -7.7      1.923      6.160
REMARK  Name = 
REMARK  5 active torsions:
REMARK  status: ('A' for Active; 'I' for Inactive)
REMARK    1  A    between atoms: C_1  and  C_2
REMARK    2  A    between atoms: C_6  and  N_7
REMARK    3  A    between atoms: N_7  and  S_8
REMARK    4  A    between atoms: S_8  and  C_11
REMARK    5  A    between atoms: C_13  and  C_14
REMARK                            x       y       z     vdW  Elec       q    Type
REMARK                         _______ _______ _______ _____ _____    ______ ____
ROOT
ATOM      1  C   UNL     1       3.200   4.158  19.805  0.00  0.00    +0.000 A 
ATOM      2  C   UNL     1       3.049   5.537  20.068  0.00  0.00    +0.000 A 
ATOM      3  C   UNL     1       1.778   6.059  20.356  0.00  0.00    +0.000 A 
ATOM      4  C   UNL     1       0.689   5.188  20.441  0.00  0.00    +0.000 A 
ATOM      5  C   UNL     1       0.836   3.833  20.145  0.00  0.00    +0.000 A 
ATOM      6  C   UNL     1       2.091   3.310  19.828  0.00  0.00    +0.000 A 
ATOM      7 CL   UNL     1       2.146   1.611  19.515  0.00  0.00    +0.000 Cl
ENDROOT
BRANCH   3   8
ATOM      8  C   UNL     1       1.615   7.526  20.616  0.00  0.00    +0.000 C 
ATOM      9  O   UNL     1       1.556   7.897  21.782  0.00  0.00    +0.000 OA
ATOM     10  N   UNL     1       1.544   8.399  19.541  0.00  0.00    +0.000 N 
ATOM     11  C   UNL     1       1.762   8.130  18.126  0.00  0.00    +0.000 C 
ATOM     12  C   UNL     1       2.332   9.427  17.589  0.00  0.00    +0.000 C 
ATOM     13  C   UNL     1       1.587  10.485  18.393  0.00  0.00    +0.000 C 
ATOM     14  C   UNL     1       1.328   9.824  19.749  0.00  0.00    +0.000 C 
ENDBRANCH   3   8
BRANCH   1  15
ATOM     15  S   UNL     1       4.808   3.534  19.383  0.00  0.00    +0.000 S 
ATOM     16  O   UNL     1       5.048   2.336  20.152  0.00  0.00    +0.000 OA
ATOM     17  O   UNL     1       5.728   4.651  19.456  0.00  0.00    +0.000 OA
BRANCH  15  18
ATOM     18  N   UNL     1       4.650   3.132  17.754  0.00  0.00    +0.000 N 
ATOM     19  H   UNL     1       3.863   2.513  17.567  0.00  0.00    +0.000 HD
BRANCH  18  25
ATOM     20  C   UNL     1       6.661   4.043  13.346  0.00  0.00    +0.000 C 
ATOM     21  C   UNL     1       5.980   4.536  14.588  0.00  0.00    +0.000 A 
ATOM     22  C   UNL     1       5.664   5.891  14.752  0.00  0.00    +0.000 A 
ATOM     23  C   UNL     1       5.029   6.331  15.913  0.00  0.00    +0.000 A 
ATOM     24  C   UNL     1       4.702   5.422  16.920  0.00  0.00    +0.000 A 
ATOM     25  C   UNL     1       5.016   4.072  16.762  0.00  0.00    +0.000 A 
ATOM     26  C   UNL     1       5.655   3.628  15.604  0.00  0.00    +0.000 A 
ENDBRANCH  18  25
ENDBRANCH  15  18
ENDBRANCH   1  15
TORSDOF 4
ENDMDL
MODEL 8
REMARK VINA RESULT:      -7.7      2.279      6.468
REMARK  Name = 
REMARK  5 active torsions:
REMARK  status: ('A' for Active; 'I' for Inactive)
REMARK    1  A    between atoms: C_1  and  C_2
REMARK    2  A    between atoms: C_6  and  N_7
REMARK    3  A    between atoms: N_7  and  S_8
REMARK    4  A    between atoms: S_8  and  C_11
REMARK    5  A    between atoms: C_13  and  C_14
REMARK                            x       y       z     vdW  Elec       q    Type
REMARK                         _______ _______ _______ _____ _____    ______ ____
ROOT
ATOM      1  C   UNL     1       2.321   4.575  18.942  0.00  0.00    +0.000 A 
ATOM      2  C   UNL     1       2.352   5.818  18.276  0.00  0.00    +0.000 A 
ATOM      3  C   UNL     1       2.159   7.005  18.999  0.00  0.00    +0.000 A 
ATOM      4  C   UNL     1       2.003   6.938  20.386  0.00  0.00    +0.000 A 
ATOM      5  C   UNL     1       1.937   5.706  21.035  0.00  0.00    +0.000 A 
ATOM      6  C   UNL     1       2.098   4.518  20.320  0.00  0.00    +0.000 A 
ATOM      7 CL   UNL     1       2.029   3.061  21.246  0.00  0.00    +0.000 Cl
ENDROOT
BRANCH   3   8
ATOM      8  C   UNL     1       2.173   8.324  18.287  0.00  0.00    +0.000 C 
ATOM      9  O   UNL     1       2.775   8.393  17.223  0.00  0.00    +0.000 OA
ATOM     10  N   UNL     1       1.506   9.402  18.849  0.00  0.00    +0.000 N 
ATOM     11  C   UNL     1       0.623   9.430  20.006  0.00  0.00    +0.000 C 
ATOM     12  C   UNL     1      -0.365  10.535  19.688  0.00  0.00    +0.000 C 
ATOM     13  C   UNL     1       0.492  11.554  18.948  0.00  0.00    +0.000 C 
ATOM     14  C   UNL     1       1.544  10.715  18.219  0.00  0.00    +0.000 C 
ENDBRANCH   3   8
BRANCH   1  15
ATOM     15  S   UNL     1       2.508   3.085  17.994  0.00  0.00    +0.000 S 
ATOM     16  O   UNL     1       2.193   3.379  16.617  0.00  0.00    +0.000 OA
ATOM     17  O   UNL     1       1.797   2.040  18.704  0.00  0.00    +0.000 OA
BRANCH  15  18
ATOM     18  N   UNL     1       4.152   2.743  18.132  0.00  0.00    +0.000 N 
ATOM     19  H   UNL     1       4.369   1.755  18.010  0.00  0.00    +0.000 HD
BRANCH  18  25
ATOM     20  C   UNL     1       6.585   4.894  14.422  0.00  0.00    +0.000 C 
ATOM     21  C   UNL     1       6.292   4.781  15.889  0.00  0.00    +0.000 A 
ATOM     22  C   UNL     1       6.907   5.631  16.819  0.00  0.00    +0.000 A 
ATOM     23  C   UNL     1       6.621   5.512  18.178  0.00  0.00    +0.000 A 
ATOM     24  C   UNL     1       5.718   4.546  18.623  0.00  0.00    +0.000 A 
ATOM     25  C   UNL     1       5.104   3.697  17.701  0.00  0.00    +0.000 A 
ATOM     26  C   UNL     1       5.391   3.809  16.341  0.00  0.00    +0.000 A 
ENDBRANCH  18  25
ENDBRANCH  15  18
ENDBRANCH   1  15
TORSDOF 4
ENDMDL
MODEL 9
REMARK VINA RESULT:      -7.7      2.413      7.439
REMARK  Name = 
REMARK  5 active torsions:
REMARK  status: ('A' for Active; 'I' for Inactive)
REMARK    1  A    between atoms: C_1  and  C_2
REMARK    2  A    between atoms: C_6  and  N_7
REMARK    3  A    between atoms: N_7  and  S_8
REMARK    4  A    between atoms: S_8  and  C_11
REMARK    5  A    between atoms: C_13  and  C_14
REMARK                            x       y       z     vdW  Elec       q    Type
REMARK                         _______ _______ _______ _____ _____    ______ ____
ROOT
ATOM      1  C   UNL     1       4.044   5.097  18.300  0.00  0.00    +0.000 A 
ATOM      2  C   UNL     1       3.561   6.381  17.968  0.00  0.00    +0.000 A 
ATOM      3  C   UNL     1       2.607   7.003  18.787  0.00  0.00    +0.000 A 
ATOM      4  C   UNL     1       2.196   6.363  19.959  0.00  0.00    +0.000 A 
ATOM      5  C   UNL     1       2.648   5.080  20.265  0.00  0.00    +0.000 A 
ATOM      6  C   UNL     1       3.575   4.441  19.440  0.00  0.00    +0.000 A 
ATOM      7 CL   UNL     1       4.081   2.868  19.947  0.00  0.00    +0.000 Cl
ENDROOT
BRANCH   3   8
ATOM      8  C   UNL     1       2.080   8.359  18.423  0.00  0.00    +0.000 C 
ATOM      9  O   UNL     1       2.223   8.736  17.266  0.00  0.00    +0.000 OA
ATOM     10  N   UNL     1       1.454   9.124  19.395  0.00  0.00    +0.000 N 
ATOM     11  C   UNL     1       1.070   8.749  20.749  0.00  0.00    +0.000 C 
ATOM     12  C   UNL     1      -0.175   9.570  21.018  0.00  0.00    +0.000 C 
ATOM     13  C   UNL     1       0.116  10.877  20.293  0.00  0.00    +0.000 C 
ATOM     14  C   UNL     1       0.980  10.469  19.097  0.00  0.00    +0.000 C 
ENDBRANCH   3   8
BRANCH   1  15
ATOM     15  S   UNL     1       5.206   4.307  17.214  0.00  0.00    +0.000 S 
ATOM     16  O   UNL     1       4.694   3.001  16.872  0.00  0.00    +0.000 OA
ATOM     17  O   UNL     1       6.515   4.448  17.819  0.00  0.00    +0.000 OA
BRANCH  15  18
ATOM     18  N   UNL     1       5.187   5.292  15.846  0.00  0.00    +0.000 N 
ATOM     19  H   UNL     1       5.190   6.286  16.067  0.00  0.00    +0.000 HD
BRANCH  18  25
ATOM     20  C   UNL     1       5.018   2.760  11.619  0.00  0.00    +0.000 C 
ATOM     21  C   UNL     1       5.766   3.642  12.574  0.00  0.00    +0.000 A 
ATOM     22  C   UNL     1       7.067   4.080  12.290  0.00  0.00    +0.000 A 
ATOM     23  C   UNL     1       7.746   4.901  13.188  0.00  0.00    +0.000 A 
ATOM     24  C   UNL     1       7.133   5.296  14.378  0.00  0.00    +0.000 A 
ATOM     25  C   UNL     1       5.839   4.863  14.666  0.00  0.00    +0.000 A 
ATOM     26  C   UNL     1       5.157   4.037  13.772  0.00  0.00    +0.000 A 
ENDBRANCH  18  25
ENDBRANCH  15  18
ENDBRANCH   1  15
TORSDOF 4
ENDMDL
