MODEL 1
REMARK VINA RESULT:      -7.6      0.000      0.000
REMARK  Name = 
REMARK  9 active torsions:
REMARK  status: ('A' for Active; 'I' for Inactive)
REMARK    1  A    between atoms: C_1  and  C_2
REMARK    2  A    between atoms: C_2  and  O_3
REMARK    3  A    between atoms: O_3  and  C_4
REMARK    4  A    between atoms: C_6  and  C_7
REMARK    5  A    between atoms: C_9  and  C_10
REMARK    6  A    between atoms: C_12  and  C_13
REMARK    7  A    between atoms: C_15  and  C_16
REMARK    8  A    between atoms: C_21  and  C_22
REMARK    9  A    between atoms: C_28  and  C_29
REMARK                            x       y       z     vdW  Elec       q    Type
REMARK                         _______ _______ _______ _____ _____    ______ ____
ROOT
ATOM      1  C   UNL     1       4.130   5.457  17.009  0.00  0.00    +0.000 A 
ATOM      2  N   UNL     1       3.787   6.664  17.431  0.00  0.00    +0.000 NA
ATOM      3  C   UNL     1       2.795   6.496  18.364  0.00  0.00    +0.000 A 
ATOM      4  C   UNL     1       2.481   5.155  18.502  0.00  0.00    +0.000 A 
ATOM      5  N   UNL     1       3.413   4.505  17.709  0.00  0.00    +0.000 N 
ATOM      6  C   UNL     1       3.647   3.071  17.668  0.00  0.00    +0.000 C 
ATOM      7  C   UNL     1       3.474   2.321  18.992  0.00  0.00    +0.000 C 
ATOM      8  C   UNL     1       4.328   2.893  20.123  0.00  0.00    +0.000 C 
ATOM      9  O   UNL     1       2.126   2.116  19.423  0.00  0.00    +0.000 OA
ATOM     10  C   UNL     1       1.140   3.028  18.941  0.00  0.00    +0.000 C 
ATOM     11  C   UNL     1       1.433   4.470  19.323  0.00  0.00    +0.000 C 
ENDROOT
BRANCH   3  12
ATOM     12  C   UNL     1       2.162   7.618  19.054  0.00  0.00    +0.000 A 
ATOM     13  C   UNL     1       1.824   8.770  18.345  0.00  0.00    +0.000 A 
ATOM     14  C   UNL     1       1.166   9.802  19.006  0.00  0.00    +0.000 A 
ATOM     15  C   UNL     1       0.771  11.054  18.285  0.00  0.00    +0.000 C 
ATOM     16  N   UNL     1       0.823   9.733  20.317  0.00  0.00    +0.000 NA
ATOM     17  C   UNL     1       1.177   8.628  21.004  0.00  0.00    +0.000 A 
ATOM     18  C   UNL     1       0.763   8.536  22.441  0.00  0.00    +0.000 C 
ATOM     19  C   UNL     1       1.868   7.576  20.420  0.00  0.00    +0.000 A 
ENDBRANCH   3  12
BRANCH   1  22
ATOM     20  C   UNL     1       5.832   4.162  13.894  0.00  0.00    +0.000 A 
ATOM     21  C   UNL     1       4.896   4.387  14.917  0.00  0.00    +0.000 A 
ATOM     22  C   UNL     1       5.193   5.187  16.026  0.00  0.00    +0.000 A 
ATOM     23  C   UNL     1       6.485   5.708  16.140  0.00  0.00    +0.000 A 
ATOM     24  C   UNL     1       7.420   5.516  15.121  0.00  0.00    +0.000 A 
ATOM     25  C   UNL     1       7.102   4.758  13.983  0.00  0.00    +0.000 A 
ATOM     26  C   UNL     1       8.158   4.572  12.930  0.00  0.00    +0.000 C 
BRANCH  20  27
ATOM     27  O   UNL     1       5.572   3.388  12.782  0.00  0.00    +0.000 OA
BRANCH  27  29
ATOM     28  C   UNL     1       3.906   2.907  11.084  0.00  0.00    +0.000 C 
ATOM     29  C   UNL     1       4.688   3.978  11.819  0.00  0.00    +0.000 C 
ENDBRANCH  27  29
ENDBRANCH  20  27
ENDBRANCH   1  22
TORSDOF 4
ENDMDL
MODEL 2
REMARK VINA RESULT:      -7.5      0.099      1.548
REMARK  Name = 
REMARK  9 active torsions:
REMARK  status: ('A' for Active; 'I' for Inactive)
REMARK    1  A    between atoms: C_1  and  C_2
REMARK    2  A    between atoms: C_2  and  O_3
REMARK    3  A    between atoms: O_3  and  C_4
REMARK    4  A    between atoms: C_6  and  C_7
REMARK    5  A    between atoms: C_9  and  C_10
REMARK    6  A    between atoms: C_12  and  C_13
REMARK    7  A    between atoms: C_15  and  C_16
REMARK    8  A    between atoms: C_21  and  C_22
REMARK    9  A    between atoms: C_28  and  C_29
REMARK                            x       y       z     vdW  Elec       q    Type
REMARK                         _______ _______ _______ _____ _____    ______ ____
ROOT
ATOM      1  C   UNL     1       4.124   5.451  16.986  0.00  0.00    +0.000 A 
ATOM      2  N   UNL     1       3.757   6.655  17.397  0.00  0.00    +0.000 NA
ATOM      3  C   UNL     1       2.754   6.476  18.317  0.00  0.00    +0.000 A 
ATOM      4  C   UNL     1       2.459   5.131  18.457  0.00  0.00    +0.000 A 
ATOM      5  N   UNL     1       3.412   4.491  17.681  0.00  0.00    +0.000 N 
ATOM      6  C   UNL     1       3.668   3.061  17.650  0.00  0.00    +0.000 C 
ATOM      7  C   UNL     1       3.487   2.315  18.975  0.00  0.00    +0.000 C 
ATOM      8  C   UNL     1       4.316   2.905  20.116  0.00  0.00    +0.000 C 
ATOM      9  O   UNL     1       2.137   2.092  19.388  0.00  0.00    +0.000 OA
ATOM     10  C   UNL     1       1.144   2.986  18.888  0.00  0.00    +0.000 C 
ATOM     11  C   UNL     1       1.410   4.434  19.266  0.00  0.00    +0.000 C 
ENDROOT
BRANCH   3  12
ATOM     12  C   UNL     1       2.095   7.592  18.992  0.00  0.00    +0.000 A 
ATOM     13  C   UNL     1       1.898   7.553  20.372  0.00  0.00    +0.000 A 
ATOM     14  C   UNL     1       1.326   8.652  21.004  0.00  0.00    +0.000 A 
ATOM     15  C   UNL     1       1.104   8.663  22.485  0.00  0.00    +0.000 C 
ATOM     16  N   UNL     1       0.960   9.775  20.336  0.00  0.00    +0.000 NA
ATOM     17  C   UNL     1       1.127   9.796  18.998  0.00  0.00    +0.000 A 
ATOM     18  C   UNL     1       0.760  11.051  18.267  0.00  0.00    +0.000 C 
ATOM     19  C   UNL     1       1.656   8.722  18.296  0.00  0.00    +0.000 A 
ENDBRANCH   3  12
BRANCH   1  22
ATOM     20  C   UNL     1       5.882   4.196  13.887  0.00  0.00    +0.000 A 
ATOM     21  C   UNL     1       4.928   4.408  14.894  0.00  0.00    +0.000 A 
ATOM     22  C   UNL     1       5.206   5.193  16.020  0.00  0.00    +0.000 A 
ATOM     23  C   UNL     1       6.496   5.709  16.165  0.00  0.00    +0.000 A 
ATOM     24  C   UNL     1       7.450   5.529  15.162  0.00  0.00    +0.000 A 
ATOM     25  C   UNL     1       7.152   4.788  14.008  0.00  0.00    +0.000 A 
ATOM     26  C   UNL     1       8.227   4.613  12.973  0.00  0.00    +0.000 C 
BRANCH  20  27
ATOM     27  O   UNL     1       5.642   3.438  12.760  0.00  0.00    +0.000 OA
BRANCH  27  29
ATOM     28  C   UNL     1       3.950   2.900  11.105  0.00  0.00    +0.000 C 
ATOM     29  C   UNL     1       4.698   3.997  11.836  0.00  0.00    +0.000 C 
ENDBRANCH  27  29
ENDBRANCH  20  27
ENDBRANCH   1  22
TORSDOF 4
ENDMDL
MODEL 3
REMARK VINA RESULT:      -7.4      3.915      7.439
REMARK  Name = 
REMARK  9 active torsions:
REMARK  status: ('A' for Active; 'I' for Inactive)
REMARK    1  A    between atoms: C_1  and  C_2
REMARK    2  A    between atoms: C_2  and  O_3
REMARK    3  A    between atoms: O_3  and  C_4
REMARK    4  A    between atoms: C_6  and  C_7
REMARK    5  A    between atoms: C_9  and  C_10
REMARK    6  A    between atoms: C_12  and  C_13
REMARK    7  A    between atoms: C_15  and  C_16
REMARK    8  A    between atoms: C_21  and  C_22
REMARK    9  A    between atoms: C_28  and  C_29
REMARK                            x       y       z     vdW  Elec       q    Type
REMARK                         _______ _______ _______ _____ _____    ______ ____
ROOT
ATOM      1  C   UNL     1       0.701   9.261  18.718  0.00  0.00    +0.000 A 
ATOM      2  N   UNL     1      -0.290   9.302  17.840  0.00  0.00    +0.000 NA
ATOM      3  C   UNL     1      -1.107  10.342  18.206  0.00  0.00    +0.000 A 
ATOM      4  C   UNL     1      -0.640  10.943  19.362  0.00  0.00    +0.000 A 
ATOM      5  N   UNL     1       0.567  10.308  19.611  0.00  0.00    +0.000 N 
ATOM      6  C   UNL     1       1.556  10.711  20.596  0.00  0.00    +0.000 C 
ATOM      7  C   UNL     1       1.701  12.218  20.829  0.00  0.00    +0.000 C 
ATOM      8  C   UNL     1       1.985  13.000  19.547  0.00  0.00    +0.000 C 
ATOM      9  O   UNL     1       0.657  12.837  21.584  0.00  0.00    +0.000 OA
ATOM     10  C   UNL     1      -0.618  12.196  21.586  0.00  0.00    +0.000 C 
ATOM     11  C   UNL     1      -1.207  12.052  20.192  0.00  0.00    +0.000 C 
ENDROOT
BRANCH   3  12
ATOM     12  C   UNL     1      -2.317  10.693  17.465  0.00  0.00    +0.000 A 
ATOM     13  C   UNL     1      -2.462  10.290  16.138  0.00  0.00    +0.000 A 
ATOM     14  C   UNL     1      -3.647  10.579  15.469  0.00  0.00    +0.000 A 
ATOM     15  C   UNL     1      -3.854  10.156  14.047  0.00  0.00    +0.000 C 
ATOM     16  N   UNL     1      -4.682  11.229  16.058  0.00  0.00    +0.000 NA
ATOM     17  C   UNL     1      -4.525  11.642  17.332  0.00  0.00    +0.000 A 
ATOM     18  C   UNL     1      -5.683  12.324  17.994  0.00  0.00    +0.000 C 
ATOM     19  C   UNL     1      -3.357  11.422  18.049  0.00  0.00    +0.000 A 
ENDBRANCH   3  12
BRANCH   1  22
ATOM     20  C   UNL     1       2.869   6.288  19.571  0.00  0.00    +0.000 A 
ATOM     21  C   UNL     1       1.880   7.283  19.614  0.00  0.00    +0.000 A 
ATOM     22  C   UNL     1       1.824   8.310  18.665  0.00  0.00    +0.000 A 
ATOM     23  C   UNL     1       2.832   8.374  17.699  0.00  0.00    +0.000 A 
ATOM     24  C   UNL     1       3.809   7.379  17.625  0.00  0.00    +0.000 A 
ATOM     25  C   UNL     1       3.830   6.320  18.545  0.00  0.00    +0.000 A 
ATOM     26  C   UNL     1       4.919   5.291  18.424  0.00  0.00    +0.000 C 
BRANCH  20  27
ATOM     27  O   UNL     1       2.951   5.255  20.482  0.00  0.00    +0.000 OA
BRANCH  27  29
ATOM     28  C   UNL     1       1.981   3.330  21.598  0.00  0.00    +0.000 C 
ATOM     29  C   UNL     1       1.753   4.480  20.636  0.00  0.00    +0.000 C 
ENDBRANCH  27  29
ENDBRANCH  20  27
ENDBRANCH   1  22
TORSDOF 4
ENDMDL
MODEL 4
REMARK VINA RESULT:      -7.3      2.440      7.940
REMARK  Name = 
REMARK  9 active torsions:
REMARK  status: ('A' for Active; 'I' for Inactive)
REMARK    1  A    between atoms: C_1  and  C_2
REMARK    2  A    between atoms: C_2  and  O_3
REMARK    3  A    between atoms: O_3  and  C_4
REMARK    4  A    between atoms: C_6  and  C_7
REMARK    5  A    between atoms: C_9  and  C_10
REMARK    6  A    between atoms: C_12  and  C_13
REMARK    7  A    between atoms: C_15  and  C_16
REMARK    8  A    between atoms: C_21  and  C_22
REMARK    9  A    between atoms: C_28  and  C_29
REMARK                            x       y       z     vdW  Elec       q    Type
REMARK                         _______ _______ _______ _____ _____    ______ ____
ROOT
ATOM      1  C   UNL     1       2.578   6.924  19.094  0.00  0.00    +0.000 A 
ATOM      2  N   UNL     1       3.642   6.896  18.306  0.00  0.00    +0.000 NA
ATOM      3  C   UNL     1       4.183   5.639  18.410  0.00  0.00    +0.000 A 
ATOM      4  C   UNL     1       3.465   4.874  19.312  0.00  0.00    +0.000 A 
ATOM      5  N   UNL     1       2.389   5.675  19.656  0.00  0.00    +0.000 N 
ATOM      6  C   UNL     1       1.224   5.259  20.419  0.00  0.00    +0.000 C 
ATOM      7  C   UNL     1       0.753   3.818  20.200  0.00  0.00    +0.000 C 
ATOM      8  C   UNL     1       0.481   3.491  18.732  0.00  0.00    +0.000 C 
ATOM      9  O   UNL     1       1.551   2.800  20.810  0.00  0.00    +0.000 OA
ATOM     10  C   UNL     1       2.917   3.112  21.077  0.00  0.00    +0.000 C 
ATOM     11  C   UNL     1       3.693   3.485  19.823  0.00  0.00    +0.000 C 
ENDROOT
BRANCH   3  12
ATOM     12  C   UNL     1       5.381   5.233  17.677  0.00  0.00    +0.000 A 
ATOM     13  C   UNL     1       6.568   4.984  18.365  0.00  0.00    +0.000 A 
ATOM     14  C   UNL     1       7.679   4.538  17.656  0.00  0.00    +0.000 A 
ATOM     15  C   UNL     1       8.972   4.245  18.352  0.00  0.00    +0.000 C 
ATOM     16  N   UNL     1       7.657   4.321  16.317  0.00  0.00    +0.000 NA
ATOM     17  C   UNL     1       6.515   4.592  15.653  0.00  0.00    +0.000 A 
ATOM     18  C   UNL     1       6.480   4.314  14.181  0.00  0.00    +0.000 C 
ATOM     19  C   UNL     1       5.380   5.075  16.288  0.00  0.00    +0.000 A 
ENDBRANCH   3  12
BRANCH   1  22
ATOM     20  C   UNL     1       0.775   9.821  20.716  0.00  0.00    +0.000 A 
ATOM     21  C   UNL     1       1.538   8.660  20.513  0.00  0.00    +0.000 A 
ATOM     22  C   UNL     1       1.682   8.083  19.246  0.00  0.00    +0.000 A 
ATOM     23  C   UNL     1       0.980   8.648  18.178  0.00  0.00    +0.000 A 
ATOM     24  C   UNL     1       0.237   9.816  18.355  0.00  0.00    +0.000 A 
ATOM     25  C   UNL     1       0.138  10.424  19.616  0.00  0.00    +0.000 A 
ATOM     26  C   UNL     1      -0.693  11.669  19.747  0.00  0.00    +0.000 C 
BRANCH  20  27
ATOM     27  O   UNL     1       0.618  10.423  21.946  0.00  0.00    +0.000 OA
BRANCH  27  29
ATOM     28  C   UNL     1      -1.399  10.870  23.222  0.00  0.00    +0.000 C 
ATOM     29  C   UNL     1      -0.378   9.833  22.794  0.00  0.00    +0.000 C 
ENDBRANCH  27  29
ENDBRANCH  20  27
ENDBRANCH   1  22
TORSDOF 4
ENDMDL
MODEL 5
REMARK VINA RESULT:      -7.3      2.505      7.519
REMARK  Name = 
REMARK  9 active torsions:
REMARK  status: ('A' for Active; 'I' for Inactive)
REMARK    1  A    between atoms: C_1  and  C_2
REMARK    2  A    between atoms: C_2  and  O_3
REMARK    3  A    between atoms: O_3  and  C_4
REMARK    4  A    between atoms: C_6  and  C_7
REMARK    5  A    between atoms: C_9  and  C_10
REMARK    6  A    between atoms: C_12  and  C_13
REMARK    7  A    between atoms: C_15  and  C_16
REMARK    8  A    between atoms: C_21  and  C_22
REMARK    9  A    between atoms: C_28  and  C_29
REMARK                            x       y       z     vdW  Elec       q    Type
REMARK                         _______ _______ _______ _____ _____    ______ ____
ROOT
ATOM      1  C   UNL     1       2.574   6.702  19.644  0.00  0.00    +0.000 A 
ATOM      2  N   UNL     1       3.585   6.766  18.792  0.00  0.00    +0.000 NA
ATOM      3  C   UNL     1       4.099   5.497  18.685  0.00  0.00    +0.000 A 
ATOM      4  C   UNL     1       3.419   4.626  19.518  0.00  0.00    +0.000 A 
ATOM      5  N   UNL     1       2.387   5.390  20.039  0.00  0.00    +0.000 N 
ATOM      6  C   UNL     1       1.262   4.892  20.812  0.00  0.00    +0.000 C 
ATOM      7  C   UNL     1       0.740   3.504  20.427  0.00  0.00    +0.000 C 
ATOM      8  C   UNL     1       0.368   3.390  18.949  0.00  0.00    +0.000 C 
ATOM      9  O   UNL     1       1.548   2.398  20.838  0.00  0.00    +0.000 OA
ATOM     10  C   UNL     1       2.936   2.646  21.055  0.00  0.00    +0.000 C 
ATOM     11  C   UNL     1       3.641   3.176  19.817  0.00  0.00    +0.000 C 
ENDROOT
BRANCH   3  12
ATOM     12  C   UNL     1       5.238   5.178  17.826  0.00  0.00    +0.000 A 
ATOM     13  C   UNL     1       6.491   4.942  18.390  0.00  0.00    +0.000 A 
ATOM     14  C   UNL     1       7.547   4.577  17.562  0.00  0.00    +0.000 A 
ATOM     15  C   UNL     1       8.908   4.302  18.121  0.00  0.00    +0.000 C 
ATOM     16  N   UNL     1       7.409   4.427  16.221  0.00  0.00    +0.000 NA
ATOM     17  C   UNL     1       6.202   4.684  15.677  0.00  0.00    +0.000 A 
ATOM     18  C   UNL     1       6.041   4.479  14.202  0.00  0.00    +0.000 C 
ATOM     19  C   UNL     1       5.113   5.089  16.437  0.00  0.00    +0.000 A 
ENDBRANCH   3  12
BRANCH   1  22
ATOM     20  C   UNL     1       0.345   9.729  19.264  0.00  0.00    +0.000 A 
ATOM     21  C   UNL     1       1.236   8.678  18.997  0.00  0.00    +0.000 A 
ATOM     22  C   UNL     1       1.720   7.844  20.013  0.00  0.00    +0.000 A 
ATOM     23  C   UNL     1       1.354   8.127  21.331  0.00  0.00    +0.000 A 
ATOM     24  C   UNL     1       0.448   9.152  21.613  0.00  0.00    +0.000 A 
ATOM     25  C   UNL     1      -0.077   9.952  20.587  0.00  0.00    +0.000 A 
ATOM     26  C   UNL     1      -1.032  11.052  20.956  0.00  0.00    +0.000 C 
BRANCH  20  27
ATOM     27  O   UNL     1      -0.159  10.564  18.289  0.00  0.00    +0.000 OA
BRANCH  27  29
ATOM     28  C   UNL     1      -2.297  11.103  17.273  0.00  0.00    +0.000 C 
ATOM     29  C   UNL     1      -1.257  10.031  17.535  0.00  0.00    +0.000 C 
ENDBRANCH  27  29
ENDBRANCH  20  27
ENDBRANCH   1  22
TORSDOF 4
ENDMDL
MODEL 6
REMARK VINA RESULT:      -7.3      2.451      7.799
REMARK  Name = 
REMARK  9 active torsions:
REMARK  status: ('A' for Active; 'I' for Inactive)
REMARK    1  A    between atoms: C_1  and  C_2
REMARK    2  A    between atoms: C_2  and  O_3
REMARK    3  A    between atoms: O_3  and  C_4
REMARK    4  A    between atoms: C_6  and  C_7
REMARK    5  A    between atoms: C_9  and  C_10
REMARK    6  A    between atoms: C_12  and  C_13
REMARK    7  A    between atoms: C_15  and  C_16
REMARK    8  A    between atoms: C_21  and  C_22
REMARK    9  A    between atoms: C_28  and  C_29
REMARK                            x       y       z     vdW  Elec       q    Type
REMARK                         _______ _______ _______ _____ _____    ______ ____
ROOT
ATOM      1  C   UNL     1       2.598   6.817  19.114  0.00  0.00    +0.000 A 
ATOM      2  N   UNL     1       3.664   6.759  18.331  0.00  0.00    +0.000 NA
ATOM      3  C   UNL     1       4.179   5.492  18.448  0.00  0.00    +0.000 A 
ATOM      4  C   UNL     1       3.442   4.751  19.354  0.00  0.00    +0.000 A 
ATOM      5  N   UNL     1       2.380   5.577  19.686  0.00  0.00    +0.000 N 
ATOM      6  C   UNL     1       1.204   5.192  20.448  0.00  0.00    +0.000 C 
ATOM      7  C   UNL     1       0.704   3.759  20.240  0.00  0.00    +0.000 C 
ATOM      8  C   UNL     1       0.432   3.425  18.774  0.00  0.00    +0.000 C 
ATOM      9  O   UNL     1       1.478   2.731  20.863  0.00  0.00    +0.000 OA
ATOM     10  C   UNL     1       2.850   3.017  21.133  0.00  0.00    +0.000 C 
ATOM     11  C   UNL     1       3.638   3.362  19.879  0.00  0.00    +0.000 C 
ENDROOT
BRANCH   3  12
ATOM     12  C   UNL     1       5.371   5.056  17.724  0.00  0.00    +0.000 A 
ATOM     13  C   UNL     1       5.334   4.921  16.337  0.00  0.00    +0.000 A 
ATOM     14  C   UNL     1       6.496   4.566  15.661  0.00  0.00    +0.000 A 
ATOM     15  C   UNL     1       6.508   4.420  14.170  0.00  0.00    +0.000 C 
ATOM     16  N   UNL     1       7.678   4.355  16.292  0.00  0.00    +0.000 NA
ATOM     17  C   UNL     1       7.702   4.459  17.637  0.00  0.00    +0.000 A 
ATOM     18  C   UNL     1       9.016   4.266  18.330  0.00  0.00    +0.000 C 
ATOM     19  C   UNL     1       6.573   4.773  18.381  0.00  0.00    +0.000 A 
ENDBRANCH   3  12
BRANCH   1  22
ATOM     20  C   UNL     1       0.822   9.745  20.709  0.00  0.00    +0.000 A 
ATOM     21  C   UNL     1       1.563   8.568  20.518  0.00  0.00    +0.000 A 
ATOM     22  C   UNL     1       1.726   7.996  19.251  0.00  0.00    +0.000 A 
ATOM     23  C   UNL     1       1.063   8.583  18.170  0.00  0.00    +0.000 A 
ATOM     24  C   UNL     1       0.343   9.767  18.336  0.00  0.00    +0.000 A 
ATOM     25  C   UNL     1       0.227  10.369  19.599  0.00  0.00    +0.000 A 
ATOM     26  C   UNL     1      -0.578  11.633  19.717  0.00  0.00    +0.000 C 
BRANCH  20  27
ATOM     27  O   UNL     1       0.648  10.343  21.940  0.00  0.00    +0.000 OA
BRANCH  27  29
ATOM     28  C   UNL     1      -1.361  10.812  23.218  0.00  0.00    +0.000 C 
ATOM     29  C   UNL     1      -0.369   9.759  22.766  0.00  0.00    +0.000 C 
ENDBRANCH  27  29
ENDBRANCH  20  27
ENDBRANCH   1  22
TORSDOF 4
ENDMDL
MODEL 7
REMARK VINA RESULT:      -7.3      2.486      7.611
REMARK  Name = 
REMARK  9 active torsions:
REMARK  status: ('A' for Active; 'I' for Inactive)
REMARK    1  A    between atoms: C_1  and  C_2
REMARK    2  A    between atoms: C_2  and  O_3
REMARK    3  A    between atoms: O_3  and  C_4
REMARK    4  A    between atoms: C_6  and  C_7
REMARK    5  A    between atoms: C_9  and  C_10
REMARK    6  A    between atoms: C_12  and  C_13
REMARK    7  A    between atoms: C_15  and  C_16
REMARK    8  A    between atoms: C_21  and  C_22
REMARK    9  A    between atoms: C_28  and  C_29
REMARK                            x       y       z     vdW  Elec       q    Type
REMARK                         _______ _______ _______ _____ _____    ______ ____
ROOT
ATOM      1  C   UNL     1       2.569   6.644  19.664  0.00  0.00    +0.000 A 
ATOM      2  N   UNL     1       3.583   6.716  18.816  0.00  0.00    +0.000 NA
ATOM      3  C   UNL     1       4.112   5.453  18.717  0.00  0.00    +0.000 A 
ATOM      4  C   UNL     1       3.439   4.578  19.551  0.00  0.00    +0.000 A 
ATOM      5  N   UNL     1       2.396   5.332  20.064  0.00  0.00    +0.000 N 
ATOM      6  C   UNL     1       1.273   4.825  20.834  0.00  0.00    +0.000 C 
ATOM      7  C   UNL     1       0.770   3.429  20.454  0.00  0.00    +0.000 C 
ATOM      8  C   UNL     1       0.406   3.304  18.975  0.00  0.00    +0.000 C 
ATOM      9  O   UNL     1       1.588   2.334  20.873  0.00  0.00    +0.000 OA
ATOM     10  C   UNL     1       2.972   2.599  21.095  0.00  0.00    +0.000 C 
ATOM     11  C   UNL     1       3.676   3.132  19.858  0.00  0.00    +0.000 C 
ENDROOT
BRANCH   3  12
ATOM     12  C   UNL     1       5.259   5.143  17.865  0.00  0.00    +0.000 A 
ATOM     13  C   UNL     1       6.509   4.910  18.436  0.00  0.00    +0.000 A 
ATOM     14  C   UNL     1       7.572   4.555  17.614  0.00  0.00    +0.000 A 
ATOM     15  C   UNL     1       8.932   4.283  18.182  0.00  0.00    +0.000 C 
ATOM     16  N   UNL     1       7.445   4.410  16.271  0.00  0.00    +0.000 NA
ATOM     17  C   UNL     1       6.241   4.664  15.720  0.00  0.00    +0.000 A 
ATOM     18  C   UNL     1       6.091   4.465  14.243  0.00  0.00    +0.000 C 
ATOM     19  C   UNL     1       5.145   5.059  16.474  0.00  0.00    +0.000 A 
ENDBRANCH   3  12
BRANCH   1  22
ATOM     20  C   UNL     1       0.744   9.940  19.379  0.00  0.00    +0.000 A 
ATOM     21  C   UNL     1       1.619   8.867  19.148  0.00  0.00    +0.000 A 
ATOM     22  C   UNL     1       1.700   7.778  20.023  0.00  0.00    +0.000 A 
ATOM     23  C   UNL     1       0.937   7.812  21.193  0.00  0.00    +0.000 A 
ATOM     24  C   UNL     1       0.042   8.858  21.427  0.00  0.00    +0.000 A 
ATOM     25  C   UNL     1      -0.077   9.922  20.521  0.00  0.00    +0.000 A 
ATOM     26  C   UNL     1      -1.043  11.028  20.839  0.00  0.00    +0.000 C 
BRANCH  20  27
ATOM     27  O   UNL     1       0.630  11.025  18.535  0.00  0.00    +0.000 OA
BRANCH  27  29
ATOM     28  C   UNL     1       1.890  12.887  19.450  0.00  0.00    +0.000 C 
ATOM     29  C   UNL     1       1.821  11.811  18.384  0.00  0.00    +0.000 C 
ENDBRANCH  27  29
ENDBRANCH  20  27
ENDBRANCH   1  22
TORSDOF 4
ENDMDL
MODEL 8
REMARK VINA RESULT:      -7.3      4.667      8.590
REMARK  Name = 
REMARK  9 active torsions:
REMARK  status: ('A' for Active; 'I' for Inactive)
REMARK    1  A    between atoms: C_1  and  C_2
REMARK    2  A    between atoms: C_2  and  O_3
REMARK    3  A    between atoms: O_3  and  C_4
REMARK    4  A    between atoms: C_6  and  C_7
REMARK    5  A    between atoms: C_9  and  C_10
REMARK    6  A    between atoms: C_12  and  C_13
REMARK    7  A    between atoms: C_15  and  C_16
REMARK    8  A    between atoms: C_21  and  C_22
REMARK    9  A    between atoms: C_28  and  C_29
REMARK                            x       y       z     vdW  Elec       q    Type
REMARK                         _______ _______ _______ _____ _____    ______ ____
ROOT
ATOM      1  C   UNL     1       0.422  10.859  20.268  0.00  0.00    +0.000 A 
ATOM      2  N   UNL     1      -0.851  10.794  20.625  0.00  0.00    +0.000 NA
ATOM      3  C   UNL     1      -1.185  12.020  21.145  0.00  0.00    +0.000 A 
ATOM      4  C   UNL     1      -0.086  12.861  21.149  0.00  0.00    +0.000 A 
ATOM      5  N   UNL     1       0.897  12.138  20.492  0.00  0.00    +0.000 N 
ATOM      6  C   UNL     1       2.183  12.652  20.050  0.00  0.00    +0.000 C 
ATOM      7  C   UNL     1       2.202  14.109  19.577  0.00  0.00    +0.000 C 
ATOM      8  C   UNL     1       1.188  14.393  18.468  0.00  0.00    +0.000 C 
ATOM      9  O   UNL     1       2.127  15.100  20.604  0.00  0.00    +0.000 OA
ATOM     10  C   UNL     1       1.523  14.719  21.839  0.00  0.00    +0.000 C 
ATOM     11  C   UNL     1       0.086  14.253  21.673  0.00  0.00    +0.000 C 
ENDROOT
BRANCH   3  12
ATOM     12  C   UNL     1      -2.522  12.325  21.649  0.00  0.00    +0.000 A 
ATOM     13  C   UNL     1      -3.550  12.631  20.759  0.00  0.00    +0.000 A 
ATOM     14  C   UNL     1      -4.830  12.856  21.255  0.00  0.00    +0.000 A 
ATOM     15  C   UNL     1      -5.969  13.176  20.336  0.00  0.00    +0.000 C 
ATOM     16  N   UNL     1      -5.129  12.777  22.575  0.00  0.00    +0.000 NA
ATOM     17  C   UNL     1      -4.126  12.509  23.435  0.00  0.00    +0.000 A 
ATOM     18  C   UNL     1      -4.465  12.383  24.889  0.00  0.00    +0.000 C 
ATOM     19  C   UNL     1      -2.818  12.311  23.016  0.00  0.00    +0.000 A 
ENDBRANCH   3  12
BRANCH   1  22
ATOM     20  C   UNL     1       2.085   7.498  19.814  0.00  0.00    +0.000 A 
ATOM     21  C   UNL     1       1.460   8.619  20.382  0.00  0.00    +0.000 A 
ATOM     22  C   UNL     1       1.167   9.762  19.628  0.00  0.00    +0.000 A 
ATOM     23  C   UNL     1       1.583   9.799  18.295  0.00  0.00    +0.000 A 
ATOM     24  C   UNL     1       2.182   8.684  17.706  0.00  0.00    +0.000 A 
ATOM     25  C   UNL     1       2.426   7.519  18.450  0.00  0.00    +0.000 A 
ATOM     26  C   UNL     1       3.093   6.360  17.764  0.00  0.00    +0.000 C 
BRANCH  20  27
ATOM     27  O   UNL     1       2.381   6.351  20.522  0.00  0.00    +0.000 OA
BRANCH  27  29
ATOM     28  C   UNL     1       1.816   4.005  20.781  0.00  0.00    +0.000 C 
ATOM     29  C   UNL     1       1.296   5.424  20.665  0.00  0.00    +0.000 C 
ENDBRANCH  27  29
ENDBRANCH  20  27
ENDBRANCH   1  22
TORSDOF 4
ENDMDL
MODEL 9
REMARK VINA RESULT:      -7.3      3.883      7.391
REMARK  Name = 
REMARK  9 active torsions:
REMARK  status: ('A' for Active; 'I' for Inactive)
REMARK    1  A    between atoms: C_1  and  C_2
REMARK    2  A    between atoms: C_2  and  O_3
REMARK    3  A    between atoms: O_3  and  C_4
REMARK    4  A    between atoms: C_6  and  C_7
REMARK    5  A    between atoms: C_9  and  C_10
REMARK    6  A    between atoms: C_12  and  C_13
REMARK    7  A    between atoms: C_15  and  C_16
REMARK    8  A    between atoms: C_21  and  C_22
REMARK    9  A    between atoms: C_28  and  C_29
REMARK                            x       y       z     vdW  Elec       q    Type
REMARK                         _______ _______ _______ _____ _____    ______ ____
ROOT
ATOM      1  C   UNL     1       0.717   9.160  18.652  0.00  0.00    +0.000 A 
ATOM      2  N   UNL     1      -0.277   9.174  17.778  0.00  0.00    +0.000 NA
ATOM      3  C   UNL     1      -1.122  10.191  18.148  0.00  0.00    +0.000 A 
ATOM      4  C   UNL     1      -0.667  10.804  19.303  0.00  0.00    +0.000 A 
ATOM      5  N   UNL     1       0.558  10.202  19.547  0.00  0.00    +0.000 N 
ATOM      6  C   UNL     1       1.539  10.632  20.528  0.00  0.00    +0.000 C 
ATOM      7  C   UNL     1       1.644  12.142  20.763  0.00  0.00    +0.000 C 
ATOM      8  C   UNL     1       1.901  12.932  19.480  0.00  0.00    +0.000 C 
ATOM      9  O   UNL     1       0.585  12.731  21.522  0.00  0.00    +0.000 OA
ATOM     10  C   UNL     1      -0.671  12.055  21.528  0.00  0.00    +0.000 C 
ATOM     11  C   UNL     1      -1.262  11.896  20.136  0.00  0.00    +0.000 C 
ENDROOT
BRANCH   3  12
ATOM     12  C   UNL     1      -2.343  10.509  17.411  0.00  0.00    +0.000 A 
ATOM     13  C   UNL     1      -3.354  11.248  18.024  0.00  0.00    +0.000 A 
ATOM     14  C   UNL     1      -4.481  11.594  17.286  0.00  0.00    +0.000 A 
ATOM     15  C   UNL     1      -5.588  12.397  17.896  0.00  0.00    +0.000 C 
ATOM     16  N   UNL     1      -4.637  11.254  15.982  0.00  0.00    +0.000 NA
ATOM     17  C   UNL     1      -3.669  10.515  15.402  0.00  0.00    +0.000 A 
ATOM     18  C   UNL     1      -3.823  10.174  13.952  0.00  0.00    +0.000 C 
ATOM     19  C   UNL     1      -2.535  10.101  16.088  0.00  0.00    +0.000 A 
ENDBRANCH   3  12
BRANCH   1  22
ATOM     20  C   UNL     1       2.960   6.235  19.480  0.00  0.00    +0.000 A 
ATOM     21  C   UNL     1       1.944   7.202  19.530  0.00  0.00    +0.000 A 
ATOM     22  C   UNL     1       1.867   8.241  18.594  0.00  0.00    +0.000 A 
ATOM     23  C   UNL     1       2.879   8.345  17.637  0.00  0.00    +0.000 A 
ATOM     24  C   UNL     1       3.882   7.378  17.555  0.00  0.00    +0.000 A 
ATOM     25  C   UNL     1       3.926   6.307  18.461  0.00  0.00    +0.000 A 
ATOM     26  C   UNL     1       5.043   5.309  18.334  0.00  0.00    +0.000 C 
BRANCH  20  27
ATOM     27  O   UNL     1       3.063   5.192  20.377  0.00  0.00    +0.000 OA
BRANCH  27  29
ATOM     28  C   UNL     1       1.354   3.504  20.029  0.00  0.00    +0.000 C 
ATOM     29  C   UNL     1       1.815   4.681  20.867  0.00  0.00    +0.000 C 
ENDBRANCH  27  29
ENDBRANCH  20  27
ENDBRANCH   1  22
TORSDOF 4
ENDMDL
