MODEL 1
REMARK VINA RESULT:      -9.1      0.000      0.000
REMARK  Name = 
REMARK  9 active torsions:
REMARK  status: ('A' for Active; 'I' for Inactive)
REMARK    1  A    between atoms: C_1  and  C_2
REMARK    2  A    between atoms: N_4  and  C_5
REMARK    3  A    between atoms: C_5  and  C_6
REMARK    4  A    between atoms: C_7  and  C_8
REMARK    5  A    between atoms: C_8  and  O_9
REMARK    6  A    between atoms: O_9  and  C_10
REMARK    7  A    between atoms: C_10  and  C_11
REMARK    8  A    between atoms: C_10  and  C_17
REMARK    9  A    between atoms: C_10  and  C_23
REMARK                            x       y       z     vdW  Elec       q    Type
REMARK                         _______ _______ _______ _____ _____    ______ ____
ROOT
ATOM      1  C   UNL     1      -0.483  10.991  18.785  0.00  0.00    +0.000 C 
ENDROOT
BRANCH   1   2
ATOM      2  C   UNL     1      -1.906  11.048  18.112  0.00  0.00    +0.000 A 
ATOM      3  C   UNL     1      -3.001  11.681  18.734  0.00  0.00    +0.000 A 
ATOM      4  C   UNL     1      -4.273  11.685  18.145  0.00  0.00    +0.000 A 
ATOM      5  C   UNL     1      -4.490  11.047  16.928  0.00  0.00    +0.000 A 
ATOM      6  C   UNL     1      -3.440  10.392  16.301  0.00  0.00    +0.000 A 
ATOM      7  C   UNL     1      -2.175  10.380  16.894  0.00  0.00    +0.000 A 
ENDBRANCH   1   2
BRANCH   1   8
ATOM      8  C   UNL     1      -0.567  10.561  20.289  0.00  0.00    +0.000 A 
ATOM      9  C   UNL     1      -0.672  11.513  21.327  0.00  0.00    +0.000 A 
ATOM     10  C   UNL     1      -0.628  11.138  22.674  0.00  0.00    +0.000 A 
ATOM     11  C   UNL     1      -0.486   9.798  23.021  0.00  0.00    +0.000 A 
ATOM     12  C   UNL     1      -0.421   8.833  22.020  0.00  0.00    +0.000 A 
ATOM     13  C   UNL     1      -0.472   9.206  20.669  0.00  0.00    +0.000 A 
ENDBRANCH   1   8
BRANCH   1  14
ATOM     14  C   UNL     1       0.342  12.315  18.674  0.00  0.00    +0.000 A 
ATOM     15  C   UNL     1       1.745  12.336  18.801  0.00  0.00    +0.000 A 
ATOM     16  C   UNL     1       2.435  13.537  18.983  0.00  0.00    +0.000 A 
ATOM     17  C   UNL     1       1.748  14.746  18.970  0.00  0.00    +0.000 A 
ATOM     18  C   UNL     1       0.381  14.760  18.716  0.00  0.00    +0.000 A 
ATOM     19  C   UNL     1      -0.309  13.558  18.538  0.00  0.00    +0.000 A 
ENDBRANCH   1  14
BRANCH   1  20
ATOM     20  O   UNL     1       0.255   9.924  18.109  0.00  0.00    +0.000 OA
BRANCH  20  21
ATOM     21  C   UNL     1       1.417   9.430  18.758  0.00  0.00    +0.000 C 
BRANCH  21  23
ATOM     22  C   UNL     1       2.830   7.517  17.939  0.00  0.00    +0.000 C 
ATOM     23  C   UNL     1       2.260   8.719  17.742  0.00  0.00    +0.000 C 
BRANCH  22  24
ATOM     24  C   UNL     1       2.873   6.795  19.254  0.00  0.00    +0.000 C 
BRANCH  24  28
ATOM     25  C   UNL     1       0.820   2.254  18.721  0.00  0.00    +0.000 C 
ATOM     26  C   UNL     1       1.975   3.180  18.916  0.00  0.00    +0.000 A 
ATOM     27  C   UNL     1       1.863   4.506  19.060  0.00  0.00    +0.000 A 
ATOM     28  N   UNL     1       2.962   5.337  19.177  0.00  0.00    +0.000 N 
ATOM     29  C   UNL     1       4.256   4.823  19.210  0.00  0.00    +0.000 A 
ATOM     30  O   UNL     1       5.271   5.509  19.284  0.00  0.00    +0.000 OA
ATOM     31  N   UNL     1       4.357   3.463  19.122  0.00  0.00    +0.000 N 
ATOM     32  C   UNL     1       3.331   2.590  18.913  0.00  0.00    +0.000 A 
ATOM     33  O   UNL     1       3.519   1.389  18.750  0.00  0.00    +0.000 OA
ATOM     34  H   UNL     1       5.293   3.083  19.113  0.00  0.00    +0.000 HD
ENDBRANCH  24  28
ENDBRANCH  22  24
ENDBRANCH  21  23
ENDBRANCH  20  21
ENDBRANCH   1  20
TORSDOF 8
ENDMDL
MODEL 2
REMARK VINA RESULT:      -9.0      0.474      4.006
REMARK  Name = 
REMARK  9 active torsions:
REMARK  status: ('A' for Active; 'I' for Inactive)
REMARK    1  A    between atoms: C_1  and  C_2
REMARK    2  A    between atoms: N_4  and  C_5
REMARK    3  A    between atoms: C_5  and  C_6
REMARK    4  A    between atoms: C_7  and  C_8
REMARK    5  A    between atoms: C_8  and  O_9
REMARK    6  A    between atoms: O_9  and  C_10
REMARK    7  A    between atoms: C_10  and  C_11
REMARK    8  A    between atoms: C_10  and  C_17
REMARK    9  A    between atoms: C_10  and  C_23
REMARK                            x       y       z     vdW  Elec       q    Type
REMARK                         _______ _______ _______ _____ _____    ______ ____
ROOT
ATOM      1  C   UNL     1      -0.043  10.829  18.858  0.00  0.00    +0.000 C 
ENDROOT
BRANCH   1   2
ATOM      2  C   UNL     1       0.565  12.274  18.706  0.00  0.00    +0.000 A 
ATOM      3  C   UNL     1       1.942  12.487  18.496  0.00  0.00    +0.000 A 
ATOM      4  C   UNL     1       2.477  13.780  18.408  0.00  0.00    +0.000 A 
ATOM      5  C   UNL     1       1.655  14.895  18.540  0.00  0.00    +0.000 A 
ATOM      6  C   UNL     1       0.298  14.722  18.772  0.00  0.00    +0.000 A 
ATOM      7  C   UNL     1      -0.232  13.433  18.870  0.00  0.00    +0.000 A 
ENDBRANCH   1   2
BRANCH   1   8
ATOM      8  C   UNL     1      -1.489  10.742  18.263  0.00  0.00    +0.000 A 
ATOM      9  C   UNL     1      -1.775   9.963  17.121  0.00  0.00    +0.000 A 
ATOM     10  C   UNL     1      -3.038   9.978  16.519  0.00  0.00    +0.000 A 
ATOM     11  C   UNL     1      -4.054  10.766  17.049  0.00  0.00    +0.000 A 
ATOM     12  C   UNL     1      -3.814  11.514  18.198  0.00  0.00    +0.000 A 
ATOM     13  C   UNL     1      -2.551  11.495  18.806  0.00  0.00    +0.000 A 
ENDBRANCH   1   8
BRANCH   1  14
ATOM     14  C   UNL     1      -0.054  10.280  20.322  0.00  0.00    +0.000 A 
ATOM     15  C   UNL     1      -0.276   8.919  20.609  0.00  0.00    +0.000 A 
ATOM     16  C   UNL     1      -0.564   8.493  21.908  0.00  0.00    +0.000 A 
ATOM     17  C   UNL     1      -0.566   9.405  22.958  0.00  0.00    +0.000 A 
ATOM     18  C   UNL     1      -0.221  10.732  22.720  0.00  0.00    +0.000 A 
ATOM     19  C   UNL     1       0.062  11.157  21.419  0.00  0.00    +0.000 A 
ENDBRANCH   1  14
BRANCH   1  20
ATOM     20  O   UNL     1       0.778   9.943  18.033  0.00  0.00    +0.000 OA
BRANCH  20  21
ATOM     21  C   UNL     1       1.625   9.028  18.712  0.00  0.00    +0.000 C 
BRANCH  21  23
ATOM     22  C   UNL     1       3.287   7.317  17.912  0.00  0.00    +0.000 C 
ATOM     23  C   UNL     1       2.591   8.452  17.720  0.00  0.00    +0.000 C 
BRANCH  22  24
ATOM     24  C   UNL     1       3.352   6.562  19.208  0.00  0.00    +0.000 C 
BRANCH  24  28
ATOM     25  C   UNL     1       0.975   2.184  18.665  0.00  0.00    +0.000 C 
ATOM     26  C   UNL     1       2.197   3.025  18.830  0.00  0.00    +0.000 A 
ATOM     27  C   UNL     1       2.182   4.351  19.008  0.00  0.00    +0.000 A 
ATOM     28  N   UNL     1       3.338   5.104  19.096  0.00  0.00    +0.000 N 
ATOM     29  C   UNL     1       4.595   4.503  19.064  0.00  0.00    +0.000 A 
ATOM     30  O   UNL     1       5.657   5.117  19.110  0.00  0.00    +0.000 OA
ATOM     31  N   UNL     1       4.599   3.143  18.943  0.00  0.00    +0.000 N 
ATOM     32  C   UNL     1       3.509   2.346  18.758  0.00  0.00    +0.000 A 
ATOM     33  O   UNL     1       3.607   1.139  18.562  0.00  0.00    +0.000 OA
ATOM     34  H   UNL     1       5.506   2.701  18.886  0.00  0.00    +0.000 HD
ENDBRANCH  24  28
ENDBRANCH  22  24
ENDBRANCH  21  23
ENDBRANCH  20  21
ENDBRANCH   1  20
TORSDOF 8
ENDMDL
MODEL 3
REMARK VINA RESULT:      -9.0      0.248      4.020
REMARK  Name = 
REMARK  9 active torsions:
REMARK  status: ('A' for Active; 'I' for Inactive)
REMARK    1  A    between atoms: C_1  and  C_2
REMARK    2  A    between atoms: N_4  and  C_5
REMARK    3  A    between atoms: C_5  and  C_6
REMARK    4  A    between atoms: C_7  and  C_8
REMARK    5  A    between atoms: C_8  and  O_9
REMARK    6  A    between atoms: O_9  and  C_10
REMARK    7  A    between atoms: C_10  and  C_11
REMARK    8  A    between atoms: C_10  and  C_17
REMARK    9  A    between atoms: C_10  and  C_23
REMARK                            x       y       z     vdW  Elec       q    Type
REMARK                         _______ _______ _______ _____ _____    ______ ____
ROOT
ATOM      1  C   UNL     1      -0.422  10.814  18.849  0.00  0.00    +0.000 C 
ENDROOT
BRANCH   1   2
ATOM      2  C   UNL     1      -0.418  10.329  20.348  0.00  0.00    +0.000 A 
ATOM      3  C   UNL     1      -0.420   8.963  20.691  0.00  0.00    +0.000 A 
ATOM      4  C   UNL     1      -0.463   8.546  22.028  0.00  0.00    +0.000 A 
ATOM      5  C   UNL     1      -0.519   9.479  23.059  0.00  0.00    +0.000 A 
ATOM      6  C   UNL     1      -0.544  10.833  22.755  0.00  0.00    +0.000 A 
ATOM      7  C   UNL     1      -0.512  11.247  21.421  0.00  0.00    +0.000 A 
ENDBRANCH   1   2
BRANCH   1   8
ATOM      8  C   UNL     1       0.219  12.234  18.696  0.00  0.00    +0.000 A 
ATOM      9  C   UNL     1       1.619  12.416  18.654  0.00  0.00    +0.000 A 
ATOM     10  C   UNL     1       2.195  13.691  18.637  0.00  0.00    +0.000 A 
ATOM     11  C   UNL     1       1.384  14.822  18.654  0.00  0.00    +0.000 A 
ATOM     12  C   UNL     1       0.000  14.675  18.654  0.00  0.00    +0.000 A 
ATOM     13  C   UNL     1      -0.578  13.398  18.664  0.00  0.00    +0.000 A 
ENDBRANCH   1   8
BRANCH   1  14
ATOM     14  C   UNL     1      -1.829  10.808  18.167  0.00  0.00    +0.000 A 
ATOM     15  C   UNL     1      -2.033  10.282  16.877  0.00  0.00    +0.000 A 
ATOM     16  C   UNL     1      -3.214  10.536  16.173  0.00  0.00    +0.000 A 
ATOM     17  C   UNL     1      -4.242  11.257  16.770  0.00  0.00    +0.000 A 
ATOM     18  C   UNL     1      -4.115  11.674  18.092  0.00  0.00    +0.000 A 
ATOM     19  C   UNL     1      -2.932  11.424  18.793  0.00  0.00    +0.000 A 
ENDBRANCH   1  14
BRANCH   1  20
ATOM     20  O   UNL     1       0.456   9.902  18.114  0.00  0.00    +0.000 OA
BRANCH  20  21
ATOM     21  C   UNL     1       1.594   9.405  18.803  0.00  0.00    +0.000 C 
BRANCH  21  23
ATOM     22  C   UNL     1       2.975   7.453  18.022  0.00  0.00    +0.000 C 
ATOM     23  C   UNL     1       2.463   8.680  17.819  0.00  0.00    +0.000 C 
BRANCH  22  24
ATOM     24  C   UNL     1       2.919   6.706  19.323  0.00  0.00    +0.000 C 
BRANCH  24  28
ATOM     25  C   UNL     1       0.804   2.206  18.701  0.00  0.00    +0.000 C 
ATOM     26  C   UNL     1       1.970   3.111  18.920  0.00  0.00    +0.000 A 
ATOM     27  C   UNL     1       1.877   4.436  19.084  0.00  0.00    +0.000 A 
ATOM     28  N   UNL     1       2.987   5.249  19.224  0.00  0.00    +0.000 N 
ATOM     29  C   UNL     1       4.273   4.715  19.258  0.00  0.00    +0.000 A 
ATOM     30  O   UNL     1       5.298   5.384  19.352  0.00  0.00    +0.000 OA
ATOM     31  N   UNL     1       4.355   3.356  19.150  0.00  0.00    +0.000 N 
ATOM     32  C   UNL     1       3.318   2.501  18.919  0.00  0.00    +0.000 A 
ATOM     33  O   UNL     1       3.489   1.300  18.738  0.00  0.00    +0.000 OA
ATOM     34  H   UNL     1       5.285   2.962  19.143  0.00  0.00    +0.000 HD
ENDBRANCH  24  28
ENDBRANCH  22  24
ENDBRANCH  21  23
ENDBRANCH  20  21
ENDBRANCH   1  20
TORSDOF 8
ENDMDL
MODEL 4
REMARK VINA RESULT:      -8.8      0.884      3.973
REMARK  Name = 
REMARK  9 active torsions:
REMARK  status: ('A' for Active; 'I' for Inactive)
REMARK    1  A    between atoms: C_1  and  C_2
REMARK    2  A    between atoms: N_4  and  C_5
REMARK    3  A    between atoms: C_5  and  C_6
REMARK    4  A    between atoms: C_7  and  C_8
REMARK    5  A    between atoms: C_8  and  O_9
REMARK    6  A    between atoms: O_9  and  C_10
REMARK    7  A    between atoms: C_10  and  C_11
REMARK    8  A    between atoms: C_10  and  C_17
REMARK    9  A    between atoms: C_10  and  C_23
REMARK                            x       y       z     vdW  Elec       q    Type
REMARK                         _______ _______ _______ _____ _____    ______ ____
ROOT
ATOM      1  C   UNL     1       0.362  10.634  18.799  0.00  0.00    +0.000 C 
ENDROOT
BRANCH   1   2
ATOM      2  C   UNL     1       1.056  12.046  18.741  0.00  0.00    +0.000 A 
ATOM      3  C   UNL     1       0.373  13.229  19.090  0.00  0.00    +0.000 A 
ATOM      4  C   UNL     1       0.989  14.484  18.990  0.00  0.00    +0.000 A 
ATOM      5  C   UNL     1       2.297  14.596  18.528  0.00  0.00    +0.000 A 
ATOM      6  C   UNL     1       2.990  13.453  18.153  0.00  0.00    +0.000 A 
ATOM      7  C   UNL     1       2.371  12.204  18.242  0.00  0.00    +0.000 A 
ENDBRANCH   1   2
BRANCH   1   8
ATOM      8  C   UNL     1      -1.082  10.671  18.194  0.00  0.00    +0.000 A 
ATOM      9  C   UNL     1      -2.091  11.498  18.734  0.00  0.00    +0.000 A 
ATOM     10  C   UNL     1      -3.411  11.445  18.271  0.00  0.00    +0.000 A 
ATOM     11  C   UNL     1      -3.756  10.567  17.249  0.00  0.00    +0.000 A 
ATOM     12  C   UNL     1      -2.775   9.768  16.669  0.00  0.00    +0.000 A 
ATOM     13  C   UNL     1      -1.451   9.825  17.127  0.00  0.00    +0.000 A 
ENDBRANCH   1   8
BRANCH   1  14
ATOM     14  C   UNL     1       0.306   9.994  20.224  0.00  0.00    +0.000 A 
ATOM     15  C   UNL     1      -0.434   8.826  20.492  0.00  0.00    +0.000 A 
ATOM     16  C   UNL     1      -0.706   8.430  21.804  0.00  0.00    +0.000 A 
ATOM     17  C   UNL     1      -0.186   9.150  22.874  0.00  0.00    +0.000 A 
ATOM     18  C   UNL     1       0.657  10.231  22.633  0.00  0.00    +0.000 A 
ATOM     19  C   UNL     1       0.925  10.629  21.321  0.00  0.00    +0.000 A 
ENDBRANCH   1  14
BRANCH   1  20
ATOM     20  O   UNL     1       1.135   9.753  17.922  0.00  0.00    +0.000 OA
BRANCH  20  21
ATOM     21  C   UNL     1       1.852   8.694  18.539  0.00  0.00    +0.000 C 
BRANCH  21  23
ATOM     22  C   UNL     1       3.643   7.100  17.779  0.00  0.00    +0.000 C 
ATOM     23  C   UNL     1       2.850   8.162  17.554  0.00  0.00    +0.000 C 
BRANCH  22  24
ATOM     24  C   UNL     1       3.791   6.407  19.102  0.00  0.00    +0.000 C 
BRANCH  24  28
ATOM     25  C   UNL     1       1.218   2.134  18.618  0.00  0.00    +0.000 C 
ATOM     26  C   UNL     1       2.470   2.919  18.832  0.00  0.00    +0.000 A 
ATOM     27  C   UNL     1       2.516   4.252  18.934  0.00  0.00    +0.000 A 
ATOM     28  N   UNL     1       3.704   4.948  19.070  0.00  0.00    +0.000 N 
ATOM     29  C   UNL     1       4.923   4.282  19.167  0.00  0.00    +0.000 A 
ATOM     30  O   UNL     1       6.011   4.841  19.262  0.00  0.00    +0.000 OA
ATOM     31  N   UNL     1       4.860   2.918  19.122  0.00  0.00    +0.000 N 
ATOM     32  C   UNL     1       3.743   2.169  18.898  0.00  0.00    +0.000 A 
ATOM     33  O   UNL     1       3.788   0.949  18.776  0.00  0.00    +0.000 OA
ATOM     34  H   UNL     1       5.742   2.427  19.160  0.00  0.00    +0.000 HD
ENDBRANCH  24  28
ENDBRANCH  22  24
ENDBRANCH  21  23
ENDBRANCH  20  21
ENDBRANCH   1  20
TORSDOF 8
ENDMDL
MODEL 5
REMARK VINA RESULT:      -8.8      0.232      1.196
REMARK  Name = 
REMARK  9 active torsions:
REMARK  status: ('A' for Active; 'I' for Inactive)
REMARK    1  A    between atoms: C_1  and  C_2
REMARK    2  A    between atoms: N_4  and  C_5
REMARK    3  A    between atoms: C_5  and  C_6
REMARK    4  A    between atoms: C_7  and  C_8
REMARK    5  A    between atoms: C_8  and  O_9
REMARK    6  A    between atoms: O_9  and  C_10
REMARK    7  A    between atoms: C_10  and  C_11
REMARK    8  A    between atoms: C_10  and  C_17
REMARK    9  A    between atoms: C_10  and  C_23
REMARK                            x       y       z     vdW  Elec       q    Type
REMARK                         _______ _______ _______ _____ _____    ______ ____
ROOT
ATOM      1  C   UNL     1      -0.432  10.906  18.927  0.00  0.00    +0.000 C 
ENDROOT
BRANCH   1   2
ATOM      2  C   UNL     1      -1.840  10.937  18.222  0.00  0.00    +0.000 A 
ATOM      3  C   UNL     1      -2.057  10.345  16.962  0.00  0.00    +0.000 A 
ATOM      4  C   UNL     1      -3.304  10.419  16.325  0.00  0.00    +0.000 A 
ATOM      5  C   UNL     1      -4.362  11.098  16.920  0.00  0.00    +0.000 A 
ATOM      6  C   UNL     1      -4.176  11.715  18.149  0.00  0.00    +0.000 A 
ATOM      7  C   UNL     1      -2.930  11.648  18.778  0.00  0.00    +0.000 A 
ENDBRANCH   1   2
BRANCH   1   8
ATOM      8  C   UNL     1      -0.536  10.410  20.410  0.00  0.00    +0.000 A 
ATOM      9  C   UNL     1      -0.651  11.315  21.487  0.00  0.00    +0.000 A 
ATOM     10  C   UNL     1      -0.624  10.881  22.818  0.00  0.00    +0.000 A 
ATOM     11  C   UNL     1      -0.489   9.526  23.106  0.00  0.00    +0.000 A 
ATOM     12  C   UNL     1      -0.414   8.606  22.064  0.00  0.00    +0.000 A 
ATOM     13  C   UNL     1      -0.448   9.039  20.731  0.00  0.00    +0.000 A 
ENDBRANCH   1   8
BRANCH   1  14
ATOM     14  C   UNL     1       0.343  12.263  18.892  0.00  0.00    +0.000 A 
ATOM     15  C   UNL     1      -0.314  13.504  19.004  0.00  0.00    +0.000 A 
ATOM     16  C   UNL     1       0.341  14.698  18.690  0.00  0.00    +0.000 A 
ATOM     17  C   UNL     1       1.684  14.684  18.328  0.00  0.00    +0.000 A 
ATOM     18  C   UNL     1       2.388  13.484  18.338  0.00  0.00    +0.000 A 
ATOM     19  C   UNL     1       1.731  12.291  18.647  0.00  0.00    +0.000 A 
ENDBRANCH   1  14
BRANCH   1  20
ATOM     20  O   UNL     1       0.362   9.896  18.228  0.00  0.00    +0.000 OA
BRANCH  20  21
ATOM     21  C   UNL     1       1.570   9.481  18.846  0.00  0.00    +0.000 C 
BRANCH  21  23
ATOM     22  C   UNL     1       2.871   7.492  18.021  0.00  0.00    +0.000 C 
ATOM     23  C   UNL     1       2.387   8.733  17.835  0.00  0.00    +0.000 C 
BRANCH  22  24
ATOM     24  C   UNL     1       2.835   6.745  19.323  0.00  0.00    +0.000 C 
BRANCH  24  28
ATOM     25  C   UNL     1       0.797   2.212  18.684  0.00  0.00    +0.000 C 
ATOM     26  C   UNL     1       1.947   3.136  18.912  0.00  0.00    +0.000 A 
ATOM     27  C   UNL     1       1.832   4.458  19.076  0.00  0.00    +0.000 A 
ATOM     28  N   UNL     1       2.927   5.289  19.224  0.00  0.00    +0.000 N 
ATOM     29  C   UNL     1       4.221   4.776  19.269  0.00  0.00    +0.000 A 
ATOM     30  O   UNL     1       5.235   5.461  19.371  0.00  0.00    +0.000 OA
ATOM     31  N   UNL     1       4.326   3.418  19.161  0.00  0.00    +0.000 N 
ATOM     32  C   UNL     1       3.304   2.547  18.922  0.00  0.00    +0.000 A 
ATOM     33  O   UNL     1       3.496   1.349  18.742  0.00  0.00    +0.000 OA
ATOM     34  H   UNL     1       5.262   3.039  19.161  0.00  0.00    +0.000 HD
ENDBRANCH  24  28
ENDBRANCH  22  24
ENDBRANCH  21  23
ENDBRANCH  20  21
ENDBRANCH   1  20
TORSDOF 8
ENDMDL
MODEL 6
REMARK VINA RESULT:      -8.8      0.253      3.982
REMARK  Name = 
REMARK  9 active torsions:
REMARK  status: ('A' for Active; 'I' for Inactive)
REMARK    1  A    between atoms: C_1  and  C_2
REMARK    2  A    between atoms: N_4  and  C_5
REMARK    3  A    between atoms: C_5  and  C_6
REMARK    4  A    between atoms: C_7  and  C_8
REMARK    5  A    between atoms: C_8  and  O_9
REMARK    6  A    between atoms: O_9  and  C_10
REMARK    7  A    between atoms: C_10  and  C_11
REMARK    8  A    between atoms: C_10  and  C_17
REMARK    9  A    between atoms: C_10  and  C_23
REMARK                            x       y       z     vdW  Elec       q    Type
REMARK                         _______ _______ _______ _____ _____    ______ ____
ROOT
ATOM      1  C   UNL     1      -0.487  11.085  19.015  0.00  0.00    +0.000 C 
ENDROOT
BRANCH   1   2
ATOM      2  C   UNL     1      -0.524  10.505  20.479  0.00  0.00    +0.000 A 
ATOM      3  C   UNL     1      -0.566  11.341  21.612  0.00  0.00    +0.000 A 
ATOM      4  C   UNL     1      -0.552  10.813  22.910  0.00  0.00    +0.000 A 
ATOM      5  C   UNL     1      -0.483   9.438  23.113  0.00  0.00    +0.000 A 
ATOM      6  C   UNL     1      -0.415   8.587  22.019  0.00  0.00    +0.000 A 
ATOM      7  C   UNL     1      -0.418   9.116  20.726  0.00  0.00    +0.000 A 
ENDBRANCH   1   2
BRANCH   1   8
ATOM      8  C   UNL     1       0.276  12.451  18.950  0.00  0.00    +0.000 A 
ATOM      9  C   UNL     1      -0.407  13.675  18.785  0.00  0.00    +0.000 A 
ATOM     10  C   UNL     1       0.279  14.883  18.608  0.00  0.00    +0.000 A 
ATOM     11  C   UNL     1       1.670  14.899  18.599  0.00  0.00    +0.000 A 
ATOM     12  C   UNL     1       2.372  13.713  18.799  0.00  0.00    +0.000 A 
ATOM     13  C   UNL     1       1.686  12.505  18.983  0.00  0.00    +0.000 A 
ENDBRANCH   1   8
BRANCH   1  14
ATOM     14  C   UNL     1      -1.890  11.248  18.344  0.00  0.00    +0.000 A 
ATOM     15  C   UNL     1      -2.982  11.825  19.022  0.00  0.00    +0.000 A 
ATOM     16  C   UNL     1      -4.283  11.709  18.526  0.00  0.00    +0.000 A 
ATOM     17  C   UNL     1      -4.512  11.077  17.308  0.00  0.00    +0.000 A 
ATOM     18  C   UNL     1      -3.435  10.616  16.557  0.00  0.00    +0.000 A 
ATOM     19  C   UNL     1      -2.135  10.728  17.056  0.00  0.00    +0.000 A 
ENDBRANCH   1  14
BRANCH   1  20
ATOM     20  O   UNL     1       0.306  10.150  18.216  0.00  0.00    +0.000 OA
BRANCH  20  21
ATOM     21  C   UNL     1       1.412   9.531  18.854  0.00  0.00    +0.000 C 
BRANCH  21  23
ATOM     22  C   UNL     1       2.716   7.556  18.002  0.00  0.00    +0.000 C 
ATOM     23  C   UNL     1       2.198   8.783  17.819  0.00  0.00    +0.000 C 
BRANCH  22  24
ATOM     24  C   UNL     1       2.754   6.830  19.316  0.00  0.00    +0.000 C 
BRANCH  24  28
ATOM     25  C   UNL     1       0.789   2.256  18.742  0.00  0.00    +0.000 C 
ATOM     26  C   UNL     1       1.925   3.202  18.955  0.00  0.00    +0.000 A 
ATOM     27  C   UNL     1       1.788   4.524  19.102  0.00  0.00    +0.000 A 
ATOM     28  N   UNL     1       2.870   5.375  19.236  0.00  0.00    +0.000 N 
ATOM     29  C   UNL     1       4.172   4.883  19.286  0.00  0.00    +0.000 A 
ATOM     30  O   UNL     1       5.174   5.587  19.376  0.00  0.00    +0.000 OA
ATOM     31  N   UNL     1       4.299   3.526  19.195  0.00  0.00    +0.000 N 
ATOM     32  C   UNL     1       3.291   2.636  18.970  0.00  0.00    +0.000 A 
ATOM     33  O   UNL     1       3.502   1.439  18.806  0.00  0.00    +0.000 OA
ATOM     34  H   UNL     1       5.241   3.162  19.199  0.00  0.00    +0.000 HD
ENDBRANCH  24  28
ENDBRANCH  22  24
ENDBRANCH  21  23
ENDBRANCH  20  21
ENDBRANCH   1  20
TORSDOF 8
ENDMDL
MODEL 7
REMARK VINA RESULT:      -8.6      0.835      3.905
REMARK  Name = 
REMARK  9 active torsions:
REMARK  status: ('A' for Active; 'I' for Inactive)
REMARK    1  A    between atoms: C_1  and  C_2
REMARK    2  A    between atoms: N_4  and  C_5
REMARK    3  A    between atoms: C_5  and  C_6
REMARK    4  A    between atoms: C_7  and  C_8
REMARK    5  A    between atoms: C_8  and  O_9
REMARK    6  A    between atoms: O_9  and  C_10
REMARK    7  A    between atoms: C_10  and  C_11
REMARK    8  A    between atoms: C_10  and  C_17
REMARK    9  A    between atoms: C_10  and  C_23
REMARK                            x       y       z     vdW  Elec       q    Type
REMARK                         _______ _______ _______ _____ _____    ______ ____
ROOT
ATOM      1  C   UNL     1      -0.126  11.199  18.967  0.00  0.00    +0.000 C 
ENDROOT
BRANCH   1   2
ATOM      2  C   UNL     1       0.386  12.688  18.909  0.00  0.00    +0.000 A 
ATOM      3  C   UNL     1      -0.501  13.783  18.902  0.00  0.00    +0.000 A 
ATOM      4  C   UNL     1      -0.034  15.100  18.803  0.00  0.00    +0.000 A 
ATOM      5  C   UNL     1       1.328  15.362  18.696  0.00  0.00    +0.000 A 
ATOM      6  C   UNL     1       2.228  14.305  18.675  0.00  0.00    +0.000 A 
ATOM      7  C   UNL     1       1.760  12.992  18.762  0.00  0.00    +0.000 A 
ENDBRANCH   1   2
BRANCH   1   8
ATOM      8  C   UNL     1      -1.550  11.049  18.332  0.00  0.00    +0.000 A 
ATOM      9  C   UNL     1      -2.671  11.727  18.858  0.00  0.00    +0.000 A 
ATOM     10  C   UNL     1      -3.962  11.502  18.366  0.00  0.00    +0.000 A 
ATOM     11  C   UNL     1      -4.166  10.598  17.329  0.00  0.00    +0.000 A 
ATOM     12  C   UNL     1      -3.075   9.944  16.763  0.00  0.00    +0.000 A 
ATOM     13  C   UNL     1      -1.780  10.173  17.250  0.00  0.00    +0.000 A 
ENDBRANCH   1   8
BRANCH   1  14
ATOM     14  C   UNL     1      -0.132  10.570  20.398  0.00  0.00    +0.000 A 
ATOM     15  C   UNL     1      -0.215   9.179  20.604  0.00  0.00    +0.000 A 
ATOM     16  C   UNL     1      -0.503   8.651  21.865  0.00  0.00    +0.000 A 
ATOM     17  C   UNL     1      -0.644   9.497  22.961  0.00  0.00    +0.000 A 
ATOM     18  C   UNL     1      -0.437  10.865  22.807  0.00  0.00    +0.000 A 
ATOM     19  C   UNL     1      -0.153  11.391  21.544  0.00  0.00    +0.000 A 
ENDBRANCH   1  14
BRANCH   1  20
ATOM     20  O   UNL     1       0.771  10.416  18.117  0.00  0.00    +0.000 OA
BRANCH  20  21
ATOM     21  C   UNL     1       1.573   9.434  18.754  0.00  0.00    +0.000 C 
BRANCH  21  23
ATOM     22  C   UNL     1       2.603   7.258  18.025  0.00  0.00    +0.000 C 
ATOM     23  C   UNL     1       1.948   8.397  17.738  0.00  0.00    +0.000 C 
BRANCH  22  24
ATOM     24  C   UNL     1       3.224   6.939  19.354  0.00  0.00    +0.000 C 
BRANCH  24  28
ATOM     25  C   UNL     1       1.868   2.376  20.919  0.00  0.00    +0.000 C 
ATOM     26  C   UNL     1       2.839   3.354  20.347  0.00  0.00    +0.000 A 
ATOM     27  C   UNL     1       2.594   4.661  20.196  0.00  0.00    +0.000 A 
ATOM     28  N   UNL     1       3.498   5.525  19.606  0.00  0.00    +0.000 N 
ATOM     29  C   UNL     1       4.750   5.083  19.186  0.00  0.00    +0.000 A 
ATOM     30  O   UNL     1       5.585   5.793  18.632  0.00  0.00    +0.000 OA
ATOM     31  N   UNL     1       5.015   3.760  19.399  0.00  0.00    +0.000 N 
ATOM     32  C   UNL     1       4.145   2.832  19.888  0.00  0.00    +0.000 A 
ATOM     33  O   UNL     1       4.431   1.641  19.959  0.00  0.00    +0.000 OA
ATOM     34  H   UNL     1       5.909   3.423  19.069  0.00  0.00    +0.000 HD
ENDBRANCH  24  28
ENDBRANCH  22  24
ENDBRANCH  21  23
ENDBRANCH  20  21
ENDBRANCH   1  20
TORSDOF 8
ENDMDL
MODEL 8
REMARK VINA RESULT:      -8.6      0.541      3.929
REMARK  Name = 
REMARK  9 active torsions:
REMARK  status: ('A' for Active; 'I' for Inactive)
REMARK    1  A    between atoms: C_1  and  C_2
REMARK    2  A    between atoms: N_4  and  C_5
REMARK    3  A    between atoms: C_5  and  C_6
REMARK    4  A    between atoms: C_7  and  C_8
REMARK    5  A    between atoms: C_8  and  O_9
REMARK    6  A    between atoms: O_9  and  C_10
REMARK    7  A    between atoms: C_10  and  C_11
REMARK    8  A    between atoms: C_10  and  C_17
REMARK    9  A    between atoms: C_10  and  C_23
REMARK                            x       y       z     vdW  Elec       q    Type
REMARK                         _______ _______ _______ _____ _____    ______ ____
ROOT
ATOM      1  C   UNL     1      -0.009  11.351  19.226  0.00  0.00    +0.000 C 
ENDROOT
BRANCH   1   2
ATOM      2  C   UNL     1       0.363  12.879  19.129  0.00  0.00    +0.000 A 
ATOM      3  C   UNL     1      -0.595  13.862  18.812  0.00  0.00    +0.000 A 
ATOM      4  C   UNL     1      -0.241  15.212  18.684  0.00  0.00    +0.000 A 
ATOM      5  C   UNL     1       1.080  15.616  18.855  0.00  0.00    +0.000 A 
ATOM      6  C   UNL     1       2.053  14.670  19.143  0.00  0.00    +0.000 A 
ATOM      7  C   UNL     1       1.701  13.323  19.260  0.00  0.00    +0.000 A 
ENDBRANCH   1   2
BRANCH   1   8
ATOM      8  C   UNL     1      -1.336  11.027  18.459  0.00  0.00    +0.000 A 
ATOM      9  C   UNL     1      -1.335  10.292  17.253  0.00  0.00    +0.000 A 
ATOM     10  C   UNL     1      -2.503  10.104  16.506  0.00  0.00    +0.000 A 
ATOM     11  C   UNL     1      -3.708  10.639  16.950  0.00  0.00    +0.000 A 
ATOM     12  C   UNL     1      -3.748  11.334  18.156  0.00  0.00    +0.000 A 
ATOM     13  C   UNL     1      -2.580  11.518  18.908  0.00  0.00    +0.000 A 
ENDBRANCH   1   8
BRANCH   1  14
ATOM     14  C   UNL     1      -0.109  10.798  20.684  0.00  0.00    +0.000 A 
ATOM     15  C   UNL     1       0.021   9.426  20.975  0.00  0.00    +0.000 A 
ATOM     16  C   UNL     1      -0.349   8.914  22.222  0.00  0.00    +0.000 A 
ATOM     17  C   UNL     1      -0.786   9.771  23.227  0.00  0.00    +0.000 A 
ATOM     18  C   UNL     1      -0.797  11.144  23.006  0.00  0.00    +0.000 A 
ATOM     19  C   UNL     1      -0.433  11.654  21.757  0.00  0.00    +0.000 A 
ENDBRANCH   1  14
BRANCH   1  20
ATOM     20  O   UNL     1       1.044  10.620  18.520  0.00  0.00    +0.000 OA
BRANCH  20  21
ATOM     21  C   UNL     1       1.245   9.263  18.885  0.00  0.00    +0.000 C 
BRANCH  21  23
ATOM     22  C   UNL     1       2.668   7.421  17.932  0.00  0.00    +0.000 C 
ATOM     23  C   UNL     1       2.014   8.587  17.790  0.00  0.00    +0.000 C 
BRANCH  22  24
ATOM     24  C   UNL     1       2.891   6.719  19.240  0.00  0.00    +0.000 C 
BRANCH  24  28
ATOM     25  C   UNL     1       0.859   2.168  18.710  0.00  0.00    +0.000 C 
ATOM     26  C   UNL     1       2.009   3.099  18.911  0.00  0.00    +0.000 A 
ATOM     27  C   UNL     1       1.891   4.425  19.048  0.00  0.00    +0.000 A 
ATOM     28  N   UNL     1       2.986   5.261  19.172  0.00  0.00    +0.000 N 
ATOM     29  C   UNL     1       4.281   4.751  19.220  0.00  0.00    +0.000 A 
ATOM     30  O   UNL     1       5.293   5.441  19.301  0.00  0.00    +0.000 OA
ATOM     31  N   UNL     1       4.388   3.392  19.140  0.00  0.00    +0.000 N 
ATOM     32  C   UNL     1       3.367   2.514  18.925  0.00  0.00    +0.000 A 
ATOM     33  O   UNL     1       3.560   1.313  18.770  0.00  0.00    +0.000 OA
ATOM     34  H   UNL     1       5.325   3.015  19.142  0.00  0.00    +0.000 HD
ENDBRANCH  24  28
ENDBRANCH  22  24
ENDBRANCH  21  23
ENDBRANCH  20  21
ENDBRANCH   1  20
TORSDOF 8
ENDMDL
MODEL 9
REMARK VINA RESULT:      -8.6      0.926      4.127
REMARK  Name = 
REMARK  9 active torsions:
REMARK  status: ('A' for Active; 'I' for Inactive)
REMARK    1  A    between atoms: C_1  and  C_2
REMARK    2  A    between atoms: N_4  and  C_5
REMARK    3  A    between atoms: C_5  and  C_6
REMARK    4  A    between atoms: C_7  and  C_8
REMARK    5  A    between atoms: C_8  and  O_9
REMARK    6  A    between atoms: O_9  and  C_10
REMARK    7  A    between atoms: C_10  and  C_11
REMARK    8  A    between atoms: C_10  and  C_17
REMARK    9  A    between atoms: C_10  and  C_23
REMARK                            x       y       z     vdW  Elec       q    Type
REMARK                         _______ _______ _______ _____ _____    ______ ____
ROOT
ATOM      1  C   UNL     1      -0.549  11.357  19.095  0.00  0.00    +0.000 C 
ENDROOT
BRANCH   1   2
ATOM      2  C   UNL     1      -0.499  10.686  20.520  0.00  0.00    +0.000 A 
ATOM      3  C   UNL     1      -0.349   9.295  20.685  0.00  0.00    +0.000 A 
ATOM      4  C   UNL     1      -0.352   8.707  21.957  0.00  0.00    +0.000 A 
ATOM      5  C   UNL     1      -0.518   9.487  23.097  0.00  0.00    +0.000 A 
ATOM      6  C   UNL     1      -0.694  10.858  22.969  0.00  0.00    +0.000 A 
ATOM      7  C   UNL     1      -0.701  11.442  21.699  0.00  0.00    +0.000 A 
ENDBRANCH   1   2
BRANCH   1   8
ATOM      8  C   UNL     1       0.253  12.701  19.058  0.00  0.00    +0.000 A 
ATOM      9  C   UNL     1       1.584  12.784  19.523  0.00  0.00    +0.000 A 
ATOM     10  C   UNL     1       2.261  14.007  19.601  0.00  0.00    +0.000 A 
ATOM     11  C   UNL     1       1.627  15.181  19.207  0.00  0.00    +0.000 A 
ATOM     12  C   UNL     1       0.329  15.126  18.706  0.00  0.00    +0.000 A 
ATOM     13  C   UNL     1      -0.348  13.901  18.621  0.00  0.00    +0.000 A 
ENDBRANCH   1   8
BRANCH   1  14
ATOM     14  C   UNL     1      -1.990  11.602  18.542  0.00  0.00    +0.000 A 
ATOM     15  C   UNL     1      -3.037  12.071  19.361  0.00  0.00    +0.000 A 
ATOM     16  C   UNL     1      -4.366  12.016  18.934  0.00  0.00    +0.000 A 
ATOM     17  C   UNL     1      -4.672  11.560  17.656  0.00  0.00    +0.000 A 
ATOM     18  C   UNL     1      -3.645  11.216  16.783  0.00  0.00    +0.000 A 
ATOM     19  C   UNL     1      -2.316  11.267  17.212  0.00  0.00    +0.000 A 
ENDBRANCH   1  14
BRANCH   1  20
ATOM     20  O   UNL     1       0.153  10.452  18.184  0.00  0.00    +0.000 OA
BRANCH  20  21
ATOM     21  C   UNL     1       1.428   9.982  18.593  0.00  0.00    +0.000 C 
BRANCH  21  23
ATOM     22  C   UNL     1       2.244   7.658  18.087  0.00  0.00    +0.000 C 
ATOM     23  C   UNL     1       1.841   8.872  17.674  0.00  0.00    +0.000 C 
BRANCH  22  24
ATOM     24  C   UNL     1       2.525   7.288  19.514  0.00  0.00    +0.000 C 
BRANCH  24  28
ATOM     25  C   UNL     1       1.353   2.773  21.346  0.00  0.00    +0.000 C 
ATOM     26  C   UNL     1       2.249   3.729  20.631  0.00  0.00    +0.000 A 
ATOM     27  C   UNL     1       1.995   5.035  20.483  0.00  0.00    +0.000 A 
ATOM     28  N   UNL     1       2.820   5.877  19.761  0.00  0.00    +0.000 N 
ATOM     29  C   UNL     1       4.004   5.414  19.192  0.00  0.00    +0.000 A 
ATOM     30  O   UNL     1       4.764   6.104  18.518  0.00  0.00    +0.000 OA
ATOM     31  N   UNL     1       4.286   4.093  19.399  0.00  0.00    +0.000 N 
ATOM     32  C   UNL     1       3.480   3.185  20.018  0.00  0.00    +0.000 A 
ATOM     33  O   UNL     1       3.765   1.993  20.078  0.00  0.00    +0.000 OA
ATOM     34  H   UNL     1       5.126   3.741  18.964  0.00  0.00    +0.000 HD
ENDBRANCH  24  28
ENDBRANCH  22  24
ENDBRANCH  21  23
ENDBRANCH  20  21
ENDBRANCH   1  20
TORSDOF 8
ENDMDL
