MODEL 1
REMARK VINA RESULT:      -7.9      0.000      0.000
REMARK  Name = 
REMARK  10 active torsions:
REMARK  status: ('A' for Active; 'I' for Inactive)
REMARK    1  A    between atoms: C_1  and  C_2
REMARK    2  A    between atoms: C_2  and  C_3
REMARK    3  A    between atoms: C_3  and  C_4
REMARK    4  A    between atoms: C_4  and  C_5
REMARK    5  A    between atoms: C_5  and  C_6
REMARK    6  A    between atoms: C_10  and  N_11
REMARK    7  A    between atoms: C_13  and  C_14
REMARK    8  A    between atoms: C_23  and  O_24
REMARK    9  A    between atoms: C_26  and  C_27
REMARK   10  A    between atoms: C_30  and  C_31
REMARK                            x       y       z     vdW  Elec       q    Type
REMARK                         _______ _______ _______ _____ _____    ______ ____
ROOT
ATOM      1  C   UNL     1      -1.224  11.309  18.151  0.00  0.00    +0.000 C 
ATOM      2  O   UNL     1      -1.201  12.417  17.636  0.00  0.00    +0.000 OA
ATOM      3  N   UNL     1      -0.981  11.110  19.515  0.00  0.00    +0.000 N 
ATOM      4  C   UNL     1      -1.008   9.789  20.147  0.00  0.00    +0.000 C 
ATOM      5  C   UNL     1       0.373   9.401  20.676  0.00  0.00    +0.000 C 
ATOM      6  C   UNL     1       1.146  10.510  21.419  0.00  0.00    +0.000 C 
ATOM      7  C   UNL     1       0.994  11.899  20.785  0.00  0.00    +0.000 C 
ATOM      8  C   UNL     1      -0.441  12.226  20.318  0.00  0.00    +0.000 C 
ENDROOT
BRANCH   8   9
ATOM      9  C   UNL     1      -1.349  12.630  21.469  0.00  0.00    +0.000 A 
ATOM     10  C   UNL     1      -0.858  13.369  22.562  0.00  0.00    +0.000 A 
ATOM     11  C   UNL     1      -1.673  13.764  23.604  0.00  0.00    +0.000 A 
ATOM     12  C   UNL     1      -3.020  13.437  23.596  0.00  0.00    +0.000 A 
ATOM     13  C   UNL     1      -3.857  13.847  24.763  0.00  0.00    +0.000 C 
ATOM     14  C   UNL     1      -3.540  12.716  22.513  0.00  0.00    +0.000 A 
ATOM     15  C   UNL     1      -2.718  12.328  21.451  0.00  0.00    +0.000 A 
ENDBRANCH   8   9
BRANCH   5  16
ATOM     16  N   UNL     1       1.175   8.916  19.561  0.00  0.00    +0.000 N 
ATOM     17  C   UNL     1       1.814   7.728  19.456  0.00  0.00    +0.000 A 
ATOM     18  C   UNL     1       2.427   7.780  18.248  0.00  0.00    +0.000 A 
ATOM     19  N   UNL     1       2.194   8.987  17.656  0.00  0.00    +0.000 NA
ATOM     20  N   UNL     1       1.400   9.673  18.469  0.00  0.00    +0.000 NA
BRANCH  18  21
ATOM     21  C   UNL     1       3.239   6.714  17.710  0.00  0.00    +0.000 A 
ATOM     22  C   UNL     1       4.367   7.034  16.930  0.00  0.00    +0.000 A 
ATOM     23  C   UNL     1       5.156   6.013  16.402  0.00  0.00    +0.000 A 
ATOM     24  C   UNL     1       4.811   4.694  16.644  0.00  0.00    +0.000 A 
ATOM     25  F   UNL     1       5.578   3.715  16.154  0.00  0.00    +0.000 F 
ATOM     26  C   UNL     1       3.677   4.366  17.388  0.00  0.00    +0.000 A 
ATOM     27  C   UNL     1       2.889   5.387  17.921  0.00  0.00    +0.000 A 
ENDBRANCH  18  21
ENDBRANCH   5  16
BRANCH   6  28
ATOM     28  O   UNL     1       0.806  10.506  22.808  0.00  0.00    +0.000 OA
ATOM     29  H   UNL     1       0.625  11.418  23.097  0.00  0.00    +0.000 HD
ENDBRANCH   6  28
BRANCH   1  30
ATOM     30  C   UNL     1      -1.543  10.058  17.338  0.00  0.00    +0.000 C 
BRANCH  30  31
ATOM     31  C   UNL     1      -3.019   9.817  17.162  0.00  0.00    +0.000 C 
BRANCH  31  32
ATOM     32  C   UNL     1      -3.577  10.610  15.981  0.00  0.00    +0.000 C 
BRANCH  32  34
ATOM     33  C   UNL     1      -3.977   9.955  13.584  0.00  0.00    +0.000 C 
ATOM     34  C   UNL     1      -2.933  10.168  14.669  0.00  0.00    +0.000 C 
ENDBRANCH  32  34
ENDBRANCH  31  32
ENDBRANCH  30  31
ENDBRANCH   1  30
TORSDOF 8
ENDMDL
MODEL 2
REMARK VINA RESULT:      -7.9      0.551      1.311
REMARK  Name = 
REMARK  10 active torsions:
REMARK  status: ('A' for Active; 'I' for Inactive)
REMARK    1  A    between atoms: C_1  and  C_2
REMARK    2  A    between atoms: C_2  and  C_3
REMARK    3  A    between atoms: C_3  and  C_4
REMARK    4  A    between atoms: C_4  and  C_5
REMARK    5  A    between atoms: C_5  and  C_6
REMARK    6  A    between atoms: C_10  and  N_11
REMARK    7  A    between atoms: C_13  and  C_14
REMARK    8  A    between atoms: C_23  and  O_24
REMARK    9  A    between atoms: C_26  and  C_27
REMARK   10  A    between atoms: C_30  and  C_31
REMARK                            x       y       z     vdW  Elec       q    Type
REMARK                         _______ _______ _______ _____ _____    ______ ____
ROOT
ATOM      1  C   UNL     1      -1.170  11.302  18.114  0.00  0.00    +0.000 C 
ATOM      2  O   UNL     1      -1.144  12.417  17.614  0.00  0.00    +0.000 OA
ATOM      3  N   UNL     1      -0.960  11.087  19.481  0.00  0.00    +0.000 N 
ATOM      4  C   UNL     1      -0.992   9.757  20.095  0.00  0.00    +0.000 C 
ATOM      5  C   UNL     1       0.379   9.372  20.652  0.00  0.00    +0.000 C 
ATOM      6  C   UNL     1       1.125  10.477  21.428  0.00  0.00    +0.000 C 
ATOM      7  C   UNL     1       0.977  11.873  20.809  0.00  0.00    +0.000 C 
ATOM      8  C   UNL     1      -0.447  12.196  20.311  0.00  0.00    +0.000 C 
ENDROOT
BRANCH   8   9
ATOM      9  C   UNL     1      -1.387  12.578  21.445  0.00  0.00    +0.000 A 
ATOM     10  C   UNL     1      -0.911  13.226  22.600  0.00  0.00    +0.000 A 
ATOM     11  C   UNL     1      -1.752  13.601  23.629  0.00  0.00    +0.000 A 
ATOM     12  C   UNL     1      -3.112  13.344  23.544  0.00  0.00    +0.000 A 
ATOM     13  C   UNL     1      -3.981  13.728  24.697  0.00  0.00    +0.000 C 
ATOM     14  C   UNL     1      -3.616  12.715  22.398  0.00  0.00    +0.000 A 
ATOM     15  C   UNL     1      -2.766  12.348  21.351  0.00  0.00    +0.000 A 
ENDBRANCH   8   9
BRANCH   5  16
ATOM     16  N   UNL     1       1.212   8.908  19.551  0.00  0.00    +0.000 N 
ATOM     17  C   UNL     1       1.807   7.701  19.415  0.00  0.00    +0.000 A 
ATOM     18  C   UNL     1       2.476   7.785  18.240  0.00  0.00    +0.000 A 
ATOM     19  N   UNL     1       2.319   9.027  17.699  0.00  0.00    +0.000 NA
ATOM     20  N   UNL     1       1.516   9.706  18.509  0.00  0.00    +0.000 NA
BRANCH  18  21
ATOM     21  C   UNL     1       3.269   6.712  17.686  0.00  0.00    +0.000 A 
ATOM     22  C   UNL     1       2.866   5.379  17.893  0.00  0.00    +0.000 A 
ATOM     23  C   UNL     1       3.625   4.336  17.367  0.00  0.00    +0.000 A 
ATOM     24  C   UNL     1       4.777   4.627  16.655  0.00  0.00    +0.000 A 
ATOM     25  F   UNL     1       5.496   3.628  16.133  0.00  0.00    +0.000 F 
ATOM     26  C   UNL     1       5.203   5.943  16.472  0.00  0.00    +0.000 A 
ATOM     27  C   UNL     1       4.441   6.988  16.995  0.00  0.00    +0.000 A 
ENDBRANCH  18  21
ENDBRANCH   5  16
BRANCH   6  28
ATOM     28  O   UNL     1       0.751  10.452  22.809  0.00  0.00    +0.000 OA
ATOM     29  H   UNL     1       0.429  11.333  23.070  0.00  0.00    +0.000 HD
ENDBRANCH   6  28
BRANCH   1  30
ATOM     30  C   UNL     1      -1.460  10.060  17.277  0.00  0.00    +0.000 C 
BRANCH  30  31
ATOM     31  C   UNL     1      -2.928   9.745  17.159  0.00  0.00    +0.000 C 
BRANCH  31  32
ATOM     32  C   UNL     1      -3.605  10.624  16.109  0.00  0.00    +0.000 C 
BRANCH  32  34
ATOM     33  C   UNL     1      -4.835  11.215  18.224  0.00  0.00    +0.000 C 
ATOM     34  C   UNL     1      -4.670  11.516  16.743  0.00  0.00    +0.000 C 
ENDBRANCH  32  34
ENDBRANCH  31  32
ENDBRANCH  30  31
ENDBRANCH   1  30
TORSDOF 8
ENDMDL
MODEL 3
REMARK VINA RESULT:      -7.3      1.668      2.273
REMARK  Name = 
REMARK  10 active torsions:
REMARK  status: ('A' for Active; 'I' for Inactive)
REMARK    1  A    between atoms: C_1  and  C_2
REMARK    2  A    between atoms: C_2  and  C_3
REMARK    3  A    between atoms: C_3  and  C_4
REMARK    4  A    between atoms: C_4  and  C_5
REMARK    5  A    between atoms: C_5  and  C_6
REMARK    6  A    between atoms: C_10  and  N_11
REMARK    7  A    between atoms: C_13  and  C_14
REMARK    8  A    between atoms: C_23  and  O_24
REMARK    9  A    between atoms: C_26  and  C_27
REMARK   10  A    between atoms: C_30  and  C_31
REMARK                            x       y       z     vdW  Elec       q    Type
REMARK                         _______ _______ _______ _____ _____    ______ ____
ROOT
ATOM      1  C   UNL     1      -1.632  11.327  17.641  0.00  0.00    +0.000 C 
ATOM      2  O   UNL     1      -1.870  12.095  16.720  0.00  0.00    +0.000 OA
ATOM      3  N   UNL     1      -1.088  11.757  18.856  0.00  0.00    +0.000 N 
ATOM      4  C   UNL     1      -0.801  10.849  19.969  0.00  0.00    +0.000 C 
ATOM      5  C   UNL     1       0.699  10.782  20.255  0.00  0.00    +0.000 C 
ATOM      6  C   UNL     1       1.447  12.130  20.249  0.00  0.00    +0.000 C 
ATOM      7  C   UNL     1       0.977  13.092  19.150  0.00  0.00    +0.000 C 
ATOM      8  C   UNL     1      -0.553  13.130  18.957  0.00  0.00    +0.000 C 
ENDROOT
BRANCH   8   9
ATOM      9  C   UNL     1      -1.252  13.968  20.017  0.00  0.00    +0.000 A 
ATOM     10  C   UNL     1      -2.447  13.533  20.621  0.00  0.00    +0.000 A 
ATOM     11  C   UNL     1      -3.084  14.269  21.600  0.00  0.00    +0.000 A 
ATOM     12  C   UNL     1      -2.548  15.476  22.021  0.00  0.00    +0.000 A 
ATOM     13  C   UNL     1      -3.289  16.262  23.052  0.00  0.00    +0.000 C 
ATOM     14  C   UNL     1      -1.350  15.927  21.449  0.00  0.00    +0.000 A 
ATOM     15  C   UNL     1      -0.699  15.174  20.468  0.00  0.00    +0.000 A 
ENDBRANCH   8   9
BRANCH   5  16
ATOM     16  N   UNL     1       1.314   9.883  19.287  0.00  0.00    +0.000 N 
ATOM     17  C   UNL     1       1.654   8.585  19.461  0.00  0.00    +0.000 A 
ATOM     18  C   UNL     1       2.204   8.219  18.279  0.00  0.00    +0.000 A 
ATOM     19  N   UNL     1       2.230   9.282  17.424  0.00  0.00    +0.000 NA
ATOM     20  N   UNL     1       1.656  10.301  18.052  0.00  0.00    +0.000 NA
BRANCH  18  21
ATOM     21  C   UNL     1       2.721   6.898  18.005  0.00  0.00    +0.000 A 
ATOM     22  C   UNL     1       1.890   5.778  18.206  0.00  0.00    +0.000 A 
ATOM     23  C   UNL     1       2.380   4.499  17.949  0.00  0.00    +0.000 A 
ATOM     24  C   UNL     1       3.684   4.346  17.510  0.00  0.00    +0.000 A 
ATOM     25  F   UNL     1       4.148   3.120  17.245  0.00  0.00    +0.000 F 
ATOM     26  C   UNL     1       4.525   5.446  17.339  0.00  0.00    +0.000 A 
ATOM     27  C   UNL     1       4.035   6.728  17.592  0.00  0.00    +0.000 A 
ENDBRANCH  18  21
ENDBRANCH   5  16
BRANCH   6  28
ATOM     28  O   UNL     1       1.405  12.727  21.549  0.00  0.00    +0.000 OA
ATOM     29  H   UNL     1       2.265  13.142  21.740  0.00  0.00    +0.000 HD
ENDBRANCH   6  28
BRANCH   1  30
ATOM     30  C   UNL     1      -1.936   9.836  17.533  0.00  0.00    +0.000 C 
BRANCH  30  31
ATOM     31  C   UNL     1      -3.388   9.537  17.269  0.00  0.00    +0.000 C 
BRANCH  31  32
ATOM     32  C   UNL     1      -4.303  10.396  18.141  0.00  0.00    +0.000 C 
BRANCH  32  34
ATOM     33  C   UNL     1      -6.191  12.059  18.146  0.00  0.00    +0.000 C 
ATOM     34  C   UNL     1      -5.236  11.249  17.285  0.00  0.00    +0.000 C 
ENDBRANCH  32  34
ENDBRANCH  31  32
ENDBRANCH  30  31
ENDBRANCH   1  30
TORSDOF 8
ENDMDL
MODEL 4
REMARK VINA RESULT:      -7.3      3.068      4.484
REMARK  Name = 
REMARK  10 active torsions:
REMARK  status: ('A' for Active; 'I' for Inactive)
REMARK    1  A    between atoms: C_1  and  C_2
REMARK    2  A    between atoms: C_2  and  C_3
REMARK    3  A    between atoms: C_3  and  C_4
REMARK    4  A    between atoms: C_4  and  C_5
REMARK    5  A    between atoms: C_5  and  C_6
REMARK    6  A    between atoms: C_10  and  N_11
REMARK    7  A    between atoms: C_13  and  C_14
REMARK    8  A    between atoms: C_23  and  O_24
REMARK    9  A    between atoms: C_26  and  C_27
REMARK   10  A    between atoms: C_30  and  C_31
REMARK                            x       y       z     vdW  Elec       q    Type
REMARK                         _______ _______ _______ _____ _____    ______ ____
ROOT
ATOM      1  C   UNL     1      -0.118  14.356  20.275  0.00  0.00    +0.000 C 
ATOM      2  O   UNL     1       0.563  15.301  20.644  0.00  0.00    +0.000 OA
ATOM      3  N   UNL     1      -1.261  13.939  20.966  0.00  0.00    +0.000 N 
ATOM      4  C   UNL     1      -2.089  12.810  20.535  0.00  0.00    +0.000 C 
ATOM      5  C   UNL     1      -2.048  11.673  21.557  0.00  0.00    +0.000 C 
ATOM      6  C   UNL     1      -2.163  12.092  23.036  0.00  0.00    +0.000 C 
ATOM      7  C   UNL     1      -1.397  13.377  23.375  0.00  0.00    +0.000 C 
ATOM      8  C   UNL     1      -1.527  14.488  22.312  0.00  0.00    +0.000 C 
ENDROOT
BRANCH   8   9
ATOM      9  C   UNL     1      -2.851  15.230  22.404  0.00  0.00    +0.000 A 
ATOM     10  C   UNL     1      -3.440  15.520  23.650  0.00  0.00    +0.000 A 
ATOM     11  C   UNL     1      -4.630  16.213  23.754  0.00  0.00    +0.000 A 
ATOM     12  C   UNL     1      -5.283  16.649  22.612  0.00  0.00    +0.000 A 
ATOM     13  C   UNL     1      -6.589  17.357  22.766  0.00  0.00    +0.000 C 
ATOM     14  C   UNL     1      -4.712  16.388  21.359  0.00  0.00    +0.000 A 
ATOM     15  C   UNL     1      -3.500  15.700  21.254  0.00  0.00    +0.000 A 
ENDBRANCH   8   9
BRANCH   5  16
ATOM     16  N   UNL     1      -0.816  10.920  21.362  0.00  0.00    +0.000 N 
ATOM     17  C   UNL     1      -0.490  10.120  20.320  0.00  0.00    +0.000 A 
ATOM     18  C   UNL     1       0.740   9.646  20.631  0.00  0.00    +0.000 A 
ATOM     19  N   UNL     1       1.131  10.119  21.850  0.00  0.00    +0.000 NA
ATOM     20  N   UNL     1       0.168  10.923  22.282  0.00  0.00    +0.000 NA
BRANCH  18  21
ATOM     21  C   UNL     1       1.488   8.737  19.794  0.00  0.00    +0.000 A 
ATOM     22  C   UNL     1       1.767   9.098  18.462  0.00  0.00    +0.000 A 
ATOM     23  C   UNL     1       2.485   8.227  17.644  0.00  0.00    +0.000 A 
ATOM     24  C   UNL     1       2.904   7.009  18.153  0.00  0.00    +0.000 A 
ATOM     25  F   UNL     1       3.610   6.181  17.374  0.00  0.00    +0.000 F 
ATOM     26  C   UNL     1       2.605   6.628  19.461  0.00  0.00    +0.000 A 
ATOM     27  C   UNL     1       1.891   7.501  20.282  0.00  0.00    +0.000 A 
ENDBRANCH  18  21
ENDBRANCH   5  16
BRANCH   6  28
ATOM     28  O   UNL     1      -3.538  12.159  23.427  0.00  0.00    +0.000 OA
ATOM     29  H   UNL     1      -3.722  11.457  24.076  0.00  0.00    +0.000 HD
ENDBRANCH   6  28
BRANCH   1  30
ATOM     30  C   UNL     1       0.224  13.572  19.012  0.00  0.00    +0.000 C 
BRANCH  30  31
ATOM     31  C   UNL     1       1.514  12.801  19.113  0.00  0.00    +0.000 C 
BRANCH  31  32
ATOM     32  C   UNL     1       2.485  13.190  18.000  0.00  0.00    +0.000 C 
BRANCH  32  34
ATOM     33  C   UNL     1       3.357  15.511  17.571  0.00  0.00    +0.000 C 
ATOM     34  C   UNL     1       3.443  14.285  18.464  0.00  0.00    +0.000 C 
ENDBRANCH  32  34
ENDBRANCH  31  32
ENDBRANCH  30  31
ENDBRANCH   1  30
TORSDOF 8
ENDMDL
MODEL 5
REMARK VINA RESULT:      -7.2      1.548      1.857
REMARK  Name = 
REMARK  10 active torsions:
REMARK  status: ('A' for Active; 'I' for Inactive)
REMARK    1  A    between atoms: C_1  and  C_2
REMARK    2  A    between atoms: C_2  and  C_3
REMARK    3  A    between atoms: C_3  and  C_4
REMARK    4  A    between atoms: C_4  and  C_5
REMARK    5  A    between atoms: C_5  and  C_6
REMARK    6  A    between atoms: C_10  and  N_11
REMARK    7  A    between atoms: C_13  and  C_14
REMARK    8  A    between atoms: C_23  and  O_24
REMARK    9  A    between atoms: C_26  and  C_27
REMARK   10  A    between atoms: C_30  and  C_31
REMARK                            x       y       z     vdW  Elec       q    Type
REMARK                         _______ _______ _______ _____ _____    ______ ____
ROOT
ATOM      1  C   UNL     1      -1.717  11.502  17.861  0.00  0.00    +0.000 C 
ATOM      2  O   UNL     1      -2.013  12.262  16.951  0.00  0.00    +0.000 OA
ATOM      3  N   UNL     1      -1.143  11.951  19.056  0.00  0.00    +0.000 N 
ATOM      4  C   UNL     1      -0.786  11.053  20.157  0.00  0.00    +0.000 C 
ATOM      5  C   UNL     1       0.726  11.035  20.388  0.00  0.00    +0.000 C 
ATOM      6  C   UNL     1       1.428  12.408  20.355  0.00  0.00    +0.000 C 
ATOM      7  C   UNL     1       0.887  13.353  19.275  0.00  0.00    +0.000 C 
ATOM      8  C   UNL     1      -0.651  13.341  19.139  0.00  0.00    +0.000 C 
ENDROOT
BRANCH   8   9
ATOM      9  C   UNL     1      -1.338  14.156  20.224  0.00  0.00    +0.000 A 
ATOM     10  C   UNL     1      -0.798  15.377  20.671  0.00  0.00    +0.000 A 
ATOM     11  C   UNL     1      -1.419  16.141  21.639  0.00  0.00    +0.000 A 
ATOM     12  C   UNL     1      -2.613  15.716  22.200  0.00  0.00    +0.000 A 
ATOM     13  C   UNL     1      -3.230  16.551  23.274  0.00  0.00    +0.000 C 
ATOM     14  C   UNL     1      -3.182  14.513  21.763  0.00  0.00    +0.000 A 
ATOM     15  C   UNL     1      -2.560  13.746  20.773  0.00  0.00    +0.000 A 
ENDBRANCH   8   9
BRANCH   5  16
ATOM     16  N   UNL     1       1.333  10.157  19.397  0.00  0.00    +0.000 N 
ATOM     17  C   UNL     1       1.615   8.839  19.520  0.00  0.00    +0.000 A 
ATOM     18  C   UNL     1       2.187   8.505  18.339  0.00  0.00    +0.000 A 
ATOM     19  N   UNL     1       2.283   9.604  17.536  0.00  0.00    +0.000 NA
ATOM     20  N   UNL     1       1.732  10.616  18.194  0.00  0.00    +0.000 NA
BRANCH  18  21
ATOM     21  C   UNL     1       2.657   7.177  18.019  0.00  0.00    +0.000 A 
ATOM     22  C   UNL     1       1.820   6.071  18.265  0.00  0.00    +0.000 A 
ATOM     23  C   UNL     1       2.266   4.785  17.964  0.00  0.00    +0.000 A 
ATOM     24  C   UNL     1       3.535   4.613  17.436  0.00  0.00    +0.000 A 
ATOM     25  F   UNL     1       3.955   3.381  17.129  0.00  0.00    +0.000 F 
ATOM     26  C   UNL     1       4.384   5.698  17.219  0.00  0.00    +0.000 A 
ATOM     27  C   UNL     1       3.937   6.986  17.516  0.00  0.00    +0.000 A 
ENDBRANCH  18  21
ENDBRANCH   5  16
BRANCH   6  28
ATOM     28  O   UNL     1       1.414  13.003  21.656  0.00  0.00    +0.000 OA
ATOM     29  H   UNL     1       0.566  12.804  22.091  0.00  0.00    +0.000 HD
ENDBRANCH   6  28
BRANCH   1  30
ATOM     30  C   UNL     1      -1.975  10.002  17.764  0.00  0.00    +0.000 C 
BRANCH  30  31
ATOM     31  C   UNL     1      -3.258   9.658  17.053  0.00  0.00    +0.000 C 
BRANCH  31  32
ATOM     32  C   UNL     1      -3.003   9.276  15.596  0.00  0.00    +0.000 C 
BRANCH  32  34
ATOM     33  C   UNL     1      -3.958   9.867  13.344  0.00  0.00    +0.000 C 
ATOM     34  C   UNL     1      -3.406  10.408  14.653  0.00  0.00    +0.000 C 
ENDBRANCH  32  34
ENDBRANCH  31  32
ENDBRANCH  30  31
ENDBRANCH   1  30
TORSDOF 8
ENDMDL
MODEL 6
REMARK VINA RESULT:      -7.1      1.499      1.781
REMARK  Name = 
REMARK  10 active torsions:
REMARK  status: ('A' for Active; 'I' for Inactive)
REMARK    1  A    between atoms: C_1  and  C_2
REMARK    2  A    between atoms: C_2  and  C_3
REMARK    3  A    between atoms: C_3  and  C_4
REMARK    4  A    between atoms: C_4  and  C_5
REMARK    5  A    between atoms: C_5  and  C_6
REMARK    6  A    between atoms: C_10  and  N_11
REMARK    7  A    between atoms: C_13  and  C_14
REMARK    8  A    between atoms: C_23  and  O_24
REMARK    9  A    between atoms: C_26  and  C_27
REMARK   10  A    between atoms: C_30  and  C_31
REMARK                            x       y       z     vdW  Elec       q    Type
REMARK                         _______ _______ _______ _____ _____    ______ ____
ROOT
ATOM      1  C   UNL     1      -1.831  11.446  17.969  0.00  0.00    +0.000 C 
ATOM      2  O   UNL     1      -2.156  12.196  17.060  0.00  0.00    +0.000 OA
ATOM      3  N   UNL     1      -1.226  11.908  19.143  0.00  0.00    +0.000 N 
ATOM      4  C   UNL     1      -0.834  11.023  20.243  0.00  0.00    +0.000 C 
ATOM      5  C   UNL     1       0.683  11.013  20.430  0.00  0.00    +0.000 C 
ATOM      6  C   UNL     1       1.379  12.388  20.366  0.00  0.00    +0.000 C 
ATOM      7  C   UNL     1       0.803  13.321  19.292  0.00  0.00    +0.000 C 
ATOM      8  C   UNL     1      -0.737  13.301  19.199  0.00  0.00    +0.000 C 
ENDROOT
BRANCH   8   9
ATOM      9  C   UNL     1      -1.397  14.123  20.295  0.00  0.00    +0.000 A 
ATOM     10  C   UNL     1      -2.544  13.659  20.967  0.00  0.00    +0.000 A 
ATOM     11  C   UNL     1      -3.143  14.381  21.979  0.00  0.00    +0.000 A 
ATOM     12  C   UNL     1      -2.616  15.603  22.367  0.00  0.00    +0.000 A 
ATOM     13  C   UNL     1      -3.318  16.372  23.438  0.00  0.00    +0.000 C 
ATOM     14  C   UNL     1      -1.465  16.083  21.728  0.00  0.00    +0.000 A 
ATOM     15  C   UNL     1      -0.851  15.345  20.712  0.00  0.00    +0.000 A 
ENDBRANCH   8   9
BRANCH   5  16
ATOM     16  N   UNL     1       1.267  10.128  19.432  0.00  0.00    +0.000 N 
ATOM     17  C   UNL     1       1.610   8.827  19.577  0.00  0.00    +0.000 A 
ATOM     18  C   UNL     1       2.123   8.477  18.373  0.00  0.00    +0.000 A 
ATOM     19  N   UNL     1       2.126   9.553  17.533  0.00  0.00    +0.000 NA
ATOM     20  N   UNL     1       1.573  10.562  18.193  0.00  0.00    +0.000 NA
BRANCH  18  21
ATOM     21  C   UNL     1       2.629   7.160  18.065  0.00  0.00    +0.000 A 
ATOM     22  C   UNL     1       3.916   7.029  17.505  0.00  0.00    +0.000 A 
ATOM     23  C   UNL     1       4.413   5.763  17.201  0.00  0.00    +0.000 A 
ATOM     24  C   UNL     1       3.626   4.649  17.443  0.00  0.00    +0.000 A 
ATOM     25  F   UNL     1       4.110   3.433  17.168  0.00  0.00    +0.000 F 
ATOM     26  C   UNL     1       2.339   4.769  17.967  0.00  0.00    +0.000 A 
ATOM     27  C   UNL     1       1.842   6.036  18.276  0.00  0.00    +0.000 A 
ENDBRANCH  18  21
ENDBRANCH   5  16
BRANCH   6  28
ATOM     28  O   UNL     1       1.398  12.995  21.661  0.00  0.00    +0.000 OA
ATOM     29  H   UNL     1       1.354  13.963  21.562  0.00  0.00    +0.000 HD
ENDBRANCH   6  28
BRANCH   1  30
ATOM     30  C   UNL     1      -2.085   9.944  17.893  0.00  0.00    +0.000 C 
BRANCH  30  31
ATOM     31  C   UNL     1      -1.986   9.388  16.497  0.00  0.00    +0.000 C 
BRANCH  31  32
ATOM     32  C   UNL     1      -3.284   9.597  15.719  0.00  0.00    +0.000 C 
BRANCH  32  34
ATOM     33  C   UNL     1      -4.140   9.864  13.368  0.00  0.00    +0.000 C 
ATOM     34  C   UNL     1      -3.008  10.174  14.333  0.00  0.00    +0.000 C 
ENDBRANCH  32  34
ENDBRANCH  31  32
ENDBRANCH  30  31
ENDBRANCH   1  30
TORSDOF 8
ENDMDL
MODEL 7
REMARK VINA RESULT:      -7.1      3.132      4.867
REMARK  Name = 
REMARK  10 active torsions:
REMARK  status: ('A' for Active; 'I' for Inactive)
REMARK    1  A    between atoms: C_1  and  C_2
REMARK    2  A    between atoms: C_2  and  C_3
REMARK    3  A    between atoms: C_3  and  C_4
REMARK    4  A    between atoms: C_4  and  C_5
REMARK    5  A    between atoms: C_5  and  C_6
REMARK    6  A    between atoms: C_10  and  N_11
REMARK    7  A    between atoms: C_13  and  C_14
REMARK    8  A    between atoms: C_23  and  O_24
REMARK    9  A    between atoms: C_26  and  C_27
REMARK   10  A    between atoms: C_30  and  C_31
REMARK                            x       y       z     vdW  Elec       q    Type
REMARK                         _______ _______ _______ _____ _____    ______ ____
ROOT
ATOM      1  C   UNL     1       0.066  14.722  20.981  0.00  0.00    +0.000 C 
ATOM      2  O   UNL     1       0.743  15.541  21.585  0.00  0.00    +0.000 OA
ATOM      3  N   UNL     1      -1.172  14.274  21.457  0.00  0.00    +0.000 N 
ATOM      4  C   UNL     1      -1.996  13.297  20.743  0.00  0.00    +0.000 C 
ATOM      5  C   UNL     1      -2.136  12.001  21.544  0.00  0.00    +0.000 C 
ATOM      6  C   UNL     1      -2.408  12.169  23.053  0.00  0.00    +0.000 C 
ATOM      7  C   UNL     1      -1.625  13.320  23.697  0.00  0.00    +0.000 C 
ATOM      8  C   UNL     1      -1.570  14.603  22.841  0.00  0.00    +0.000 C 
ENDROOT
BRANCH   8   9
ATOM      9  C   UNL     1      -2.857  15.409  22.917  0.00  0.00    +0.000 A 
ATOM     10  C   UNL     1      -3.584  15.511  24.119  0.00  0.00    +0.000 A 
ATOM     11  C   UNL     1      -4.742  16.257  24.213  0.00  0.00    +0.000 A 
ATOM     12  C   UNL     1      -5.223  16.938  23.106  0.00  0.00    +0.000 A 
ATOM     13  C   UNL     1      -6.501  17.698  23.239  0.00  0.00    +0.000 C 
ATOM     14  C   UNL     1      -4.511  16.868  21.901  0.00  0.00    +0.000 A 
ATOM     15  C   UNL     1      -3.332  16.124  21.809  0.00  0.00    +0.000 A 
ENDBRANCH   8   9
BRANCH   5  16
ATOM     16  N   UNL     1      -0.929  11.209  21.355  0.00  0.00    +0.000 N 
ATOM     17  C   UNL     1      -0.610  10.423  20.300  0.00  0.00    +0.000 A 
ATOM     18  C   UNL     1       0.595   9.896  20.623  0.00  0.00    +0.000 A 
ATOM     19  N   UNL     1       0.977  10.324  21.862  0.00  0.00    +0.000 NA
ATOM     20  N   UNL     1       0.035  11.153  22.295  0.00  0.00    +0.000 NA
BRANCH  18  21
ATOM     21  C   UNL     1       1.327   8.981  19.779  0.00  0.00    +0.000 A 
ATOM     22  C   UNL     1       1.775   7.758  20.315  0.00  0.00    +0.000 A 
ATOM     23  C   UNL     1       2.486   6.869  19.510  0.00  0.00    +0.000 A 
ATOM     24  C   UNL     1       2.752   7.208  18.194  0.00  0.00    +0.000 A 
ATOM     25  F   UNL     1       3.417   6.347  17.416  0.00  0.00    +0.000 F 
ATOM     26  C   UNL     1       2.340   8.431  17.663  0.00  0.00    +0.000 A 
ATOM     27  C   UNL     1       1.625   9.320  18.466  0.00  0.00    +0.000 A 
ENDBRANCH  18  21
ENDBRANCH   5  16
BRANCH   6  28
ATOM     28  O   UNL     1      -3.815  12.264  23.295  0.00  0.00    +0.000 OA
ATOM     29  H   UNL     1      -4.084  13.199  23.257  0.00  0.00    +0.000 HD
ENDBRANCH   6  28
BRANCH   1  30
ATOM     30  C   UNL     1       0.518  14.144  19.643  0.00  0.00    +0.000 C 
BRANCH  30  31
ATOM     31  C   UNL     1       1.759  13.296  19.744  0.00  0.00    +0.000 C 
BRANCH  31  32
ATOM     32  C   UNL     1       2.988  14.042  19.227  0.00  0.00    +0.000 C 
BRANCH  32  34
ATOM     33  C   UNL     1       3.669  15.601  17.372  0.00  0.00    +0.000 C 
ATOM     34  C   UNL     1       2.584  15.243  18.375  0.00  0.00    +0.000 C 
ENDBRANCH  32  34
ENDBRANCH  31  32
ENDBRANCH  30  31
ENDBRANCH   1  30
TORSDOF 8
ENDMDL
MODEL 8
REMARK VINA RESULT:      -7.1      2.419      3.447
REMARK  Name = 
REMARK  10 active torsions:
REMARK  status: ('A' for Active; 'I' for Inactive)
REMARK    1  A    between atoms: C_1  and  C_2
REMARK    2  A    between atoms: C_2  and  C_3
REMARK    3  A    between atoms: C_3  and  C_4
REMARK    4  A    between atoms: C_4  and  C_5
REMARK    5  A    between atoms: C_5  and  C_6
REMARK    6  A    between atoms: C_10  and  N_11
REMARK    7  A    between atoms: C_13  and  C_14
REMARK    8  A    between atoms: C_23  and  O_24
REMARK    9  A    between atoms: C_26  and  C_27
REMARK   10  A    between atoms: C_30  and  C_31
REMARK                            x       y       z     vdW  Elec       q    Type
REMARK                         _______ _______ _______ _____ _____    ______ ____
ROOT
ATOM      1  C   UNL     1      -0.839  13.054  19.007  0.00  0.00    +0.000 C 
ATOM      2  O   UNL     1      -0.181  13.951  18.501  0.00  0.00    +0.000 OA
ATOM      3  N   UNL     1      -1.532  13.218  20.212  0.00  0.00    +0.000 N 
ATOM      4  C   UNL     1      -2.327  12.154  20.828  0.00  0.00    +0.000 C 
ATOM      5  C   UNL     1      -1.731  11.724  22.170  0.00  0.00    +0.000 C 
ATOM      6  C   UNL     1      -1.264  12.866  23.095  0.00  0.00    +0.000 C 
ATOM      7  C   UNL     1      -0.580  14.022  22.354  0.00  0.00    +0.000 C 
ATOM      8  C   UNL     1      -1.271  14.419  21.032  0.00  0.00    +0.000 C 
ENDROOT
BRANCH   8   9
ATOM      9  C   UNL     1      -2.511  15.271  21.256  0.00  0.00    +0.000 A 
ATOM     10  C   UNL     1      -2.453  16.460  22.007  0.00  0.00    +0.000 A 
ATOM     11  C   UNL     1      -3.563  17.258  22.202  0.00  0.00    +0.000 A 
ATOM     12  C   UNL     1      -4.782  16.899  21.650  0.00  0.00    +0.000 A 
ATOM     13  C   UNL     1      -5.968  17.767  21.921  0.00  0.00    +0.000 C 
ATOM     14  C   UNL     1      -4.866  15.729  20.884  0.00  0.00    +0.000 A 
ATOM     15  C   UNL     1      -3.739  14.929  20.675  0.00  0.00    +0.000 A 
ENDBRANCH   8   9
BRANCH   5  16
ATOM     16  N   UNL     1      -0.617  10.822  21.913  0.00  0.00    +0.000 N 
ATOM     17  C   UNL     1      -0.383  10.091  20.799  0.00  0.00    +0.000 A 
ATOM     18  C   UNL     1       0.757   9.413  21.074  0.00  0.00    +0.000 A 
ATOM     19  N   UNL     1       1.180   9.700  22.339  0.00  0.00    +0.000 NA
ATOM     20  N   UNL     1       0.333  10.590  22.840  0.00  0.00    +0.000 NA
BRANCH  18  21
ATOM     21  C   UNL     1       1.388   8.492  20.157  0.00  0.00    +0.000 A 
ATOM     22  C   UNL     1       1.739   7.204  20.607  0.00  0.00    +0.000 A 
ATOM     23  C   UNL     1       2.352   6.308  19.732  0.00  0.00    +0.000 A 
ATOM     24  C   UNL     1       2.617   6.704  18.431  0.00  0.00    +0.000 A 
ATOM     25  F   UNL     1       3.187   5.838  17.586  0.00  0.00    +0.000 F 
ATOM     26  C   UNL     1       2.303   7.987  17.985  0.00  0.00    +0.000 A 
ATOM     27  C   UNL     1       1.685   8.884  18.859  0.00  0.00    +0.000 A 
ENDBRANCH  18  21
ENDBRANCH   5  16
BRANCH   6  28
ATOM     28  O   UNL     1      -2.347  13.312  23.918  0.00  0.00    +0.000 OA
ATOM     29  H   UNL     1      -2.634  14.193  23.620  0.00  0.00    +0.000 HD
ENDBRANCH   6  28
BRANCH   1  30
ATOM     30  C   UNL     1      -0.971  11.688  18.340  0.00  0.00    +0.000 C 
BRANCH  30  31
ATOM     31  C   UNL     1      -2.085  11.618  17.329  0.00  0.00    +0.000 C 
BRANCH  31  32
ATOM     32  C   UNL     1      -2.361  10.177  16.901  0.00  0.00    +0.000 C 
BRANCH  32  34
ATOM     33  C   UNL     1      -2.992  10.146  14.466  0.00  0.00    +0.000 C 
ATOM     34  C   UNL     1      -3.507  10.113  15.895  0.00  0.00    +0.000 C 
ENDBRANCH  32  34
ENDBRANCH  31  32
ENDBRANCH  30  31
ENDBRANCH   1  30
TORSDOF 8
ENDMDL
MODEL 9
REMARK VINA RESULT:      -7.1      2.251      2.845
REMARK  Name = 
REMARK  10 active torsions:
REMARK  status: ('A' for Active; 'I' for Inactive)
REMARK    1  A    between atoms: C_1  and  C_2
REMARK    2  A    between atoms: C_2  and  C_3
REMARK    3  A    between atoms: C_3  and  C_4
REMARK    4  A    between atoms: C_4  and  C_5
REMARK    5  A    between atoms: C_5  and  C_6
REMARK    6  A    between atoms: C_10  and  N_11
REMARK    7  A    between atoms: C_13  and  C_14
REMARK    8  A    between atoms: C_23  and  O_24
REMARK    9  A    between atoms: C_26  and  C_27
REMARK   10  A    between atoms: C_30  and  C_31
REMARK                            x       y       z     vdW  Elec       q    Type
REMARK                         _______ _______ _______ _____ _____    ______ ____
ROOT
ATOM      1  C   UNL     1      -1.589  11.454  17.958  0.00  0.00    +0.000 C 
ATOM      2  O   UNL     1      -1.727  12.025  16.886  0.00  0.00    +0.000 OA
ATOM      3  N   UNL     1      -0.991  12.068  19.064  0.00  0.00    +0.000 N 
ATOM      4  C   UNL     1      -0.822  11.399  20.356  0.00  0.00    +0.000 C 
ATOM      5  C   UNL     1       0.658  11.204  20.689  0.00  0.00    +0.000 C 
ATOM      6  C   UNL     1       1.576  12.411  20.408  0.00  0.00    +0.000 C 
ATOM      7  C   UNL     1       1.233  13.159  19.113  0.00  0.00    +0.000 C 
ATOM      8  C   UNL     1      -0.280  13.350  18.877  0.00  0.00    +0.000 C 
ENDROOT
BRANCH   8   9
ATOM      9  C   UNL     1      -0.860  14.483  19.708  0.00  0.00    +0.000 A 
ATOM     10  C   UNL     1      -0.262  15.758  19.724  0.00  0.00    +0.000 A 
ATOM     11  C   UNL     1      -0.787  16.804  20.455  0.00  0.00    +0.000 A 
ATOM     12  C   UNL     1      -1.940  16.621  21.203  0.00  0.00    +0.000 A 
ATOM     13  C   UNL     1      -2.452  17.767  22.013  0.00  0.00    +0.000 C 
ATOM     14  C   UNL     1      -2.567  15.368  21.193  0.00  0.00    +0.000 A 
ATOM     15  C   UNL     1      -2.042  14.312  20.442  0.00  0.00    +0.000 A 
ENDBRANCH   8   9
BRANCH   5  16
ATOM     16  N   UNL     1       1.146  10.043  19.957  0.00  0.00    +0.000 N 
ATOM     17  C   UNL     1       1.358   8.794  20.432  0.00  0.00    +0.000 A 
ATOM     18  C   UNL     1       1.830   8.103  19.366  0.00  0.00    +0.000 A 
ATOM     19  N   UNL     1       1.938   8.927  18.284  0.00  0.00    +0.000 NA
ATOM     20  N   UNL     1       1.491  10.120  18.657  0.00  0.00    +0.000 NA
BRANCH  18  21
ATOM     21  C   UNL     1       2.201   6.708  19.410  0.00  0.00    +0.000 A 
ATOM     22  C   UNL     1       1.817   5.928  20.519  0.00  0.00    +0.000 A 
ATOM     23  C   UNL     1       2.173   4.581  20.574  0.00  0.00    +0.000 A 
ATOM     24  C   UNL     1       2.911   4.031  19.539  0.00  0.00    +0.000 A 
ATOM     25  F   UNL     1       3.235   2.734  19.582  0.00  0.00    +0.000 F 
ATOM     26  C   UNL     1       3.323   4.803  18.452  0.00  0.00    +0.000 A 
ATOM     27  C   UNL     1       2.964   6.150  18.394  0.00  0.00    +0.000 A 
ENDBRANCH  18  21
ENDBRANCH   5  16
BRANCH   6  28
ATOM     28  O   UNL     1       1.616  13.279  21.544  0.00  0.00    +0.000 OA
ATOM     29  H   UNL     1       2.067  12.826  22.278  0.00  0.00    +0.000 HD
ENDBRANCH   6  28
BRANCH   1  30
ATOM     30  C   UNL     1      -2.086  10.028  18.172  0.00  0.00    +0.000 C 
BRANCH  30  31
ATOM     31  C   UNL     1      -3.389   9.735  17.475  0.00  0.00    +0.000 C 
BRANCH  31  32
ATOM     32  C   UNL     1      -4.543  10.520  18.096  0.00  0.00    +0.000 C 
BRANCH  32  34
ATOM     33  C   UNL     1      -6.389  12.171  17.651  0.00  0.00    +0.000 C 
ATOM     34  C   UNL     1      -5.148  11.497  17.090  0.00  0.00    +0.000 C 
ENDBRANCH  32  34
ENDBRANCH  31  32
ENDBRANCH  30  31
ENDBRANCH   1  30
TORSDOF 8
ENDMDL
