MODEL 1
REMARK VINA RESULT:      -8.6      0.000      0.000
REMARK  Name = 
REMARK  3 active torsions:
REMARK  status: ('A' for Active; 'I' for Inactive)
REMARK    1  A    between atoms: C_1  and  C_2
REMARK    2  A    between atoms: C_5  and  C_6
REMARK    3  A    between atoms: N_8  and  C_9
REMARK                            x       y       z     vdW  Elec       q    Type
REMARK                         _______ _______ _______ _____ _____    ______ ____
ROOT
ATOM      1  C   UNL     1       7.521   7.815  17.966  0.00  0.00    +0.000 A 
ATOM      2  C   UNL     1       8.250   6.777  18.544  0.00  0.00    +0.000 A 
ATOM      3  C   UNL     1       7.658   5.535  18.775  0.00  0.00    +0.000 A 
ATOM      4  C   UNL     1       6.337   5.303  18.453  0.00  0.00    +0.000 A 
ATOM      5  N   UNL     1       5.822   4.085  18.685  0.00  0.00    +0.000 NA
ATOM      6  C   UNL     1       4.531   3.893  18.378  0.00  0.00    +0.000 A 
ATOM      7  C   UNL     1       3.954   2.653  18.622  0.00  0.00    +0.000 A 
ATOM      8  C   UNL     1       2.609   2.412  18.342  0.00  0.00    +0.000 A 
ATOM      9  C   UNL     1       1.835   3.428  17.797  0.00  0.00    +0.000 A 
ATOM     10  C   UNL     1       2.413   4.674  17.538  0.00  0.00    +0.000 A 
ATOM     11  C   UNL     1       3.748   4.932  17.826  0.00  0.00    +0.000 A 
ATOM     12  N   UNL     1       4.271   6.153  17.586  0.00  0.00    +0.000 NA
ATOM     13  C   UNL     1       5.568   6.350  17.901  0.00  0.00    +0.000 A 
ATOM     14  C   UNL     1       6.171   7.593  17.679  0.00  0.00    +0.000 A 
ENDROOT
BRANCH   1  17
ATOM     15  C   UNL     1       8.770   9.878  18.556  0.00  0.00    +0.000 C 
ATOM     16  O   UNL     1       8.966   9.615  19.740  0.00  0.00    +0.000 OA
ATOM     17  N   UNL     1       8.100   9.071  17.646  0.00  0.00    +0.000 N 
ATOM     18  H   UNL     1       8.184   9.303  16.664  0.00  0.00    +0.000 HD
BRANCH  15  23
ATOM     19  C   UNL     1      11.405  14.741  16.836  0.00  0.00    +0.000 C 
ATOM     20  C   UNL     1      10.698  13.482  17.247  0.00  0.00    +0.000 A 
ATOM     21  C   UNL     1      11.431  12.326  17.529  0.00  0.00    +0.000 A 
ATOM     22  C   UNL     1      10.773  11.165  17.929  0.00  0.00    +0.000 A 
ATOM     23  C   UNL     1       9.375  11.134  18.044  0.00  0.00    +0.000 A 
ATOM     24  C   UNL     1       8.634  12.284  17.761  0.00  0.00    +0.000 A 
ATOM     25  C   UNL     1       9.300  13.453  17.364  0.00  0.00    +0.000 A 
ENDBRANCH  15  23
ENDBRANCH   1  17
TORSDOF 2
ENDMDL
MODEL 2
REMARK VINA RESULT:      -8.4      1.726      2.237
REMARK  Name = 
REMARK  3 active torsions:
REMARK  status: ('A' for Active; 'I' for Inactive)
REMARK    1  A    between atoms: C_1  and  C_2
REMARK    2  A    between atoms: C_5  and  C_6
REMARK    3  A    between atoms: N_8  and  C_9
REMARK                            x       y       z     vdW  Elec       q    Type
REMARK                         _______ _______ _______ _____ _____    ______ ____
ROOT
ATOM      1  C   UNL     1       7.245   6.402  18.173  0.00  0.00    +0.000 A 
ATOM      2  C   UNL     1       7.392   5.579  17.058  0.00  0.00    +0.000 A 
ATOM      3  C   UNL     1       6.451   4.589  16.775  0.00  0.00    +0.000 A 
ATOM      4  C   UNL     1       5.360   4.386  17.595  0.00  0.00    +0.000 A 
ATOM      5  N   UNL     1       4.479   3.427  17.270  0.00  0.00    +0.000 NA
ATOM      6  C   UNL     1       3.438   3.241  18.094  0.00  0.00    +0.000 A 
ATOM      7  C   UNL     1       2.514   2.245  17.803  0.00  0.00    +0.000 A 
ATOM      8  C   UNL     1       1.428   1.997  18.643  0.00  0.00    +0.000 A 
ATOM      9  C   UNL     1       1.260   2.770  19.784  0.00  0.00    +0.000 A 
ATOM     10  C   UNL     1       2.179   3.782  20.076  0.00  0.00    +0.000 A 
ATOM     11  C   UNL     1       3.274   4.029  19.255  0.00  0.00    +0.000 A 
ATOM     12  N   UNL     1       4.158   4.999  19.576  0.00  0.00    +0.000 NA
ATOM     13  C   UNL     1       5.209   5.182  18.752  0.00  0.00    +0.000 A 
ATOM     14  C   UNL     1       6.163   6.169  19.027  0.00  0.00    +0.000 A 
ENDROOT
BRANCH   1  17
ATOM     15  C   UNL     1       7.997   8.759  17.965  0.00  0.00    +0.000 C 
ATOM     16  O   UNL     1       7.089   9.154  17.238  0.00  0.00    +0.000 OA
ATOM     17  N   UNL     1       8.137   7.469  18.459  0.00  0.00    +0.000 N 
ATOM     18  H   UNL     1       8.805   7.323  19.206  0.00  0.00    +0.000 HD
BRANCH  15  23
ATOM     19  C   UNL     1      11.573  12.846  19.982  0.00  0.00    +0.000 C 
ATOM     20  C   UNL     1      10.678  11.770  19.437  0.00  0.00    +0.000 A 
ATOM     21  C   UNL     1       9.966  10.942  20.308  0.00  0.00    +0.000 A 
ATOM     22  C   UNL     1       9.121   9.957  19.798  0.00  0.00    +0.000 A 
ATOM     23  C   UNL     1       8.982   9.776  18.414  0.00  0.00    +0.000 A 
ATOM     24  C   UNL     1       9.692  10.598  17.536  0.00  0.00    +0.000 A 
ATOM     25  C   UNL     1      10.537  11.592  18.052  0.00  0.00    +0.000 A 
ENDBRANCH  15  23
ENDBRANCH   1  17
TORSDOF 2
ENDMDL
MODEL 3
REMARK VINA RESULT:      -8.3      1.682      2.158
REMARK  Name = 
REMARK  3 active torsions:
REMARK  status: ('A' for Active; 'I' for Inactive)
REMARK    1  A    between atoms: C_1  and  C_2
REMARK    2  A    between atoms: C_5  and  C_6
REMARK    3  A    between atoms: N_8  and  C_9
REMARK                            x       y       z     vdW  Elec       q    Type
REMARK                         _______ _______ _______ _____ _____    ______ ____
ROOT
ATOM      1  C   UNL     1       7.410   6.621  18.099  0.00  0.00    +0.000 A 
ATOM      2  C   UNL     1       7.457   5.979  16.863  0.00  0.00    +0.000 A 
ATOM      3  C   UNL     1       6.538   4.978  16.546  0.00  0.00    +0.000 A 
ATOM      4  C   UNL     1       5.571   4.585  17.448  0.00  0.00    +0.000 A 
ATOM      5  N   UNL     1       4.705   3.625  17.086  0.00  0.00    +0.000 NA
ATOM      6  C   UNL     1       3.786   3.252  17.989  0.00  0.00    +0.000 A 
ATOM      7  C   UNL     1       2.885   2.248  17.662  0.00  0.00    +0.000 A 
ATOM      8  C   UNL     1       1.927   1.808  18.575  0.00  0.00    +0.000 A 
ATOM      9  C   UNL     1       1.866   2.395  19.832  0.00  0.00    +0.000 A 
ATOM     10  C   UNL     1       2.762   3.415  20.163  0.00  0.00    +0.000 A 
ATOM     11  C   UNL     1       3.731   3.852  19.267  0.00  0.00    +0.000 A 
ATOM     12  N   UNL     1       4.599   4.823  19.625  0.00  0.00    +0.000 NA
ATOM     13  C   UNL     1       5.527   5.194  18.721  0.00  0.00    +0.000 A 
ATOM     14  C   UNL     1       6.457   6.194  19.028  0.00  0.00    +0.000 A 
ENDROOT
BRANCH   1  17
ATOM     15  C   UNL     1       8.081   9.010  18.042  0.00  0.00    +0.000 C 
ATOM     16  O   UNL     1       7.139   9.427  17.372  0.00  0.00    +0.000 OA
ATOM     17  N   UNL     1       8.276   7.694  18.437  0.00  0.00    +0.000 N 
ATOM     18  H   UNL     1       8.971   7.517  19.152  0.00  0.00    +0.000 HD
BRANCH  15  23
ATOM     19  C   UNL     1      12.097  12.843  19.699  0.00  0.00    +0.000 C 
ATOM     20  C   UNL     1      11.028  11.869  19.294  0.00  0.00    +0.000 A 
ATOM     21  C   UNL     1      10.732  11.674  17.943  0.00  0.00    +0.000 A 
ATOM     22  C   UNL     1       9.752  10.755  17.569  0.00  0.00    +0.000 A 
ATOM     23  C   UNL     1       9.046  10.025  18.537  0.00  0.00    +0.000 A 
ATOM     24  C   UNL     1       9.334  10.216  19.891  0.00  0.00    +0.000 A 
ATOM     25  C   UNL     1      10.324  11.138  20.263  0.00  0.00    +0.000 A 
ENDBRANCH  15  23
ENDBRANCH   1  17
TORSDOF 2
ENDMDL
MODEL 4
REMARK VINA RESULT:      -8.3      1.161      1.218
REMARK  Name = 
REMARK  3 active torsions:
REMARK  status: ('A' for Active; 'I' for Inactive)
REMARK    1  A    between atoms: C_1  and  C_2
REMARK    2  A    between atoms: C_5  and  C_6
REMARK    3  A    between atoms: N_8  and  C_9
REMARK                            x       y       z     vdW  Elec       q    Type
REMARK                         _______ _______ _______ _____ _____    ______ ____
ROOT
ATOM      1  C   UNL     1       6.754   7.336  17.343  0.00  0.00    +0.000 A 
ATOM      2  C   UNL     1       7.445   6.208  16.905  0.00  0.00    +0.000 A 
ATOM      3  C   UNL     1       6.830   4.956  16.896  0.00  0.00    +0.000 A 
ATOM      4  C   UNL     1       5.530   4.796  17.332  0.00  0.00    +0.000 A 
ATOM      5  N   UNL     1       4.983   3.571  17.289  0.00  0.00    +0.000 NA
ATOM      6  C   UNL     1       3.725   3.442  17.735  0.00  0.00    +0.000 A 
ATOM      7  C   UNL     1       3.129   2.187  17.727  0.00  0.00    +0.000 A 
ATOM      8  C   UNL     1       1.831   1.998  18.203  0.00  0.00    +0.000 A 
ATOM      9  C   UNL     1       1.117   3.089  18.681  0.00  0.00    +0.000 A 
ATOM     10  C   UNL     1       1.707   4.356  18.680  0.00  0.00    +0.000 A 
ATOM     11  C   UNL     1       3.004   4.555  18.223  0.00  0.00    +0.000 A 
ATOM     12  N   UNL     1       3.555   5.788  18.256  0.00  0.00    +0.000 NA
ATOM     13  C   UNL     1       4.822   5.918  17.815  0.00  0.00    +0.000 A 
ATOM     14  C   UNL     1       5.452   7.168  17.824  0.00  0.00    +0.000 A 
ENDROOT
BRANCH   1  17
ATOM     15  C   UNL     1       8.293   9.098  18.173  0.00  0.00    +0.000 C 
ATOM     16  O   UNL     1       8.816   8.445  19.072  0.00  0.00    +0.000 OA
ATOM     17  N   UNL     1       7.314   8.640  17.302  0.00  0.00    +0.000 N 
ATOM     18  H   UNL     1       7.115   9.201  16.483  0.00  0.00    +0.000 HD
BRANCH  15  23
ATOM     19  C   UNL     1      10.535  14.415  17.656  0.00  0.00    +0.000 C 
ATOM     20  C   UNL     1       9.941  13.039  17.750  0.00  0.00    +0.000 A 
ATOM     21  C   UNL     1      10.733  11.958  18.145  0.00  0.00    +0.000 A 
ATOM     22  C   UNL     1      10.174  10.686  18.250  0.00  0.00    +0.000 A 
ATOM     23  C   UNL     1       8.820  10.470  17.952  0.00  0.00    +0.000 A 
ATOM     24  C   UNL     1       8.021  11.544  17.553  0.00  0.00    +0.000 A 
ATOM     25  C   UNL     1       8.586  12.824  17.455  0.00  0.00    +0.000 A 
ENDBRANCH  15  23
ENDBRANCH   1  17
TORSDOF 2
ENDMDL
MODEL 5
REMARK VINA RESULT:      -8.1      0.178      1.002
REMARK  Name = 
REMARK  3 active torsions:
REMARK  status: ('A' for Active; 'I' for Inactive)
REMARK    1  A    between atoms: C_1  and  C_2
REMARK    2  A    between atoms: C_5  and  C_6
REMARK    3  A    between atoms: N_8  and  C_9
REMARK                            x       y       z     vdW  Elec       q    Type
REMARK                         _______ _______ _______ _____ _____    ______ ____
ROOT
ATOM      1  C   UNL     1       7.640   7.825  18.036  0.00  0.00    +0.000 A 
ATOM      2  C   UNL     1       8.325   6.738  18.575  0.00  0.00    +0.000 A 
ATOM      3  C   UNL     1       7.682   5.514  18.766  0.00  0.00    +0.000 A 
ATOM      4  C   UNL     1       6.351   5.350  18.441  0.00  0.00    +0.000 A 
ATOM      5  N   UNL     1       5.786   4.148  18.634  0.00  0.00    +0.000 NA
ATOM      6  C   UNL     1       4.487   4.022  18.325  0.00  0.00    +0.000 A 
ATOM      7  C   UNL     1       3.858   2.799  18.529  0.00  0.00    +0.000 A 
ATOM      8  C   UNL     1       2.503   2.625  18.247  0.00  0.00    +0.000 A 
ATOM      9  C   UNL     1       1.772   3.692  17.740  0.00  0.00    +0.000 A 
ATOM     10  C   UNL     1       2.401   4.920  17.522  0.00  0.00    +0.000 A 
ATOM     11  C   UNL     1       3.747   5.111  17.812  0.00  0.00    +0.000 A 
ATOM     12  N   UNL     1       4.321   6.317  17.612  0.00  0.00    +0.000 NA
ATOM     13  C   UNL     1       5.626   6.447  17.929  0.00  0.00    +0.000 A 
ATOM     14  C   UNL     1       6.281   7.671  17.747  0.00  0.00    +0.000 A 
ENDROOT
BRANCH   1  17
ATOM     15  C   UNL     1       8.872   9.870  18.716  0.00  0.00    +0.000 C 
ATOM     16  O   UNL     1       8.956   9.617  19.915  0.00  0.00    +0.000 OA
ATOM     17  N   UNL     1       8.271   9.065  17.757  0.00  0.00    +0.000 N 
ATOM     18  H   UNL     1       8.448   9.284  16.784  0.00  0.00    +0.000 HD
BRANCH  15  23
ATOM     19  C   UNL     1      11.229  14.727  16.614  0.00  0.00    +0.000 C 
ATOM     20  C   UNL     1      10.643  13.471  17.192  0.00  0.00    +0.000 A 
ATOM     21  C   UNL     1       9.266  13.371  17.405  0.00  0.00    +0.000 A 
ATOM     22  C   UNL     1       8.724  12.196  17.923  0.00  0.00    +0.000 A 
ATOM     23  C   UNL     1       9.547  11.108  18.247  0.00  0.00    +0.000 A 
ATOM     24  C   UNL     1      10.926  11.199  18.040  0.00  0.00    +0.000 A 
ATOM     25  C   UNL     1      11.467  12.381  17.513  0.00  0.00    +0.000 A 
ENDBRANCH  15  23
ENDBRANCH   1  17
TORSDOF 2
ENDMDL
MODEL 6
REMARK VINA RESULT:      -8.1      1.182      1.579
REMARK  Name = 
REMARK  3 active torsions:
REMARK  status: ('A' for Active; 'I' for Inactive)
REMARK    1  A    between atoms: C_1  and  C_2
REMARK    2  A    between atoms: C_5  and  C_6
REMARK    3  A    between atoms: N_8  and  C_9
REMARK                            x       y       z     vdW  Elec       q    Type
REMARK                         _______ _______ _______ _____ _____    ______ ____
ROOT
ATOM      1  C   UNL     1       6.802   7.399  17.355  0.00  0.00    +0.000 A 
ATOM      2  C   UNL     1       7.418   6.298  16.763  0.00  0.00    +0.000 A 
ATOM      3  C   UNL     1       6.765   5.067  16.695  0.00  0.00    +0.000 A 
ATOM      4  C   UNL     1       5.500   4.901  17.221  0.00  0.00    +0.000 A 
ATOM      5  N   UNL     1       4.912   3.699  17.117  0.00  0.00    +0.000 NA
ATOM      6  C   UNL     1       3.691   3.562  17.652  0.00  0.00    +0.000 A 
ATOM      7  C   UNL     1       3.056   2.328  17.584  0.00  0.00    +0.000 A 
ATOM      8  C   UNL     1       1.796   2.129  18.148  0.00  0.00    +0.000 A 
ATOM      9  C   UNL     1       1.158   3.189  18.778  0.00  0.00    +0.000 A 
ATOM     10  C   UNL     1       1.786   4.436  18.840  0.00  0.00    +0.000 A 
ATOM     11  C   UNL     1       3.048   4.643  18.295  0.00  0.00    +0.000 A 
ATOM     12  N   UNL     1       3.639   5.854  18.392  0.00  0.00    +0.000 NA
ATOM     13  C   UNL     1       4.870   5.991  17.860  0.00  0.00    +0.000 A 
ATOM     14  C   UNL     1       5.539   7.219  17.926  0.00  0.00    +0.000 A 
ENDROOT
BRANCH   1  17
ATOM     15  C   UNL     1       8.383   9.073  18.283  0.00  0.00    +0.000 C 
ATOM     16  O   UNL     1       8.879   8.362  19.153  0.00  0.00    +0.000 OA
ATOM     17  N   UNL     1       7.399   8.687  17.383  0.00  0.00    +0.000 N 
ATOM     18  H   UNL     1       7.223   9.293  16.591  0.00  0.00    +0.000 HD
BRANCH  15  23
ATOM     19  C   UNL     1      10.402  14.425  17.366  0.00  0.00    +0.000 C 
ATOM     20  C   UNL     1       9.894  13.039  17.643  0.00  0.00    +0.000 A 
ATOM     21  C   UNL     1       8.546  12.733  17.440  0.00  0.00    +0.000 A 
ATOM     22  C   UNL     1       8.081  11.441  17.680  0.00  0.00    +0.000 A 
ATOM     23  C   UNL     1       8.950  10.438  18.135  0.00  0.00    +0.000 A 
ATOM     24  C   UNL     1      10.299  10.736  18.344  0.00  0.00    +0.000 A 
ATOM     25  C   UNL     1      10.764  12.036  18.096  0.00  0.00    +0.000 A 
ENDBRANCH  15  23
ENDBRANCH   1  17
TORSDOF 2
ENDMDL
MODEL 7
REMARK VINA RESULT:      -8.0      5.754      7.956
REMARK  Name = 
REMARK  3 active torsions:
REMARK  status: ('A' for Active; 'I' for Inactive)
REMARK    1  A    between atoms: C_1  and  C_2
REMARK    2  A    between atoms: C_5  and  C_6
REMARK    3  A    between atoms: N_8  and  C_9
REMARK                            x       y       z     vdW  Elec       q    Type
REMARK                         _______ _______ _______ _____ _____    ______ ____
ROOT
ATOM      1  C   UNL     1       1.823   7.279  20.147  0.00  0.00    +0.000 A 
ATOM      2  C   UNL     1       1.823   5.968  20.618  0.00  0.00    +0.000 A 
ATOM      3  C   UNL     1       2.562   4.978  19.968  0.00  0.00    +0.000 A 
ATOM      4  C   UNL     1       3.299   5.265  18.838  0.00  0.00    +0.000 A 
ATOM      5  N   UNL     1       4.002   4.279  18.260  0.00  0.00    +0.000 NA
ATOM      6  C   UNL     1       4.696   4.582  17.153  0.00  0.00    +0.000 A 
ATOM      7  C   UNL     1       5.420   3.585  16.513  0.00  0.00    +0.000 A 
ATOM      8  C   UNL     1       6.137   3.846  15.345  0.00  0.00    +0.000 A 
ATOM      9  C   UNL     1       6.137   5.131  14.820  0.00  0.00    +0.000 A 
ATOM     10  C   UNL     1       5.420   6.142  15.466  0.00  0.00    +0.000 A 
ATOM     11  C   UNL     1       4.689   5.892  16.622  0.00  0.00    +0.000 A 
ATOM     12  N   UNL     1       3.988   6.884  17.211  0.00  0.00    +0.000 NA
ATOM     13  C   UNL     1       3.285   6.579  18.320  0.00  0.00    +0.000 A 
ATOM     14  C   UNL     1       2.535   7.561  18.978  0.00  0.00    +0.000 A 
ENDROOT
BRANCH   1  17
ATOM     15  C   UNL     1       0.578   9.427  20.178  0.00  0.00    +0.000 C 
ATOM     16  O   UNL     1       0.567   9.625  18.966  0.00  0.00    +0.000 OA
ATOM     17  N   UNL     1       1.145   8.332  20.817  0.00  0.00    +0.000 N 
ATOM     18  H   UNL     1       0.910   8.183  21.790  0.00  0.00    +0.000 HD
BRANCH  15  23
ATOM     19  C   UNL     1      -2.489  12.958  23.597  0.00  0.00    +0.000 C 
ATOM     20  C   UNL     1      -1.667  12.074  22.703  0.00  0.00    +0.000 A 
ATOM     21  C   UNL     1      -1.165  10.862  23.184  0.00  0.00    +0.000 A 
ATOM     22  C   UNL     1      -0.419  10.035  22.345  0.00  0.00    +0.000 A 
ATOM     23  C   UNL     1      -0.153  10.408  21.020  0.00  0.00    +0.000 A 
ATOM     24  C   UNL     1      -0.649  11.620  20.532  0.00  0.00    +0.000 A 
ATOM     25  C   UNL     1      -1.404  12.447  21.376  0.00  0.00    +0.000 A 
ENDBRANCH  15  23
ENDBRANCH   1  17
TORSDOF 2
ENDMDL
MODEL 8
REMARK VINA RESULT:      -8.0      5.671      7.871
REMARK  Name = 
REMARK  3 active torsions:
REMARK  status: ('A' for Active; 'I' for Inactive)
REMARK    1  A    between atoms: C_1  and  C_2
REMARK    2  A    between atoms: C_5  and  C_6
REMARK    3  A    between atoms: N_8  and  C_9
REMARK                            x       y       z     vdW  Elec       q    Type
REMARK                         _______ _______ _______ _____ _____    ______ ____
ROOT
ATOM      1  C   UNL     1       1.865   7.045  20.157  0.00  0.00    +0.000 A 
ATOM      2  C   UNL     1       1.896   5.723  20.596  0.00  0.00    +0.000 A 
ATOM      3  C   UNL     1       2.651   4.766  19.918  0.00  0.00    +0.000 A 
ATOM      4  C   UNL     1       3.375   5.095  18.791  0.00  0.00    +0.000 A 
ATOM      5  N   UNL     1       4.095   4.137  18.185  0.00  0.00    +0.000 NA
ATOM      6  C   UNL     1       4.775   4.482  17.082  0.00  0.00    +0.000 A 
ATOM      7  C   UNL     1       5.516   3.515  16.414  0.00  0.00    +0.000 A 
ATOM      8  C   UNL     1       6.220   3.819  15.249  0.00  0.00    +0.000 A 
ATOM      9  C   UNL     1       6.189   5.116  14.755  0.00  0.00    +0.000 A 
ATOM     10  C   UNL     1       5.456   6.096  15.429  0.00  0.00    +0.000 A 
ATOM     11  C   UNL     1       4.738   5.803  16.583  0.00  0.00    +0.000 A 
ATOM     12  N   UNL     1       4.019   6.766  17.199  0.00  0.00    +0.000 NA
ATOM     13  C   UNL     1       3.330   6.420  18.305  0.00  0.00    +0.000 A 
ATOM     14  C   UNL     1       2.564   7.370  18.990  0.00  0.00    +0.000 A 
ENDROOT
BRANCH   1  17
ATOM     15  C   UNL     1       0.689   9.229  20.265  0.00  0.00    +0.000 C 
ATOM     16  O   UNL     1       0.781   9.521  19.076  0.00  0.00    +0.000 OA
ATOM     17  N   UNL     1       1.170   8.068  20.855  0.00  0.00    +0.000 N 
ATOM     18  H   UNL     1       0.853   7.852  21.792  0.00  0.00    +0.000 HD
BRANCH  15  23
ATOM     19  C   UNL     1      -2.055  13.179  23.495  0.00  0.00    +0.000 C 
ATOM     20  C   UNL     1      -1.375  12.128  22.666  0.00  0.00    +0.000 A 
ATOM     21  C   UNL     1      -1.037  12.392  21.337  0.00  0.00    +0.000 A 
ATOM     22  C   UNL     1      -0.388  11.421  20.576  0.00  0.00    +0.000 A 
ATOM     23  C   UNL     1      -0.076  10.169  21.125  0.00  0.00    +0.000 A 
ATOM     24  C   UNL     1      -0.413   9.894  22.453  0.00  0.00    +0.000 A 
ATOM     25  C   UNL     1      -1.060  10.876  23.217  0.00  0.00    +0.000 A 
ENDBRANCH  15  23
ENDBRANCH   1  17
TORSDOF 2
ENDMDL
MODEL 9
REMARK VINA RESULT:      -7.9      5.751      8.419
REMARK  Name = 
REMARK  3 active torsions:
REMARK  status: ('A' for Active; 'I' for Inactive)
REMARK    1  A    between atoms: C_1  and  C_2
REMARK    2  A    between atoms: C_5  and  C_6
REMARK    3  A    between atoms: N_8  and  C_9
REMARK                            x       y       z     vdW  Elec       q    Type
REMARK                         _______ _______ _______ _____ _____    ______ ____
ROOT
ATOM      1  C   UNL     1       2.277   7.294  19.203  0.00  0.00    +0.000 A 
ATOM      2  C   UNL     1       1.899   6.587  20.342  0.00  0.00    +0.000 A 
ATOM      3  C   UNL     1       1.118   7.191  21.328  0.00  0.00    +0.000 A 
ATOM      4  C   UNL     1       0.711   8.504  21.211  0.00  0.00    +0.000 A 
ATOM      5  N   UNL     1      -0.050   9.032  22.183  0.00  0.00    +0.000 NA
ATOM      6  C   UNL     1      -0.416  10.315  22.051  0.00  0.00    +0.000 A 
ATOM      7  C   UNL     1      -1.187  10.904  23.045  0.00  0.00    +0.000 A 
ATOM      8  C   UNL     1      -1.572  12.243  22.965  0.00  0.00    +0.000 A 
ATOM      9  C   UNL     1      -1.189  12.996  21.863  0.00  0.00    +0.000 A 
ATOM     10  C   UNL     1      -0.424  12.405  20.853  0.00  0.00    +0.000 A 
ATOM     11  C   UNL     1      -0.021  11.076  20.928  0.00  0.00    +0.000 A 
ATOM     12  N   UNL     1       0.738  10.540  19.948  0.00  0.00    +0.000 NA
ATOM     13  C   UNL     1       1.113   9.252  20.083  0.00  0.00    +0.000 A 
ATOM     14  C   UNL     1       1.900   8.636  19.104  0.00  0.00    +0.000 A 
ENDROOT
BRANCH   1  17
ATOM     15  C   UNL     1       4.155   5.935  18.313  0.00  0.00    +0.000 C 
ATOM     16  O   UNL     1       4.677   5.657  19.390  0.00  0.00    +0.000 OA
ATOM     17  N   UNL     1       3.008   6.699  18.141  0.00  0.00    +0.000 N 
ATOM     18  H   UNL     1       2.567   6.684  17.230  0.00  0.00    +0.000 HD
BRANCH  15  23
ATOM     19  C   UNL     1       6.300   3.803  13.373  0.00  0.00    +0.000 C 
ATOM     20  C   UNL     1       5.775   4.336  14.674  0.00  0.00    +0.000 A 
ATOM     21  C   UNL     1       5.607   5.711  14.853  0.00  0.00    +0.000 A 
ATOM     22  C   UNL     1       5.101   6.201  16.056  0.00  0.00    +0.000 A 
ATOM     23  C   UNL     1       4.764   5.329  17.102  0.00  0.00    +0.000 A 
ATOM     24  C   UNL     1       4.931   3.952  16.933  0.00  0.00    +0.000 A 
ATOM     25  C   UNL     1       5.435   3.462  15.719  0.00  0.00    +0.000 A 
ENDBRANCH  15  23
ENDBRANCH   1  17
TORSDOF 2
ENDMDL
