MODEL 1
REMARK VINA RESULT:      -6.1      0.000      0.000
REMARK  Name = 
REMARK  5 active torsions:
REMARK  status: ('A' for Active; 'I' for Inactive)
REMARK    1  A    between atoms: C_2  and  O_3
REMARK    2  A    between atoms: C_2  and  C_4
REMARK    3  A    between atoms: N_6  and  C_7
REMARK    4  A    between atoms: C_11  and  C_12
REMARK    5  A    between atoms: C_12  and  O_14
REMARK                            x       y       z     vdW  Elec       q    Type
REMARK                         _______ _______ _______ _____ _____    ______ ____
ROOT
ATOM      1  C   UNL     1       3.984   4.493  19.259  0.00  0.00    +0.000 A 
ATOM      2  C   UNL     1       3.072   5.511  19.458  0.00  0.00    +0.000 A 
ATOM      3  S   UNL     1       1.871   5.119  20.606  0.00  0.00    +0.000 S 
ATOM      4  C   UNL     1       2.548   3.574  20.854  0.00  0.00    +0.000 A 
ATOM      5  C   UNL     1       3.649   3.329  20.050  0.00  0.00    +0.000 A 
ENDROOT
BRANCH   1   8
ATOM      6  C   UNL     1       6.349   4.938  18.751  0.00  0.00    +0.000 C 
ATOM      7  O   UNL     1       6.793   5.233  19.857  0.00  0.00    +0.000 OA
ATOM      8  N   UNL     1       5.074   4.559  18.392  0.00  0.00    +0.000 N 
ATOM      9  H   UNL     1       4.942   4.217  17.436  0.00  0.00    +0.000 HD
BRANCH   6  11
ATOM     10  O   UNL     1       7.274   5.696  16.646  0.00  0.00    +0.000 OA
ATOM     11  C   UNL     1       7.353   4.936  17.589  0.00  0.00    +0.000 C 
BRANCH  11  12
ATOM     12  O   UNL     1       8.304   3.994  17.779  0.00  0.00    +0.000 OA
ATOM     13  H   UNL     1       8.009   3.157  17.350  0.00  0.00    +0.000 HD
ENDBRANCH  11  12
ENDBRANCH   6  11
ENDBRANCH   1   8
BRANCH   5  14
ATOM     14  C   UNL     1       4.403   2.080  20.070  0.00  0.00    +0.000 C 
ATOM     15  O   UNL     1       4.986   1.675  21.067  0.00  0.00    +0.000 OA
BRANCH  14  16
ATOM     16  O   UNL     1       4.461   1.417  18.887  0.00  0.00    +0.000 OA
ATOM     17  H   UNL     1       3.609   1.028  18.617  0.00  0.00    +0.000 HD
ENDBRANCH  14  16
ENDBRANCH   5  14
TORSDOF 5
ENDMDL
MODEL 2
REMARK VINA RESULT:      -6.0      0.609      1.276
REMARK  Name = 
REMARK  5 active torsions:
REMARK  status: ('A' for Active; 'I' for Inactive)
REMARK    1  A    between atoms: C_2  and  O_3
REMARK    2  A    between atoms: C_2  and  C_4
REMARK    3  A    between atoms: N_6  and  C_7
REMARK    4  A    between atoms: C_11  and  C_12
REMARK    5  A    between atoms: C_12  and  O_14
REMARK                            x       y       z     vdW  Elec       q    Type
REMARK                         _______ _______ _______ _____ _____    ______ ____
ROOT
ATOM      1  C   UNL     1       3.983   4.748  19.052  0.00  0.00    +0.000 A 
ATOM      2  C   UNL     1       3.243   5.835  19.476  0.00  0.00    +0.000 A 
ATOM      3  S   UNL     1       1.962   5.406  20.520  0.00  0.00    +0.000 S 
ATOM      4  C   UNL     1       2.372   3.754  20.418  0.00  0.00    +0.000 A 
ATOM      5  C   UNL     1       3.441   3.512  19.571  0.00  0.00    +0.000 A 
ENDROOT
BRANCH   1   8
ATOM      6  C   UNL     1       6.380   5.102  18.622  0.00  0.00    +0.000 C 
ATOM      7  O   UNL     1       6.813   5.289  19.756  0.00  0.00    +0.000 OA
ATOM      8  N   UNL     1       5.094   4.821  18.213  0.00  0.00    +0.000 N 
ATOM      9  H   UNL     1       4.966   4.559  17.231  0.00  0.00    +0.000 HD
BRANCH   6  11
ATOM     10  O   UNL     1       8.134   4.196  17.223  0.00  0.00    +0.000 OA
ATOM     11  C   UNL     1       7.408   5.133  17.482  0.00  0.00    +0.000 C 
BRANCH  11  12
ATOM     12  O   UNL     1       7.372   6.319  16.837  0.00  0.00    +0.000 OA
ATOM     13  H   UNL     1       7.708   6.190  15.919  0.00  0.00    +0.000 HD
ENDBRANCH  11  12
ENDBRANCH   6  11
ENDBRANCH   1   8
BRANCH   5  14
ATOM     14  C   UNL     1       3.982   2.181  19.312  0.00  0.00    +0.000 C 
ATOM     15  O   UNL     1       3.409   1.359  18.610  0.00  0.00    +0.000 OA
BRANCH  14  16
ATOM     16  O   UNL     1       5.146   1.893  19.948  0.00  0.00    +0.000 OA
ATOM     17  H   UNL     1       5.145   1.023  20.386  0.00  0.00    +0.000 HD
ENDBRANCH  14  16
ENDBRANCH   5  14
TORSDOF 5
ENDMDL
MODEL 3
REMARK VINA RESULT:      -5.9      2.421      4.928
REMARK  Name = 
REMARK  5 active torsions:
REMARK  status: ('A' for Active; 'I' for Inactive)
REMARK    1  A    between atoms: C_2  and  O_3
REMARK    2  A    between atoms: C_2  and  C_4
REMARK    3  A    between atoms: N_6  and  C_7
REMARK    4  A    between atoms: C_11  and  C_12
REMARK    5  A    between atoms: C_12  and  O_14
REMARK                            x       y       z     vdW  Elec       q    Type
REMARK                         _______ _______ _______ _____ _____    ______ ____
ROOT
ATOM      1  C   UNL     1       5.943   4.355  17.677  0.00  0.00    +0.000 A 
ATOM      2  C   UNL     1       5.468   4.270  16.382  0.00  0.00    +0.000 A 
ATOM      3  S   UNL     1       6.138   5.448  15.345  0.00  0.00    +0.000 S 
ATOM      4  C   UNL     1       7.073   6.099  16.614  0.00  0.00    +0.000 A 
ATOM      5  C   UNL     1       6.856   5.466  17.827  0.00  0.00    +0.000 A 
ENDROOT
BRANCH   1   8
ATOM      6  C   UNL     1       4.321   3.444  19.287  0.00  0.00    +0.000 C 
ATOM      7  O   UNL     1       3.300   4.056  18.988  0.00  0.00    +0.000 OA
ATOM      8  N   UNL     1       5.574   3.502  18.717  0.00  0.00    +0.000 N 
ATOM      9  H   UNL     1       6.257   2.804  19.024  0.00  0.00    +0.000 HD
BRANCH   6  11
ATOM     10  O   UNL     1       3.280   2.425  21.220  0.00  0.00    +0.000 OA
ATOM     11  C   UNL     1       4.199   2.422  20.427  0.00  0.00    +0.000 C 
BRANCH  11  12
ATOM     12  O   UNL     1       5.232   1.552  20.403  0.00  0.00    +0.000 OA
ATOM     13  H   UNL     1       4.971   0.738  20.895  0.00  0.00    +0.000 HD
ENDBRANCH  11  12
ENDBRANCH   6  11
ENDBRANCH   1   8
BRANCH   5  14
ATOM     14  C   UNL     1       7.532   5.838  19.066  0.00  0.00    +0.000 C 
ATOM     15  O   UNL     1       7.331   5.266  20.128  0.00  0.00    +0.000 OA
BRANCH  14  16
ATOM     16  O   UNL     1       8.368   6.905  18.974  0.00  0.00    +0.000 OA
ATOM     17  H   UNL     1       8.904   7.049  19.774  0.00  0.00    +0.000 HD
ENDBRANCH  14  16
ENDBRANCH   5  14
TORSDOF 5
ENDMDL
MODEL 4
REMARK VINA RESULT:      -5.8      0.981      1.203
REMARK  Name = 
REMARK  5 active torsions:
REMARK  status: ('A' for Active; 'I' for Inactive)
REMARK    1  A    between atoms: C_2  and  O_3
REMARK    2  A    between atoms: C_2  and  C_4
REMARK    3  A    between atoms: N_6  and  C_7
REMARK    4  A    between atoms: C_11  and  C_12
REMARK    5  A    between atoms: C_12  and  O_14
REMARK                            x       y       z     vdW  Elec       q    Type
REMARK                         _______ _______ _______ _____ _____    ______ ____
ROOT
ATOM      1  C   UNL     1       4.220   4.705  19.387  0.00  0.00    +0.000 A 
ATOM      2  C   UNL     1       3.313   5.737  19.533  0.00  0.00    +0.000 A 
ATOM      3  S   UNL     1       1.920   5.285  20.409  0.00  0.00    +0.000 S 
ATOM      4  C   UNL     1       2.504   3.695  20.604  0.00  0.00    +0.000 A 
ATOM      5  C   UNL     1       3.722   3.483  19.980  0.00  0.00    +0.000 A 
ENDROOT
BRANCH   1   8
ATOM      6  C   UNL     1       5.707   4.350  17.459  0.00  0.00    +0.000 C 
ATOM      7  O   UNL     1       4.947   3.825  16.650  0.00  0.00    +0.000 OA
ATOM      8  N   UNL     1       5.447   4.809  18.732  0.00  0.00    +0.000 N 
ATOM      9  H   UNL     1       6.187   5.346  19.193  0.00  0.00    +0.000 HD
BRANCH   6  11
ATOM     10  O   UNL     1       7.425   5.180  15.970  0.00  0.00    +0.000 OA
ATOM     11  C   UNL     1       7.150   4.585  16.991  0.00  0.00    +0.000 C 
BRANCH  11  12
ATOM     12  O   UNL     1       8.030   4.050  17.866  0.00  0.00    +0.000 OA
ATOM     13  H   UNL     1       8.927   4.057  17.455  0.00  0.00    +0.000 HD
ENDBRANCH  11  12
ENDBRANCH   6  11
ENDBRANCH   1   8
BRANCH   5  14
ATOM     14  C   UNL     1       4.429   2.207  19.998  0.00  0.00    +0.000 C 
ATOM     15  O   UNL     1       5.021   1.791  20.985  0.00  0.00    +0.000 OA
BRANCH  14  16
ATOM     16  O   UNL     1       4.431   1.528  18.822  0.00  0.00    +0.000 OA
ATOM     17  H   UNL     1       3.900   0.712  18.843  0.00  0.00    +0.000 HD
ENDBRANCH  14  16
ENDBRANCH   5  14
TORSDOF 5
ENDMDL
MODEL 5
REMARK VINA RESULT:      -5.8      2.476      3.565
REMARK  Name = 
REMARK  5 active torsions:
REMARK  status: ('A' for Active; 'I' for Inactive)
REMARK    1  A    between atoms: C_2  and  O_3
REMARK    2  A    between atoms: C_2  and  C_4
REMARK    3  A    between atoms: N_6  and  C_7
REMARK    4  A    between atoms: C_11  and  C_12
REMARK    5  A    between atoms: C_12  and  O_14
REMARK                            x       y       z     vdW  Elec       q    Type
REMARK                         _______ _______ _______ _____ _____    ______ ____
ROOT
ATOM      1  C   UNL     1       4.766   4.467  17.385  0.00  0.00    +0.000 A 
ATOM      2  C   UNL     1       3.439   4.085  17.413  0.00  0.00    +0.000 A 
ATOM      3  S   UNL     1       2.662   4.469  18.884  0.00  0.00    +0.000 S 
ATOM      4  C   UNL     1       4.093   5.150  19.514  0.00  0.00    +0.000 A 
ATOM      5  C   UNL     1       5.168   5.055  18.644  0.00  0.00    +0.000 A 
ENDROOT
BRANCH   1   8
ATOM      6  C   UNL     1       5.870   5.230  15.324  0.00  0.00    +0.000 C 
ATOM      7  O   UNL     1       5.455   6.382  15.229  0.00  0.00    +0.000 OA
ATOM      8  N   UNL     1       5.623   4.289  16.300  0.00  0.00    +0.000 N 
ATOM      9  H   UNL     1       6.179   3.430  16.269  0.00  0.00    +0.000 HD
BRANCH   6  11
ATOM     10  O   UNL     1       7.818   5.406  13.898  0.00  0.00    +0.000 OA
ATOM     11  C   UNL     1       6.846   4.762  14.235  0.00  0.00    +0.000 C 
BRANCH  11  12
ATOM     12  O   UNL     1       6.470   3.563  13.737  0.00  0.00    +0.000 OA
ATOM     13  H   UNL     1       6.345   3.652  12.763  0.00  0.00    +0.000 HD
ENDBRANCH  11  12
ENDBRANCH   6  11
ENDBRANCH   1   8
BRANCH   5  14
ATOM     14  C   UNL     1       6.502   5.559  18.950  0.00  0.00    +0.000 C 
ATOM     15  O   UNL     1       7.119   5.232  19.955  0.00  0.00    +0.000 OA
BRANCH  14  16
ATOM     16  O   UNL     1       6.999   6.463  18.067  0.00  0.00    +0.000 OA
ATOM     17  H   UNL     1       6.918   7.385  18.368  0.00  0.00    +0.000 HD
ENDBRANCH  14  16
ENDBRANCH   5  14
TORSDOF 5
ENDMDL
MODEL 6
REMARK VINA RESULT:      -5.8      1.476      1.476
REMARK  Name = 
REMARK  5 active torsions:
REMARK  status: ('A' for Active; 'I' for Inactive)
REMARK    1  A    between atoms: C_2  and  O_3
REMARK    2  A    between atoms: C_2  and  C_4
REMARK    3  A    between atoms: N_6  and  C_7
REMARK    4  A    between atoms: C_11  and  C_12
REMARK    5  A    between atoms: C_12  and  O_14
REMARK                            x       y       z     vdW  Elec       q    Type
REMARK                         _______ _______ _______ _____ _____    ______ ____
ROOT
ATOM      1  C   UNL     1       3.881   3.582  17.861  0.00  0.00    +0.000 A 
ATOM      2  C   UNL     1       2.806   4.360  17.476  0.00  0.00    +0.000 A 
ATOM      3  S   UNL     1       1.369   3.978  18.313  0.00  0.00    +0.000 S 
ATOM      4  C   UNL     1       2.159   2.757  19.203  0.00  0.00    +0.000 A 
ATOM      5  C   UNL     1       3.489   2.601  18.849  0.00  0.00    +0.000 A 
ENDROOT
BRANCH   1   8
ATOM      6  C   UNL     1       6.049   4.724  17.639  0.00  0.00    +0.000 C 
ATOM      7  O   UNL     1       5.911   5.673  18.406  0.00  0.00    +0.000 OA
ATOM      8  N   UNL     1       5.173   3.700  17.350  0.00  0.00    +0.000 N 
ATOM      9  H   UNL     1       5.534   2.925  16.786  0.00  0.00    +0.000 HD
BRANCH   6  11
ATOM     10  O   UNL     1       7.586   5.008  15.793  0.00  0.00    +0.000 OA
ATOM     11  C   UNL     1       7.403   4.611  16.925  0.00  0.00    +0.000 C 
BRANCH  11  12
ATOM     12  O   UNL     1       8.321   4.028  17.726  0.00  0.00    +0.000 OA
ATOM     13  H   UNL     1       7.874   3.731  18.554  0.00  0.00    +0.000 HD
ENDBRANCH  11  12
ENDBRANCH   6  11
ENDBRANCH   1   8
BRANCH   5  14
ATOM     14  C   UNL     1       4.379   1.621  19.461  0.00  0.00    +0.000 C 
ATOM     15  O   UNL     1       4.993   1.840  20.497  0.00  0.00    +0.000 OA
BRANCH  14  16
ATOM     16  O   UNL     1       4.525   0.459  18.774  0.00  0.00    +0.000 OA
ATOM     17  H   UNL     1       5.342  -0.023  18.994  0.00  0.00    +0.000 HD
ENDBRANCH  14  16
ENDBRANCH   5  14
TORSDOF 5
ENDMDL
MODEL 7
REMARK VINA RESULT:      -5.8      1.002      1.495
REMARK  Name = 
REMARK  5 active torsions:
REMARK  status: ('A' for Active; 'I' for Inactive)
REMARK    1  A    between atoms: C_2  and  O_3
REMARK    2  A    between atoms: C_2  and  C_4
REMARK    3  A    between atoms: N_6  and  C_7
REMARK    4  A    between atoms: C_11  and  C_12
REMARK    5  A    between atoms: C_12  and  O_14
REMARK                            x       y       z     vdW  Elec       q    Type
REMARK                         _______ _______ _______ _____ _____    ______ ____
ROOT
ATOM      1  C   UNL     1       4.129   4.619  19.346  0.00  0.00    +0.000 A 
ATOM      2  C   UNL     1       3.330   5.675  19.740  0.00  0.00    +0.000 A 
ATOM      3  S   UNL     1       1.868   5.176  20.462  0.00  0.00    +0.000 S 
ATOM      4  C   UNL     1       2.274   3.533  20.256  0.00  0.00    +0.000 A 
ATOM      5  C   UNL     1       3.485   3.351  19.608  0.00  0.00    +0.000 A 
ENDROOT
BRANCH   1   8
ATOM      6  C   UNL     1       5.604   4.906  17.398  0.00  0.00    +0.000 C 
ATOM      7  O   UNL     1       4.792   5.013  16.483  0.00  0.00    +0.000 OA
ATOM      8  N   UNL     1       5.382   4.748  18.749  0.00  0.00    +0.000 N 
ATOM      9  H   UNL     1       6.197   4.820  19.365  0.00  0.00    +0.000 HD
BRANCH   6  11
ATOM     10  O   UNL     1       7.488   5.718  16.116  0.00  0.00    +0.000 OA
ATOM     11  C   UNL     1       7.087   5.008  17.014  0.00  0.00    +0.000 C 
BRANCH  11  12
ATOM     12  O   UNL     1       7.843   4.217  17.807  0.00  0.00    +0.000 OA
ATOM     13  H   UNL     1       8.109   3.418  17.294  0.00  0.00    +0.000 HD
ENDBRANCH  11  12
ENDBRANCH   6  11
ENDBRANCH   1   8
BRANCH   5  14
ATOM     14  C   UNL     1       4.053   2.040  19.310  0.00  0.00    +0.000 C 
ATOM     15  O   UNL     1       3.541   1.262  18.517  0.00  0.00    +0.000 OA
BRANCH  14  16
ATOM     16  O   UNL     1       5.168   1.716  20.014  0.00  0.00    +0.000 OA
ATOM     17  H   UNL     1       5.293   0.756  20.124  0.00  0.00    +0.000 HD
ENDBRANCH  14  16
ENDBRANCH   5  14
TORSDOF 5
ENDMDL
MODEL 8
REMARK VINA RESULT:      -5.8      2.265      3.418
REMARK  Name = 
REMARK  5 active torsions:
REMARK  status: ('A' for Active; 'I' for Inactive)
REMARK    1  A    between atoms: C_2  and  O_3
REMARK    2  A    between atoms: C_2  and  C_4
REMARK    3  A    between atoms: N_6  and  C_7
REMARK    4  A    between atoms: C_11  and  C_12
REMARK    5  A    between atoms: C_12  and  O_14
REMARK                            x       y       z     vdW  Elec       q    Type
REMARK                         _______ _______ _______ _____ _____    ______ ____
ROOT
ATOM      1  C   UNL     1       4.654   4.262  17.266  0.00  0.00    +0.000 A 
ATOM      2  C   UNL     1       3.282   4.103  17.271  0.00  0.00    +0.000 A 
ATOM      3  S   UNL     1       2.583   4.372  18.805  0.00  0.00    +0.000 S 
ATOM      4  C   UNL     1       4.108   4.701  19.493  0.00  0.00    +0.000 A 
ATOM      5  C   UNL     1       5.150   4.570  18.589  0.00  0.00    +0.000 A 
ENDROOT
BRANCH   1   8
ATOM      6  C   UNL     1       5.777   5.130  15.256  0.00  0.00    +0.000 C 
ATOM      7  O   UNL     1       5.465   6.317  15.288  0.00  0.00    +0.000 OA
ATOM      8  N   UNL     1       5.467   4.120  16.142  0.00  0.00    +0.000 N 
ATOM      9  H   UNL     1       5.944   3.224  16.010  0.00  0.00    +0.000 HD
BRANCH   6  11
ATOM     10  O   UNL     1       6.402   3.776  13.350  0.00  0.00    +0.000 OA
ATOM     11  C   UNL     1       6.683   4.690  14.098  0.00  0.00    +0.000 C 
BRANCH  11  12
ATOM     12  O   UNL     1       7.795   5.454  14.043  0.00  0.00    +0.000 OA
ATOM     13  H   UNL     1       7.544   6.392  14.217  0.00  0.00    +0.000 HD
ENDBRANCH  11  12
ENDBRANCH   6  11
ENDBRANCH   1   8
BRANCH   5  14
ATOM     14  C   UNL     1       6.550   4.795  18.932  0.00  0.00    +0.000 C 
ATOM     15  O   UNL     1       6.898   5.509  19.863  0.00  0.00    +0.000 OA
BRANCH  14  16
ATOM     16  O   UNL     1       7.452   4.196  18.113  0.00  0.00    +0.000 OA
ATOM     17  H   UNL     1       7.784   3.346  18.454  0.00  0.00    +0.000 HD
ENDBRANCH  14  16
ENDBRANCH   5  14
TORSDOF 5
ENDMDL
MODEL 9
REMARK VINA RESULT:      -5.8      2.621      3.391
REMARK  Name = 
REMARK  5 active torsions:
REMARK  status: ('A' for Active; 'I' for Inactive)
REMARK    1  A    between atoms: C_2  and  O_3
REMARK    2  A    between atoms: C_2  and  C_4
REMARK    3  A    between atoms: N_6  and  C_7
REMARK    4  A    between atoms: C_11  and  C_12
REMARK    5  A    between atoms: C_12  and  O_14
REMARK                            x       y       z     vdW  Elec       q    Type
REMARK                         _______ _______ _______ _____ _____    ______ ____
ROOT
ATOM      1  C   UNL     1       4.025   3.608  18.141  0.00  0.00    +0.000 A 
ATOM      2  C   UNL     1       3.525   2.322  18.067  0.00  0.00    +0.000 A 
ATOM      3  S   UNL     1       1.887   2.213  18.532  0.00  0.00    +0.000 S 
ATOM      4  C   UNL     1       1.818   3.888  18.847  0.00  0.00    +0.000 A 
ATOM      5  C   UNL     1       3.030   4.528  18.646  0.00  0.00    +0.000 A 
ENDROOT
BRANCH   1   8
ATOM      6  C   UNL     1       5.754   4.283  16.526  0.00  0.00    +0.000 C 
ATOM      7  O   UNL     1       5.111   4.345  15.481  0.00  0.00    +0.000 OA
ATOM      8  N   UNL     1       5.326   3.977  17.799  0.00  0.00    +0.000 N 
ATOM      9  H   UNL     1       5.996   4.118  18.561  0.00  0.00    +0.000 HD
BRANCH   6  11
ATOM     10  O   UNL     1       8.075   4.212  17.208  0.00  0.00    +0.000 OA
ATOM     11  C   UNL     1       7.244   4.642  16.435  0.00  0.00    +0.000 C 
BRANCH  11  12
ATOM     12  O   UNL     1       7.474   5.474  15.396  0.00  0.00    +0.000 OA
ATOM     13  H   UNL     1       6.783   6.177  15.396  0.00  0.00    +0.000 HD
ENDBRANCH  11  12
ENDBRANCH   6  11
ENDBRANCH   1   8
BRANCH   5  14
ATOM     14  C   UNL     1       3.233   5.958  18.850  0.00  0.00    +0.000 C 
ATOM     15  O   UNL     1       3.726   6.685  17.998  0.00  0.00    +0.000 OA
BRANCH  14  16
ATOM     16  O   UNL     1       2.884   6.425  20.076  0.00  0.00    +0.000 OA
ATOM     17  H   UNL     1       2.176   7.094  20.051  0.00  0.00    +0.000 HD
ENDBRANCH  14  16
ENDBRANCH   5  14
TORSDOF 5
ENDMDL
